# generated using pymatgen
data_In86Cu29Se144
_symmetry_space_group_name_H-M   'P 1'
_cell_length_a   17.59520161
_cell_length_b   17.59390397
_cell_length_c   23.45392851
_cell_angle_alpha   89.99176291
_cell_angle_beta   90.00155777
_cell_angle_gamma   90.00531727
_symmetry_Int_Tables_number   1
_chemical_formula_structural   In86Cu29Se144
_chemical_formula_sum   'In86 Cu29 Se144'
_cell_volume   7260.59237372
_cell_formula_units_Z   1
loop_
 _symmetry_equiv_pos_site_id
 _symmetry_equiv_pos_as_xyz
  1  'x, y, z'
loop_
 _atom_site_type_symbol
 _atom_site_label
 _atom_site_symmetry_multiplicity
 _atom_site_fract_x
 _atom_site_fract_y
 _atom_site_fract_z
 _atom_site_occupancy
  In  In0  1  -0.01074525  0.14773611  0.10661003  1
  In  In1  1  -0.00471869  0.17417178  0.63042403  1
  In  In2  1  0.00968467  0.50491716  0.13288054  1
  In  In3  1  -0.00285849  0.52115316  0.61622699  1
  In  In4  1  -0.00750488  0.83179485  0.12203720  1
  In  In5  1  0.00207558  0.82194231  0.61450970  1
  In  In6  1  0.33630058  0.16791827  0.12295440  1
  In  In7  1  0.33959998  0.14921201  0.62789657  1
  In  In8  1  0.33575157  0.49539610  0.13271795  1
  In  In9  1  0.35372896  0.49910236  0.62233405  1
  In  In10  1  0.34056914  0.83031881  0.12555382  1
  In  In11  1  0.32779920  0.83149156  0.61855235  1
  In  In12  1  0.66217156  0.16667988  0.12665207  1
  In  In13  1  0.66457950  0.17427142  0.63145092  1
  In  In14  1  0.65403008  0.50395142  0.13083521  1
  In  In15  1  0.65937129  0.49624928  0.61563094  1
  In  In16  1  0.66997067  0.84024995  0.12274063  1
  In  In17  1  0.66160460  0.83975890  0.62087632  1
  In  In18  1  0.16828855  -0.01602482  0.37283682  1
  In  In19  1  0.16859624  -0.00333849  0.89000161  1
  In  In20  1  0.17202217  0.32189619  0.36912292  1
  In  In21  1  0.16255631  0.32427100  0.87791748  1
  In  In22  1  0.17682528  0.67662468  0.36573806  1
  In  In23  1  0.18341494  0.67404526  0.87244080  1
  In  In24  1  0.50071253  0.00234144  0.37291296  1
  In  In25  1  0.51096428  -0.00811931  0.87766762  1
  In  In26  1  0.50208973  0.33068822  0.37129797  1
  In  In27  1  0.51006076  0.32544846  0.88233615  1
  In  In28  1  0.49034312  0.67671334  0.37830965  1
  In  In29  1  0.47890780  0.68139051  0.89468898  1
  In  In30  1  0.81743254  -0.00647639  0.37499552  1
  In  In31  1  0.82035703  0.01045013  0.88345987  1
  In  In32  1  0.81964143  0.35251817  0.37106341  1
  In  In33  1  0.81460029  0.32597398  0.87083210  1
  In  In34  1  0.83788827  0.66418685  0.37887944  1
  In  In35  1  0.84513232  0.67106947  0.87418011  1
  In  In36  1  0.00429822  0.17054795  0.37189339  1
  In  In37  1  0.00823113  0.14521378  0.89474534  1
  In  In38  1  -0.02398721  0.51367435  0.37546750  1
  In  In39  1  0.00178221  0.50463403  0.87444581  1
  In  In40  1  0.00859020  0.81925007  0.38834318  1
  In  In41  1  -0.00749311  0.84814353  0.89537949  1
  In  In42  1  0.34447819  0.17622477  0.36053593  1
  In  In43  1  0.33597524  0.17066074  0.88471578  1
  In  In44  1  0.34141586  0.50423808  0.36916012  1
  In  In45  1  0.33826083  0.52006826  0.87711575  1
  In  In46  1  0.33641491  0.83347445  0.36950897  1
  In  In47  1  0.33845307  0.82128776  0.89207866  1
  In  In48  1  0.64464359  0.14559556  0.36295539  1
  In  In49  1  0.66157535  0.16549460  0.87626403  1
  In  In50  1  0.67361827  0.49030254  0.37451137  1
  In  In51  1  0.66566878  0.48777920  0.87116553  1
  In  In52  1  0.65916401  0.84846256  0.38837875  1
  In  In53  1  0.64839461  0.84873794  0.87934598  1
  In  In54  1  0.17654921  0.01009773  0.11541295  1
  In  In55  1  0.17944349  -0.01292281  0.62673926  1
  In  In56  1  0.17360343  0.33114412  0.12799944  1
  In  In57  1  0.15750948  0.33056951  0.62750557  1
  In  In58  1  0.16428338  0.66920544  0.13362729  1
  In  In59  1  0.17117232  0.68403521  0.62327098  1
  In  In60  1  0.49913678  -0.00084914  0.12628819  1
  In  In61  1  0.50826623  0.00812898  0.61212747  1
  In  In62  1  0.50095208  0.33221380  0.12629507  1
  In  In63  1  0.51314721  0.34213350  0.61860629  1
  In  In64  1  0.49373616  0.65846139  0.11427936  1
  In  In65  1  0.49817700  0.66653882  0.62010916  1
  In  In66  1  0.82285860  -0.01046576  0.12089675  1
  In  In67  1  0.82902497  -0.01608382  0.62283320  1
  In  In68  1  0.83808612  0.32176256  0.12962110  1
  In  In69  1  0.81441736  0.32672335  0.62200094  1
  In  In70  1  0.83236566  0.68295832  0.13013289  1
  In  In71  1  0.83743303  0.66777985  0.60689603  1
  In  In72  1  -0.00818184  0.33080423  0.75502760  1
  In  In73  1  0.17338741  0.50596967  0.48527946  1
  In  In74  1  0.17549408  0.15645111  0.50873267  1
  In  In75  1  0.66829356  0.66607628  0.25418683  1
  In  In76  1  0.82840113  0.16500500  0.49240649  1
  In  In77  1  0.66043170  0.66514570  0.74623354  1
  In  In78  1  -0.00125976  -0.00336435  0.24344824  1
  In  In79  1  0.33722338  -0.00539423  0.75327510  1
  In  In80  1  0.00606696  0.33673368  0.24822395  1
  In  In81  1  -0.00295797  -0.00076867  0.76263372  1
  In  In82  1  0.17321833  0.50083279  0.00759578  1
  In  In83  1  0.83029822  0.49717836  -0.00108605  1
  In  In84  1  0.00362335  0.67129566  0.74669915  1
  In  In85  1  0.34198624  0.33156108  0.75932373  1
  Cu  Cu86  1  0.83644734  0.83525913  0.25257847  1
  Cu  Cu87  1  0.66225409  0.00293367  0.00130450  1
  Cu  Cu88  1  0.33881215  0.00145418  0.00546660  1
  Cu  Cu89  1  0.33429827  0.33611749  0.00617975  1
  Cu  Cu90  1  0.82136266  0.17046354  0.25153961  1
  Cu  Cu91  1  0.49568641  0.49680950  0.24886580  1
  Cu  Cu92  1  0.17064018  0.16572781  0.24065463  1
  Cu  Cu93  1  0.00126280  -0.00401950  0.50104107  1
  Cu  Cu94  1  -0.00001571  0.66903347  0.00410107  1
  Cu  Cu95  1  0.66251943  0.66466946  0.49634638  1
  Cu  Cu96  1  0.82043668  0.83463639  0.74874675  1
  Cu  Cu97  1  0.00052616  0.34171410  0.49541190  1
  Cu  Cu98  1  0.82761122  0.16199101  0.75595135  1
  Cu  Cu99  1  0.17352992  0.83233879  0.24869352  1
  Cu  Cu100  1  0.33169046  0.66830208  0.49426996  1
  Cu  Cu101  1  0.16762448  0.50569004  0.25448564  1
  Cu  Cu102  1  0.50446805  0.50540909  0.74597232  1
  Cu  Cu103  1  0.66622532  0.32893430  0.00256663  1
  Cu  Cu104  1  0.50568311  0.16897150  0.75042109  1
  Cu  Cu105  1  0.66363510  0.33048871  0.49519024  1
  Cu  Cu106  1  0.16472157  0.83320961  0.75260653  1
  Cu  Cu107  1  -0.00521095  0.32478599  -0.00045151  1
  Cu  Cu108  1  0.50213550  0.83270879  0.25024063  1
  Cu  Cu109  1  0.49871451  0.16556937  0.24431290  1
  Cu  Cu110  1  0.82872703  0.49265038  0.73860264  1
  Cu  Cu111  1  0.33706136  -0.00196929  0.49383814  1
  Cu  Cu112  1  0.34796611  0.32462028  0.49874273  1
  Cu  Cu113  1  0.67137019  0.67072490  0.00453428  1
  Cu  Cu114  1  0.18362973  0.50113615  0.75066640  1
  Se  Se115  1  0.09202737  0.08635269  0.04569489  1
  Se  Se116  1  0.07470092  0.07377494  0.56732222  1
  Se  Se117  1  0.07293094  0.40738757  0.05905359  1
  Se  Se118  1  0.08392158  0.41872126  0.55408833  1
  Se  Se119  1  0.08358326  0.74662196  0.06065854  1
  Se  Se120  1  0.08078986  0.73704314  0.54813425  1
  Se  Se121  1  0.42250405  0.08691294  0.05561724  1
  Se  Se122  1  0.41418121  0.08681196  0.54693885  1
  Se  Se123  1  0.41646240  0.41903792  0.05934302  1
  Se  Se124  1  0.42480471  0.41681996  0.54827780  1
  Se  Se125  1  0.43276523  0.76425700  0.05404068  1
  Se  Se126  1  0.41339113  0.74897802  0.55221025  1
  Se  Se127  1  0.74545762  0.08344535  0.05716686  1
  Se  Se128  1  0.74808182  0.08300230  0.56259244  1
  Se  Se129  1  0.74530092  0.41090323  0.06357337  1
  Se  Se130  1  0.74782012  0.41366125  0.54902137  1
  Se  Se131  1  0.75505492  0.75561023  0.05465944  1
  Se  Se132  1  0.74011212  0.74990377  0.55281831  1
  Se  Se133  1  0.24851657  0.25120181  0.05466605  1
  Se  Se134  1  0.26216199  0.25746059  0.56430277  1
  Se  Se135  1  0.26001120  0.59276834  0.06407196  1
  Se  Se136  1  0.25697454  0.58526184  0.55933345  1
  Se  Se137  1  0.25664904  0.91418287  0.05582208  1
  Se  Se138  1  0.24982522  0.91731430  0.54676007  1
  Se  Se139  1  0.58037978  0.24859094  0.05550309  1
  Se  Se140  1  0.58671586  0.24695117  0.55366998  1
  Se  Se141  1  0.58919567  0.58039594  0.05091235  1
  Se  Se142  1  0.57793334  0.58249793  0.55031555  1
  Se  Se143  1  0.58174226  0.91734836  0.05493118  1
  Se  Se144  1  0.57656199  0.91142313  0.54787674  1
  Se  Se145  1  0.90652149  0.24600017  0.05056643  1
  Se  Se146  1  0.92145153  0.25750048  0.55423408  1
  Se  Se147  1  0.92038893  0.58546821  0.06172866  1
  Se  Se148  1  0.91512087  0.58136497  0.53979438  1
  Se  Se149  1  0.92600229  0.92962134  0.05711065  1
  Se  Se150  1  0.91752518  0.91238038  0.55346570  1
  Se  Se151  1  0.08343091  0.25202544  0.44840628  1
  Se  Se152  1  0.08671989  0.24676900  0.95111312  1
  Se  Se153  1  0.07934394  0.59479057  0.43249419  1
  Se  Se154  1  0.08107914  0.58969389  0.94352931  1
  Se  Se155  1  0.08863927  0.91548309  0.44942399  1
  Se  Se156  1  0.09024051  0.91341603  0.95831883  1
  Se  Se157  1  0.42327382  0.24089472  0.44082956  1
  Se  Se158  1  0.41883528  0.25397373  0.95107586  1
  Se  Se159  1  0.41552874  0.58175269  0.44525752  1
  Se  Se160  1  0.41729928  0.57719020  0.95706317  1
  Se  Se161  1  0.41819856  0.91450630  0.44006896  1
  Se  Se162  1  0.41870902  0.92131514  0.94690300  1
  Se  Se163  1  0.73958432  0.25135437  0.43072708  1
  Se  Se164  1  0.74709207  0.24604129  0.94757905  1
  Se  Se165  1  0.74619449  0.58264748  0.44241916  1
  Se  Se166  1  0.74459566  0.59034681  0.93750115  1
  Se  Se167  1  0.75455670  0.91875330  0.45483803  1
  Se  Se168  1  0.74408629  0.91607912  0.94769758  1
  Se  Se169  1  0.25618255  0.08130852  0.43348898  1
  Se  Se170  1  0.25507882  0.08510977  0.95115257  1
  Se  Se171  1  0.26160222  0.40016085  0.43940771  1
  Se  Se172  1  0.25650326  0.41228853  0.93925940  1
  Se  Se173  1  0.25151182  0.75410171  0.44167299  1
  Se  Se174  1  0.23900036  0.75098133  0.95408553  1
  Se  Se175  1  0.58574296  0.07559143  0.44652950  1
  Se  Se176  1  0.57840727  0.08601151  0.94699439  1
  Se  Se177  1  0.58220476  0.41535454  0.44191635  1
  Se  Se178  1  0.58785973  0.41696491  0.94883399  1
  Se  Se179  1  0.57897794  0.75092727  0.44709506  1
  Se  Se180  1  0.58712694  0.75105633  0.94909701  1
  Se  Se181  1  0.92812769  0.07540366  0.43736802  1
  Se  Se182  1  0.91272029  0.07296548  0.95544328  1
  Se  Se183  1  0.91030238  0.41780039  0.44404508  1
  Se  Se184  1  0.92102342  0.40685986  0.93612509  1
  Se  Se185  1  0.90012905  0.76177674  0.44706908  1
  Se  Se186  1  0.91205903  0.74880682  0.95215676  1
  Se  Se187  1  0.25119859  0.25176364  0.29346269  1
  Se  Se188  1  0.24414771  0.23949814  0.80771280  1
  Se  Se189  1  0.25761354  0.58695890  0.30177549  1
  Se  Se190  1  0.25999069  0.59209226  0.80004331  1
  Se  Se191  1  0.25522843  0.91940678  0.29899717  1
  Se  Se192  1  0.24417486  0.91029180  0.81480584  1
  Se  Se193  1  0.58238342  0.24887266  0.29922740  1
  Se  Se194  1  0.58652089  0.25430864  0.80400246  1
  Se  Se195  1  0.57332060  0.57851931  0.31190311  1
  Se  Se196  1  0.57626389  0.58239653  0.81452431  1
  Se  Se197  1  0.58476156  0.91443820  0.30576272  1
  Se  Se198  1  0.57810852  0.91713940  0.79828310  1
  Se  Se199  1  0.90875307  0.24791418  0.30802522  1
  Se  Se200  1  0.91453781  0.23353151  0.81795696  1
  Se  Se201  1  0.90939076  0.59164507  0.29886377  1
  Se  Se202  1  0.90851521  0.57205791  0.79951262  1
  Se  Se203  1  0.91941625  0.91246637  0.31383691  1
  Se  Se204  1  0.90195199  0.90667391  0.81421495  1
  Se  Se205  1  0.09176526  0.08822796  0.30440154  1
  Se  Se206  1  0.09565912  0.08732450  0.81353111  1
  Se  Se207  1  0.08711348  0.42590818  0.31668727  1
  Se  Se208  1  0.09500371  0.42555475  0.80615471  1
  Se  Se209  1  0.08330944  0.75803463  0.30363243  1
  Se  Se210  1  0.07975551  0.76004874  0.81580419  1
  Se  Se211  1  0.41767798  0.07876119  0.29828772  1
  Se  Se212  1  0.42229626  0.09314928  0.81070006  1
  Se  Se213  1  0.41414462  0.41111250  0.30250837  1
  Se  Se214  1  0.42932274  0.42780033  0.81353339  1
  Se  Se215  1  0.41610647  0.74749128  0.29893721  1
  Se  Se216  1  0.41548125  0.75455539  0.81303115  1
  Se  Se217  1  0.74687685  0.07649651  0.30084488  1
  Se  Se218  1  0.74154399  0.07942714  0.80587096  1
  Se  Se219  1  0.74549629  0.42142561  0.29301026  1
  Se  Se220  1  0.74832571  0.41407627  0.79705645  1
  Se  Se221  1  0.75000522  0.76209739  0.31462172  1
  Se  Se222  1  0.74941284  0.75129518  0.81175615  1
  Se  Se223  1  0.25564899  0.08072269  0.19255686  1
  Se  Se224  1  0.23916131  0.08701878  0.69751351  1
  Se  Se225  1  0.24413854  0.41796675  0.19946405  1
  Se  Se226  1  0.25236605  0.41563473  0.68909347  1
  Se  Se227  1  0.25696869  0.74852451  0.19676034  1
  Se  Se228  1  0.25149458  0.75599612  0.69787405  1
  Se  Se229  1  0.58454996  0.07989770  0.19615758  1
  Se  Se230  1  0.57970037  0.08349607  0.69233370  1
  Se  Se231  1  0.58212998  0.41418616  0.19931751  1
  Se  Se232  1  0.58738694  0.42014056  0.69488799  1
  Se  Se233  1  0.58086813  0.75088504  0.18882066  1
  Se  Se234  1  0.57213677  0.75897396  0.69133395  1
  Se  Se235  1  0.90492159  0.09140654  0.19174035  1
  Se  Se236  1  0.90873341  0.08544476  0.69430989  1
  Se  Se237  1  0.91009725  0.42567685  0.19340263  1
  Se  Se238  1  0.91743571  0.41917641  0.68086118  1
  Se  Se239  1  0.92162858  0.75346010  0.20094189  1
  Se  Se240  1  0.90398635  0.75581345  0.69016968  1
  Se  Se241  1  0.07811615  0.23651828  0.18339547  1
  Se  Se242  1  0.09176267  0.23879614  0.70195319  1
  Se  Se243  1  0.08117456  0.58906723  0.20509696  1
  Se  Se244  1  0.09723226  0.57729383  0.69115688  1
  Se  Se245  1  0.09555328  0.91325582  0.18583584  1
  Se  Se246  1  0.08045941  0.90889757  0.69308533  1
  Se  Se247  1  0.41440047  0.25168262  0.19475033  1
  Se  Se248  1  0.42420534  0.24704599  0.68873480  1
  Se  Se249  1  0.42029499  0.58631576  0.19466587  1
  Se  Se250  1  0.41827607  0.58732270  0.69575564  1
  Se  Se251  1  0.41847398  0.91613063  0.19694964  1
  Se  Se252  1  0.41964232  0.91802476  0.68172640  1
  Se  Se253  1  0.74258664  0.25433967  0.19671010  1
  Se  Se254  1  0.75027558  0.25151149  0.70289781  1
  Se  Se255  1  0.75800345  0.57962956  0.19050955  1
  Se  Se256  1  0.75632379  0.58242779  0.68207565  1
  Se  Se257  1  0.74999653  0.91478857  0.19920683  1
  Se  Se258  1  0.74069688  0.91920485  0.69633245  1
