# generated using pymatgen
data_In86Cu29Se144
_symmetry_space_group_name_H-M   'P 1'
_cell_length_a   17.57611359
_cell_length_b   17.56937104
_cell_length_c   23.42594394
_cell_angle_alpha   90.01147359
_cell_angle_beta   89.98547254
_cell_angle_gamma   89.99463380
_symmetry_Int_Tables_number   1
_chemical_formula_structural   In86Cu29Se144
_chemical_formula_sum   'In86 Cu29 Se144'
_cell_volume   7233.96062243
_cell_formula_units_Z   1
loop_
 _symmetry_equiv_pos_site_id
 _symmetry_equiv_pos_as_xyz
  1  'x, y, z'
loop_
 _atom_site_type_symbol
 _atom_site_label
 _atom_site_symmetry_multiplicity
 _atom_site_fract_x
 _atom_site_fract_y
 _atom_site_fract_z
 _atom_site_occupancy
  In  In0  1  -0.00111013  0.16644568  0.12401258  1
  In  In1  1  -0.00199852  0.17319342  0.63000652  1
  In  In2  1  -0.00482946  0.49043455  0.13332187  1
  In  In3  1  0.00133605  0.50422974  0.62858543  1
  In  In4  1  -0.00641461  0.84314306  0.13506967  1
  In  In5  1  -0.00402917  0.83005704  0.61989592  1
  In  In6  1  0.32371716  0.16377717  0.12277299  1
  In  In7  1  0.34862837  0.16935952  0.62317307  1
  In  In8  1  0.33329463  0.51983946  0.12757329  1
  In  In9  1  0.32671539  0.48945947  0.61871544  1
  In  In10  1  0.33696317  0.83238867  0.14435079  1
  In  In11  1  0.32804926  0.85352115  0.61890010  1
  In  In12  1  0.66076699  0.15255213  0.10565930  1
  In  In13  1  0.66504303  0.16743108  0.61700629  1
  In  In14  1  0.66211490  0.51766353  0.14286981  1
  In  In15  1  0.67504331  0.51331377  0.59998385  1
  In  In16  1  0.65952801  0.82986571  0.12106165  1
  In  In17  1  0.68433480  0.82026691  0.61685950  1
  In  In18  1  0.15511528  -0.01959353  0.35474071  1
  In  In19  1  0.16695261  0.01001505  0.87636172  1
  In  In20  1  0.15691067  0.34561712  0.37584143  1
  In  In21  1  0.16731211  0.33261211  0.87692023  1
  In  In22  1  0.16501536  0.68092601  0.36205227  1
  In  In23  1  0.14888384  0.67483388  0.88240669  1
  In  In24  1  0.49759013  0.00292075  0.36395601  1
  In  In25  1  0.49655161  0.00114550  0.89383749  1
  In  In26  1  0.50589656  0.32807888  0.37901771  1
  In  In27  1  0.48716807  0.32972222  0.87407562  1
  In  In28  1  0.50053088  0.65636548  0.36003287  1
  In  In29  1  0.51006876  0.67024256  0.88423853  1
  In  In30  1  0.83199356  -0.00963170  0.38330764  1
  In  In31  1  0.84398019  -0.01423096  0.88367543  1
  In  In32  1  0.83980418  0.32182189  0.38278764  1
  In  In33  1  0.83711459  0.31861541  0.87518133  1
  In  In34  1  0.83379938  0.66339614  0.37098879  1
  In  In35  1  0.84012004  0.66246995  0.87954332  1
  In  In36  1  -0.01096711  0.15277049  0.36742872  1
  In  In37  1  0.00486683  0.16813367  0.87344719  1
  In  In38  1  -0.01813066  0.49001388  0.35656907  1
  In  In39  1  0.00715562  0.51186913  0.87151005  1
  In  In40  1  -0.00443075  0.83348097  0.36920430  1
  In  In41  1  -0.00823200  0.82473714  0.87110953  1
  In  In42  1  0.34639865  0.15946502  0.36825320  1
  In  In43  1  0.32258352  0.16927367  0.88571838  1
  In  In44  1  0.33500013  0.51562381  0.36780339  1
  In  In45  1  0.33823120  0.48271142  0.87614370  1
  In  In46  1  0.32475110  0.81703874  0.34925016  1
  In  In47  1  0.33262066  0.84681285  0.88157983  1
  In  In48  1  0.66186219  0.16616209  0.38038452  1
  In  In49  1  0.67636664  0.14876296  0.89741217  1
  In  In50  1  0.66151401  0.51045423  0.38235358  1
  In  In51  1  0.67090757  0.50691984  0.87464538  1
  In  In52  1  0.67658919  0.83362610  0.37407429  1
  In  In53  1  0.66890341  0.83518015  0.89718394  1
  In  In54  1  0.15604784  0.00236787  0.13903448  1
  In  In55  1  0.16285940  -0.01397814  0.61988727  1
  In  In56  1  0.15493693  0.32501113  0.11721222  1
  In  In57  1  0.17028482  0.33620878  0.63452218  1
  In  In58  1  0.17334223  0.66401877  0.13314116  1
  In  In59  1  0.15097507  0.66235036  0.61886726  1
  In  In60  1  0.49671972  -0.00498345  0.12663387  1
  In  In61  1  0.48502522  0.00787540  0.61950038  1
  In  In62  1  0.50713030  0.32685187  0.12690810  1
  In  In63  1  0.50020758  0.33266334  0.62067960  1
  In  In64  1  0.47758746  0.69445310  0.17287950  1
  In  In65  1  0.51758730  0.66698256  0.61612821  1
  In  In66  1  0.84269262  0.00853286  0.11608134  1
  In  In67  1  0.84462204  0.00876251  0.61533695  1
  In  In68  1  0.84243630  0.33220881  0.12762330  1
  In  In69  1  0.83961489  0.34177070  0.61927508  1
  In  In70  1  0.81815241  0.67196990  0.14240040  1
  In  In71  1  0.84550370  0.67640430  0.60441302  1
  In  In72  1  0.67866565  0.66331869  0.74571038  1
  In  In73  1  0.32439434  0.01053885  0.75309670  1
  In  In74  1  0.16558133  0.50927770  0.49394340  1
  In  In75  1  0.66955662  -0.00080429  0.75329699  1
  In  In76  1  0.67113406  0.33295474  0.25006400  1
  In  In77  1  0.16893518  0.83244262  0.00941711  1
  In  In78  1  0.50207148  0.83793409  0.49285606  1
  In  In79  1  0.66440252  0.33213988  0.75278129  1
  In  In80  1  0.32539181  0.66217567  0.74732863  1
  In  In81  1  0.50037365  0.49932643  0.00766499  1
  In  In82  1  0.16807663  0.16329886  0.49906486  1
  In  In83  1  0.83305648  0.49670451  0.00754939  1
  In  In84  1  0.66448125  -0.00417897  0.24488218  1
  In  In85  1  0.32768529  0.33373370  0.25068878  1
  Cu  Cu86  1  0.33951084  0.67169588  0.01714224  1
  Cu  Cu87  1  0.84688012  0.49914575  0.74442163  1
  Cu  Cu88  1  0.66281565  -0.00078208  0.49582867  1
  Cu  Cu89  1  0.33886676  0.67833024  0.48638802  1
  Cu  Cu90  1  0.49851191  0.49495225  0.74090542  1
  Cu  Cu91  1  0.34275329  0.33236724  0.49664723  1
  Cu  Cu92  1  0.50053675  0.83218850  0.75971585  1
  Cu  Cu93  1  0.32861536  -0.00046272  0.49031181  1
  Cu  Cu94  1  0.65993138  0.67659244  0.01444340  1
  Cu  Cu95  1  0.15228034  0.82735917  0.74445426  1
  Cu  Cu96  1  0.15692989  0.17361048  0.24759840  1
  Cu  Cu97  1  0.00154470  0.67174556  0.49030753  1
  Cu  Cu98  1  0.32751296  0.33220639  0.00093999  1
  Cu  Cu99  1  0.15817081  0.49754206  0.24717672  1
  Cu  Cu100  1  -0.00280092  -0.00742864  0.49059148  1
  Cu  Cu101  1  0.16786658  0.17081566  0.75439132  1
  Cu  Cu102  1  0.00267042  0.33111894  0.00056779  1
  Cu  Cu103  1  0.83840132  0.83781317  0.25325984  1
  Cu  Cu104  1  -0.00148777  0.33231123  0.50087027  1
  Cu  Cu105  1  0.16796795  0.49688082  0.75330489  1
  Cu  Cu106  1  0.84174445  0.16468653  0.74978840  1
  Cu  Cu107  1  0.83858470  0.82970688  0.74786568  1
  Cu  Cu108  1  0.33909777  -0.00341595  0.00747804  1
  Cu  Cu109  1  -0.00631423  0.66821060  0.00230962  1
  Cu  Cu110  1  0.49770563  0.17408087  0.75211802  1
  Cu  Cu111  1  0.00843684  0.00346111  0.00110741  1
  Cu  Cu112  1  0.66778646  0.33548180  0.00375552  1
  Cu  Cu113  1  0.83214635  0.16424851  0.24612410  1
  Cu  Cu114  1  0.66780617  0.32920291  0.49771684  1
  Se  Se115  1  0.08920821  0.08227776  0.05965426  1
  Se  Se116  1  0.07281488  0.07427961  0.55522581  1
  Se  Se117  1  0.07655024  0.42142156  0.05531372  1
  Se  Se118  1  0.08687466  0.41048405  0.55644056  1
  Se  Se119  1  0.07470782  0.74427573  0.06533270  1
  Se  Se120  1  0.08334949  0.75186180  0.54821992  1
  Se  Se121  1  0.41729221  0.08529712  0.05916830  1
  Se  Se122  1  0.40955946  0.08442534  0.54417154  1
  Se  Se123  1  0.40542729  0.40924353  0.06531733  1
  Se  Se124  1  0.41988141  0.41916326  0.55177710  1
  Se  Se125  1  0.42094227  0.74741071  0.07633485  1
  Se  Se126  1  0.41036448  0.75111093  0.55950382  1
  Se  Se127  1  0.76359978  0.08907839  0.04515560  1
  Se  Se128  1  0.74678892  0.08101348  0.55201198  1
  Se  Se129  1  0.73608804  0.41656965  0.06941272  1
  Se  Se130  1  0.75630319  0.41446245  0.54560325  1
  Se  Se131  1  0.75804584  0.75124039  0.05981524  1
  Se  Se132  1  0.73255769  0.72432517  0.54380224  1
  Se  Se133  1  0.24414371  0.24623740  0.05158946  1
  Se  Se134  1  0.25642913  0.25921684  0.55756669  1
  Se  Se135  1  0.24509112  0.58657432  0.05377150  1
  Se  Se136  1  0.26104039  0.59810554  0.55310280  1
  Se  Se137  1  0.25681497  0.92113443  0.06985175  1
  Se  Se138  1  0.24355327  0.91705296  0.54227993  1
  Se  Se139  1  0.57740915  0.25137370  0.04894374  1
  Se  Se140  1  0.57930728  0.24814951  0.55080708  1
  Se  Se141  1  0.57800470  0.59393890  0.07002090  1
  Se  Se142  1  0.57053290  0.57707569  0.54055006  1
  Se  Se143  1  0.59150597  0.92874445  0.05787240  1
  Se  Se144  1  0.58838036  0.92190168  0.56458271  1
  Se  Se145  1  0.91628648  0.25070331  0.05368312  1
  Se  Se146  1  0.91754131  0.24766216  0.55510134  1
  Se  Se147  1  0.91641529  0.59084594  0.06652565  1
  Se  Se148  1  0.93155571  0.58046892  0.54962037  1
  Se  Se149  1  0.92673301  0.91674271  0.05348828  1
  Se  Se150  1  0.91396936  0.91223371  0.54928069  1
  Se  Se151  1  0.07553489  0.25122856  0.43934873  1
  Se  Se152  1  0.08621094  0.24788169  0.94606255  1
  Se  Se153  1  0.07725695  0.58902482  0.42812403  1
  Se  Se154  1  0.07935561  0.58388975  0.95252957  1
  Se  Se155  1  0.08496466  0.91404777  0.43871457  1
  Se  Se156  1  0.08246454  0.91437004  0.94067936  1
  Se  Se157  1  0.41746670  0.24348721  0.44261526  1
  Se  Se158  1  0.41448274  0.25049513  0.94926802  1
  Se  Se159  1  0.41927934  0.58823919  0.44002606  1
  Se  Se160  1  0.40965978  0.58997528  0.94537797  1
  Se  Se161  1  0.40732648  0.91624764  0.43057470  1
  Se  Se162  1  0.41908253  0.90655223  0.95772056  1
  Se  Se163  1  0.75060085  0.24145703  0.44853563  1
  Se  Se164  1  0.75319253  0.25367597  0.95115638  1
  Se  Se165  1  0.76240972  0.57858774  0.44457987  1
  Se  Se166  1  0.73793262  0.59489924  0.95167353  1
  Se  Se167  1  0.74812622  0.91001999  0.45259854  1
  Se  Se168  1  0.74905756  0.92742397  0.95532431  1
  Se  Se169  1  0.24668178  0.07797600  0.42973194  1
  Se  Se170  1  0.25156724  0.07438848  0.95245337  1
  Se  Se171  1  0.26078950  0.41422358  0.43996498  1
  Se  Se172  1  0.24772495  0.41848201  0.94802122  1
  Se  Se173  1  0.25153786  0.75697410  0.43471515  1
  Se  Se174  1  0.25986724  0.74204826  0.94584271  1
  Se  Se175  1  0.57608863  0.07588842  0.44161479  1
  Se  Se176  1  0.57342255  0.08886732  0.95920192  1
  Se  Se177  1  0.58453000  0.41421183  0.44616423  1
  Se  Se178  1  0.58936083  0.41412224  0.94006462  1
  Se  Se179  1  0.58372561  0.74330961  0.43383952  1
  Se  Se180  1  0.57422697  0.75601219  0.95898678  1
  Se  Se181  1  0.91270926  0.08378272  0.44687315  1
  Se  Se182  1  0.92510344  0.08184187  0.94285383  1
  Se  Se183  1  0.92260976  0.41757914  0.44325258  1
  Se  Se184  1  0.92074443  0.41355929  0.94010082  1
  Se  Se185  1  0.91383824  0.75361292  0.44037406  1
  Se  Se186  1  0.91301073  0.75243991  0.94869112  1
  Se  Se187  1  0.23759785  0.24517374  0.31375279  1
  Se  Se188  1  0.25420413  0.24974548  0.80811827  1
  Se  Se189  1  0.24116620  0.58201951  0.30033395  1
  Se  Se190  1  0.24301384  0.57953439  0.81815320  1
  Se  Se191  1  0.27688614  0.93954317  0.30025843  1
  Se  Se192  1  0.23603886  0.90621108  0.80512030  1
  Se  Se193  1  0.57656862  0.23889468  0.30444654  1
  Se  Se194  1  0.58510198  0.23800246  0.81777085  1
  Se  Se195  1  0.59561046  0.57957904  0.29877357  1
  Se  Se196  1  0.57335953  0.57806539  0.80411151  1
  Se  Se197  1  0.57794327  0.90176387  0.30437274  1
  Se  Se198  1  0.57900158  0.91340207  0.81868244  1
  Se  Se199  1  0.91322937  0.24725253  0.30280676  1
  Se  Se200  1  0.92284247  0.25140599  0.80159698  1
  Se  Se201  1  0.93736404  0.60801076  0.30209476  1
  Se  Se202  1  0.91680663  0.58819196  0.80321898  1
  Se  Se203  1  0.91512643  0.92782751  0.30514300  1
  Se  Se204  1  0.91788550  0.91623666  0.80259773  1
  Se  Se205  1  0.07817922  0.08158510  0.29773719  1
  Se  Se206  1  0.08557708  0.08211859  0.80281026  1
  Se  Se207  1  0.07769194  0.40882479  0.29693129  1
  Se  Se208  1  0.08343036  0.41687117  0.80837320  1
  Se  Se209  1  0.09407015  0.77651492  0.29558505  1
  Se  Se210  1  0.07599825  0.74269666  0.80150351  1
  Se  Se211  1  0.41525467  0.07962430  0.29234232  1
  Se  Se212  1  0.42290183  0.08851526  0.81385738  1
  Se  Se213  1  0.42139805  0.41748811  0.31104772  1
  Se  Se214  1  0.41858676  0.41374160  0.79838978  1
  Se  Se215  1  0.42429812  0.74268080  0.28908860  1
  Se  Se216  1  0.41541963  0.75141761  0.81355179  1
  Se  Se217  1  0.75218377  0.08618767  0.30927008  1
  Se  Se218  1  0.75987563  0.08864045  0.81260008  1
  Se  Se219  1  0.75119861  0.41285303  0.32102279  1
  Se  Se220  1  0.76245131  0.42655148  0.80791904  1
  Se  Se221  1  0.75319804  0.75203329  0.30234364  1
  Se  Se222  1  0.75367679  0.75885099  0.81380689  1
  Se  Se223  1  0.24498532  0.09041685  0.19936025  1
  Se  Se224  1  0.23943142  0.09457050  0.68275779  1
  Se  Se225  1  0.24077533  0.42013451  0.18519272  1
  Se  Se226  1  0.25659272  0.41958969  0.70010508  1
  Se  Se227  1  0.24939579  0.74579543  0.20423974  1
  Se  Se228  1  0.24350872  0.75946439  0.68449385  1
  Se  Se229  1  0.58038428  0.09542734  0.19027165  1
  Se  Se230  1  0.57374112  0.08884572  0.69251851  1
  Se  Se231  1  0.57003585  0.42290225  0.19861986  1
  Se  Se232  1  0.59168926  0.42595745  0.68336106  1
  Se  Se233  1  0.61348504  0.73630080  0.19918193  1
  Se  Se234  1  0.58169148  0.76059074  0.69394361  1
  Se  Se235  1  0.91829547  0.08154431  0.19452106  1
  Se  Se236  1  0.92017453  0.07889941  0.69465124  1
  Se  Se237  1  0.90010266  0.42251884  0.20162909  1
  Se  Se238  1  0.92592095  0.40998671  0.69389380  1
  Se  Se239  1  0.91790018  0.75025803  0.20055039  1
  Se  Se240  1  0.91340176  0.74418213  0.68918219  1
  Se  Se241  1  0.07448553  0.25634323  0.19458384  1
  Se  Se242  1  0.08477142  0.25200087  0.69803038  1
  Se  Se243  1  0.07804494  0.58379643  0.19471959  1
  Se  Se244  1  0.08825871  0.58237361  0.69814740  1
  Se  Se245  1  0.09654637  0.89810072  0.20396135  1
  Se  Se246  1  0.07541137  0.91598318  0.69134447  1
  Se  Se247  1  0.41791226  0.24342835  0.19258213  1
  Se  Se248  1  0.41804295  0.25631463  0.69603355  1
  Se  Se249  1  0.41602092  0.56998494  0.20828139  1
  Se  Se250  1  0.42293381  0.58319840  0.68366710  1
  Se  Se251  1  0.41621342  0.92886921  0.20466795  1
  Se  Se252  1  0.42146021  0.91477276  0.69866650  1
  Se  Se253  1  0.74802225  0.23587015  0.18443878  1
  Se  Se254  1  0.75481716  0.24294885  0.69099972  1
  Se  Se255  1  0.77109062  0.56189337  0.20744822  1
  Se  Se256  1  0.76346600  0.57516038  0.68172636  1
  Se  Se257  1  0.76240565  0.91490415  0.18643143  1
  Se  Se258  1  0.75781126  0.91105228  0.68845244  1
