# generated using pymatgen
data_In86Cu29Se144
_symmetry_space_group_name_H-M   'P 1'
_cell_length_a   17.57980677
_cell_length_b   17.57609163
_cell_length_c   23.42972000
_cell_angle_alpha   90.00483076
_cell_angle_beta   90.01354709
_cell_angle_gamma   90.00107063
_symmetry_Int_Tables_number   1
_chemical_formula_structural   In86Cu29Se144
_chemical_formula_sum   'In86 Cu29 Se144'
_cell_volume   7239.41528147
_cell_formula_units_Z   1
loop_
 _symmetry_equiv_pos_site_id
 _symmetry_equiv_pos_as_xyz
  1  'x, y, z'
loop_
 _atom_site_type_symbol
 _atom_site_label
 _atom_site_symmetry_multiplicity
 _atom_site_fract_x
 _atom_site_fract_y
 _atom_site_fract_z
 _atom_site_occupancy
  In  In0  1  0.00366115  0.16646819  0.11301253  1
  In  In1  1  0.00589034  0.15526953  0.62106197  1
  In  In2  1  0.00164049  0.46944692  0.12562100  1
  In  In3  1  0.00321539  0.51657340  0.63272594  1
  In  In4  1  0.00036015  0.84712290  0.11618890  1
  In  In5  1  -0.01414763  0.83884360  0.62559125  1
  In  In6  1  0.33343867  0.16435813  0.12556177  1
  In  In7  1  0.32859090  0.17674722  0.62416910  1
  In  In8  1  0.33003777  0.49810254  0.12181375  1
  In  In9  1  0.32598936  0.48440944  0.62715454  1
  In  In10  1  0.33436362  0.83332417  0.12535945  1
  In  In11  1  0.33648447  0.82144438  0.62008553  1
  In  In12  1  0.65641134  0.15654656  0.12106573  1
  In  In13  1  0.66561800  0.16892392  0.63885979  1
  In  In14  1  0.66760573  0.50795593  0.12250704  1
  In  In15  1  0.66662213  0.48692673  0.63006505  1
  In  In16  1  0.68002797  0.84820763  0.11667426  1
  In  In17  1  0.67261737  0.83996524  0.62406225  1
  In  In18  1  0.17634310  0.01368144  0.35952447  1
  In  In19  1  0.15333560  0.00501729  0.89603276  1
  In  In20  1  0.16210793  0.33038171  0.36713071  1
  In  In21  1  0.16748208  0.32283080  0.88444003  1
  In  In22  1  0.17112620  0.65451016  0.36748597  1
  In  In23  1  0.15738751  0.67015841  0.88186321  1
  In  In24  1  0.49530789  -0.00825264  0.36492398  1
  In  In25  1  0.50429605  -0.00619272  0.88346830  1
  In  In26  1  0.49110161  0.33893855  0.37027702  1
  In  In27  1  0.50169616  0.33178656  0.87869405  1
  In  In28  1  0.50849298  0.67959928  0.37092084  1
  In  In29  1  0.49029246  0.67257813  0.88481421  1
  In  In30  1  0.82235252  -0.01690837  0.35076979  1
  In  In31  1  0.82476854  0.00950143  0.88759727  1
  In  In32  1  0.84637496  0.33295078  0.37380445  1
  In  In33  1  0.82203574  0.33604522  0.87702183  1
  In  In34  1  0.83559180  0.67332389  0.38282050  1
  In  In35  1  0.84893775  0.66061743  0.87430805  1
  In  In36  1  0.00639000  0.17262386  0.36217351  1
  In  In37  1  -0.00972114  0.16929019  0.91347029  1
  In  In38  1  0.00252493  0.49217437  0.37257425  1
  In  In39  1  -0.00504724  0.50977001  0.87649130  1
  In  In40  1  -0.01331667  0.83693563  0.36913266  1
  In  In41  1  0.00386063  0.82822128  0.88831774  1
  In  In42  1  0.32688042  0.16436693  0.36563471  1
  In  In43  1  0.32459015  0.18123811  0.88524202  1
  In  In44  1  0.32617273  0.49391759  0.36216847  1
  In  In45  1  0.34106545  0.49166127  0.88077250  1
  In  In46  1  0.34283869  0.84211601  0.36204651  1
  In  In47  1  0.32488887  0.83827038  0.88663686  1
  In  In48  1  0.68287666  0.15987608  0.36990457  1
  In  In49  1  0.66370847  0.16557204  0.87909837  1
  In  In50  1  0.66989702  0.51343850  0.37945384  1
  In  In51  1  0.67280932  0.48180254  0.87384811  1
  In  In52  1  0.66684949  0.83676986  0.37685030  1
  In  In53  1  0.65434954  0.84186170  0.88040396  1
  In  In54  1  0.16538473  0.00489472  0.12102897  1
  In  In55  1  0.15356435  0.00773406  0.61971997  1
  In  In56  1  0.16623658  0.33274331  0.11585283  1
  In  In57  1  0.18141255  0.33259684  0.62941392  1
  In  In58  1  0.17459533  0.67395550  0.11901510  1
  In  In59  1  0.16629222  0.65056910  0.63075512  1
  In  In60  1  0.50048092  -0.00310582  0.12616133  1
  In  In61  1  0.51473112  0.00426140  0.62351988  1
  In  In62  1  0.48727621  0.32113012  0.11726872  1
  In  In63  1  0.49621877  0.33380008  0.63409179  1
  In  In64  1  0.49333466  0.65811247  0.11600932  1
  In  In65  1  0.49175332  0.67562023  0.62325447  1
  In  In66  1  0.83195177  0.00016153  0.12283660  1
  In  In67  1  0.83341095  -0.00939410  0.62509856  1
  In  In68  1  0.86185189  0.32817018  0.12425875  1
  In  In69  1  0.82062995  0.32992081  0.62632629  1
  In  In70  1  0.82525923  0.67230659  0.12481000  1
  In  In71  1  0.83808560  0.67469015  0.62380438  1
  In  In72  1  0.66642951  0.67059035  0.24824028  1
  In  In73  1  0.49579745  0.16241707  0.49232267  1
  In  In74  1  0.33149972  0.66148417  0.75030421  1
  In  In75  1  -0.00410750  0.33531646  0.75903346  1
  In  In76  1  0.84140075  0.16231654  0.49619919  1
  In  In77  1  0.83275104  0.49850136  -0.00086643  1
  In  In78  1  0.33299009  0.00111081  0.75924165  1
  In  In79  1  0.50091409  0.50548658  0.50820434  1
  In  In80  1  0.66754494  0.33073690  0.25245875  1
  In  In81  1  0.00179170  0.67118300  0.24454418  1
  In  In82  1  0.66931789  0.66195839  0.75469144  1
  In  In83  1  -0.00356875  0.00348725  0.76201570  1
  In  In84  1  0.16555238  0.49796695  0.49956200  1
  In  In85  1  0.16775290  0.83527255  0.49632618  1
  Cu  Cu86  1  0.15479608  0.82880505  0.76044594  1
  Cu  Cu87  1  0.67296279  -0.00582527  0.49878044  1
  Cu  Cu88  1  0.66279001  0.67154843  0.00151190  1
  Cu  Cu89  1  0.66370904  0.33459056  0.50647143  1
  Cu  Cu90  1  0.82925696  0.16780950  0.76032003  1
  Cu  Cu91  1  0.16485498  0.16781220  0.75920576  1
  Cu  Cu92  1  0.33501107  -0.00184417  0.48736651  1
  Cu  Cu93  1  0.32751834  0.66426827  0.00221452  1
  Cu  Cu94  1  0.67728955  0.67627321  0.50133094  1
  Cu  Cu95  1  0.49624714  0.16143405  0.24381772  1
  Cu  Cu96  1  0.83108521  0.83454511  0.75034080  1
  Cu  Cu97  1  0.16863899  0.49633073  0.24297263  1
  Cu  Cu98  1  0.50040299  0.84277874  0.75387740  1
  Cu  Cu99  1  0.16896708  0.83643180  0.23958520  1
  Cu  Cu100  1  0.16313354  0.17105312  0.23814017  1
  Cu  Cu101  1  0.66789265  0.32762435  -0.00003762  1
  Cu  Cu102  1  0.33830545  0.00019390  0.00740784  1
  Cu  Cu103  1  0.50124613  0.17122694  0.75579432  1
  Cu  Cu104  1  0.00205281  0.00529607  0.49052747  1
  Cu  Cu105  1  0.49025002  0.49495264  0.24077257  1
  Cu  Cu106  1  -0.00551027  0.67461850  0.50486133  1
  Cu  Cu107  1  0.50252644  0.49222224  0.75567368  1
  Cu  Cu108  1  0.50086156  0.83043518  0.24448921  1
  Cu  Cu109  1  0.33901707  0.33493526  0.00264058  1
  Cu  Cu110  1  -0.00191393  0.66421363  0.00373949  1
  Cu  Cu111  1  0.34354581  0.66955485  0.49279903  1
  Cu  Cu112  1  0.66296894  0.00135385  0.00258204  1
  Cu  Cu113  1  0.83979410  0.16639750  0.24191149  1
  Cu  Cu114  1  0.00333701  0.33787152  0.49513961  1
  Se  Se115  1  0.09951906  0.09406606  0.04763245  1
  Se  Se116  1  0.08585932  0.08852826  0.54257121  1
  Se  Se117  1  0.08687166  0.41926226  0.04644323  1
  Se  Se118  1  0.07704029  0.41262556  0.56408277  1
  Se  Se119  1  0.08030236  0.75052466  0.05552811  1
  Se  Se120  1  0.08376920  0.74654420  0.56397912  1
  Se  Se121  1  0.42245964  0.08535770  0.05757484  1
  Se  Se122  1  0.40852595  0.07430130  0.55815374  1
  Se  Se123  1  0.42204484  0.42251403  0.05302188  1
  Se  Se124  1  0.40983359  0.40397495  0.55494266  1
  Se  Se125  1  0.41305240  0.74950243  0.05267241  1
  Se  Se126  1  0.42362729  0.75593660  0.54552186  1
  Se  Se127  1  0.74918286  0.08516387  0.05321217  1
  Se  Se128  1  0.74296928  0.08298118  0.55994268  1
  Se  Se129  1  0.74786648  0.40579843  0.06309141  1
  Se  Se130  1  0.75074290  0.41873067  0.55387891  1
  Se  Se131  1  0.75238924  0.75204517  0.04988587  1
  Se  Se132  1  0.75824889  0.76080738  0.55579654  1
  Se  Se133  1  0.25671209  0.24818172  0.05332575  1
  Se  Se134  1  0.23885029  0.24353774  0.55439114  1
  Se  Se135  1  0.24424476  0.57799475  0.05210244  1
  Se  Se136  1  0.26454303  0.59029880  0.55534628  1
  Se  Se137  1  0.25145035  0.91604918  0.05665215  1
  Se  Se138  1  0.25758087  0.92644369  0.55873800  1
  Se  Se139  1  0.58131768  0.24631726  0.05252011  1
  Se  Se140  1  0.58396233  0.24955180  0.56084452  1
  Se  Se141  1  0.58422517  0.57961980  0.04942381  1
  Se  Se142  1  0.59690163  0.59665913  0.56411195  1
  Se  Se143  1  0.57890705  0.91461223  0.05299291  1
  Se  Se144  1  0.58520275  0.91587296  0.55280225  1
  Se  Se145  1  0.91254852  0.24340888  0.04470485  1
  Se  Se146  1  0.92542029  0.25688071  0.55892972  1
  Se  Se147  1  0.92073435  0.58324557  0.06590390  1
  Se  Se148  1  0.91840727  0.58451196  0.55750857  1
  Se  Se149  1  0.91567750  0.92682609  0.04692813  1
  Se  Se150  1  0.92160136  0.92604911  0.55027873  1
  Se  Se151  1  0.07964108  0.25238791  0.43932077  1
  Se  Se152  1  0.09130750  0.24969467  0.96234784  1
  Se  Se153  1  0.07445656  0.59485161  0.44328711  1
  Se  Se154  1  0.08003387  0.58072973  0.95026279  1
  Se  Se155  1  0.08417198  0.92396970  0.43208598  1
  Se  Se156  1  0.09522940  0.89892722  0.95610817  1
  Se  Se157  1  0.40561093  0.25698916  0.43966606  1
  Se  Se158  1  0.42293229  0.24910516  0.95064482  1
  Se  Se159  1  0.41592172  0.58233678  0.43359040  1
  Se  Se160  1  0.41466460  0.58211525  0.95032260  1
  Se  Se161  1  0.42044017  0.91261028  0.44113584  1
  Se  Se162  1  0.41727317  0.91431099  0.95085985  1
  Se  Se163  1  0.74461526  0.25785442  0.44363667  1
  Se  Se164  1  0.75277610  0.24535464  0.94740202  1
  Se  Se165  1  0.75508313  0.58606542  0.45046498  1
  Se  Se166  1  0.74107991  0.59003442  0.93864528  1
  Se  Se167  1  0.75844519  0.92045835  0.43974245  1
  Se  Se168  1  0.74450885  0.91524596  0.94927494  1
  Se  Se169  1  0.24991041  0.08400430  0.44040031  1
  Se  Se170  1  0.25699899  0.08147041  0.94986246  1
  Se  Se171  1  0.25503380  0.41012540  0.43956118  1
  Se  Se172  1  0.25262603  0.41306134  0.94766629  1
  Se  Se173  1  0.25627783  0.74437578  0.43491330  1
  Se  Se174  1  0.24385023  0.74948252  0.95022040  1
  Se  Se175  1  0.59449537  0.07477834  0.43739200  1
  Se  Se176  1  0.57964134  0.08594377  0.94963159  1
  Se  Se177  1  0.58635641  0.41246328  0.44264516  1
  Se  Se178  1  0.58697478  0.41521001  0.94807899  1
  Se  Se179  1  0.58772818  0.75097225  0.44676836  1
  Se  Se180  1  0.57709406  0.75488611  0.94946851  1
  Se  Se181  1  0.91872279  0.07669413  0.42652003  1
  Se  Se182  1  0.93562858  0.04583406  0.95638675  1
  Se  Se183  1  0.91661925  0.42109546  0.44644737  1
  Se  Se184  1  0.92354577  0.40735999  0.94242876  1
  Se  Se185  1  0.91781139  0.76024128  0.44900566  1
  Se  Se186  1  0.91185003  0.74535518  0.95129772  1
  Se  Se187  1  0.24616523  0.25028320  0.29775597  1
  Se  Se188  1  0.25032481  0.25378263  0.80634284  1
  Se  Se189  1  0.25205838  0.58339151  0.29306257  1
  Se  Se190  1  0.24736813  0.57987175  0.81696689  1
  Se  Se191  1  0.25224584  0.91821635  0.29652529  1
  Se  Se192  1  0.23317718  0.91574702  0.81480496  1
  Se  Se193  1  0.57468279  0.23700261  0.31107699  1
  Se  Se194  1  0.58741090  0.25274289  0.80820726  1
  Se  Se195  1  0.57304191  0.57211822  0.30288620  1
  Se  Se196  1  0.57302507  0.57968614  0.81575761  1
  Se  Se197  1  0.58567298  0.91036043  0.30131268  1
  Se  Se198  1  0.58462361  0.92533403  0.80439946  1
  Se  Se199  1  0.91632801  0.25409703  0.29708672  1
  Se  Se200  1  0.91785934  0.23513193  0.82155969  1
  Se  Se201  1  0.91487865  0.58558324  0.31086673  1
  Se  Se202  1  0.90814837  0.57153435  0.80067528  1
  Se  Se203  1  0.93209034  0.92511459  0.29266266  1
  Se  Se204  1  0.90823667  0.90941081  0.81753362  1
  Se  Se205  1  0.08210450  0.08493513  0.29299906  1
  Se  Se206  1  0.08145760  0.09711694  0.82199640  1
  Se  Se207  1  0.08268940  0.41801324  0.29904242  1
  Se  Se208  1  0.09015926  0.41993425  0.81683657  1
  Se  Se209  1  0.09431602  0.75890078  0.30770142  1
  Se  Se210  1  0.07126438  0.74526402  0.80980028  1
  Se  Se211  1  0.41350669  0.08005552  0.30095296  1
  Se  Se212  1  0.42079987  0.09288296  0.81752079  1
  Se  Se213  1  0.41038170  0.40969900  0.29531805  1
  Se  Se214  1  0.41615621  0.41026622  0.80665766  1
  Se  Se215  1  0.41910607  0.74572639  0.29882907  1
  Se  Se216  1  0.41520302  0.76217851  0.80880841  1
  Se  Se217  1  0.74920279  0.08438653  0.29049085  1
  Se  Se218  1  0.74682859  0.08006785  0.80958495  1
  Se  Se219  1  0.75323315  0.42436025  0.31249522  1
  Se  Se220  1  0.76112434  0.42110964  0.80027670  1
  Se  Se221  1  0.75988067  0.75731785  0.30667777  1
  Se  Se222  1  0.75338215  0.75676238  0.81487613  1
  Se  Se223  1  0.25000231  0.08192315  0.19436991  1
  Se  Se224  1  0.23873990  0.08517122  0.69582554  1
  Se  Se225  1  0.24979042  0.41102314  0.18949836  1
  Se  Se226  1  0.23949165  0.42601471  0.70189809  1
  Se  Se227  1  0.25317922  0.74701596  0.19535550  1
  Se  Se228  1  0.23953712  0.75997840  0.69483437  1
  Se  Se229  1  0.58456546  0.07778041  0.19774682  1
  Se  Se230  1  0.58037794  0.08309228  0.70248766  1
  Se  Se231  1  0.57920375  0.41692873  0.18690383  1
  Se  Se232  1  0.58573966  0.40958305  0.70172007  1
  Se  Se233  1  0.58056645  0.75356896  0.18134796  1
  Se  Se234  1  0.57692444  0.75558953  0.69566777  1
  Se  Se235  1  0.92173789  0.08568432  0.18596486  1
  Se  Se236  1  0.90778409  0.09136127  0.69467163  1
  Se  Se237  1  0.90673780  0.42264783  0.20114871  1
  Se  Se238  1  0.91339964  0.41695295  0.68831617  1
  Se  Se239  1  0.91058178  0.76256137  0.18853883  1
  Se  Se240  1  0.91708457  0.75297996  0.69877747  1
  Se  Se241  1  0.07920382  0.25404914  0.18578664  1
  Se  Se242  1  0.08259196  0.24182639  0.69488067  1
  Se  Se243  1  0.08662779  0.57718718  0.18416056  1
  Se  Se244  1  0.08783277  0.58391934  0.70661685  1
  Se  Se245  1  0.08301888  0.91975128  0.19093204  1
  Se  Se246  1  0.08515632  0.91478990  0.69539526  1
  Se  Se247  1  0.41379156  0.25028455  0.19696609  1
  Se  Se248  1  0.41373355  0.24536751  0.69816017  1
  Se  Se249  1  0.41198754  0.58523400  0.19100396  1
  Se  Se250  1  0.42675391  0.57156790  0.69061679  1
  Se  Se251  1  0.41543650  0.91661426  0.19581088  1
  Se  Se252  1  0.41704914  0.91400067  0.68939454  1
  Se  Se253  1  0.75335398  0.24710751  0.18506338  1
  Se  Se254  1  0.75027711  0.25245287  0.70434655  1
  Se  Se255  1  0.76029251  0.57373025  0.19679969  1
  Se  Se256  1  0.75642190  0.57844022  0.69018676  1
  Se  Se257  1  0.75025809  0.92018743  0.19481319  1
  Se  Se258  1  0.74870189  0.92011133  0.69883054  1
