# generated using pymatgen
data_In86Cu29Se144
_symmetry_space_group_name_H-M   'P 1'
_cell_length_a   17.57785446
_cell_length_b   17.57648612
_cell_length_c   23.43638818
_cell_angle_alpha   90.00878576
_cell_angle_beta   90.01514299
_cell_angle_gamma   90.00488293
_symmetry_Int_Tables_number   1
_chemical_formula_structural   In86Cu29Se144
_chemical_formula_sum   'In86 Cu29 Se144'
_cell_volume   7240.83382349
_cell_formula_units_Z   1
loop_
 _symmetry_equiv_pos_site_id
 _symmetry_equiv_pos_as_xyz
  1  'x, y, z'
loop_
 _atom_site_type_symbol
 _atom_site_label
 _atom_site_symmetry_multiplicity
 _atom_site_fract_x
 _atom_site_fract_y
 _atom_site_fract_z
 _atom_site_occupancy
  In  In0  1  0.00090960  0.15445193  0.12463883  1
  In  In1  1  0.01215777  0.16955819  0.62633262  1
  In  In2  1  0.00970995  0.50771908  0.11016552  1
  In  In3  1  -0.00648209  0.50957076  0.63379575  1
  In  In4  1  0.02157904  0.81624027  0.14728652  1
  In  In5  1  -0.01262696  0.83227418  0.62293148  1
  In  In6  1  0.34031181  0.16863009  0.11943129  1
  In  In7  1  0.32883868  0.16058171  0.62366369  1
  In  In8  1  0.33121170  0.51651644  0.12498161  1
  In  In9  1  0.33726997  0.48421628  0.62488240  1
  In  In10  1  0.32776125  0.82555630  0.11978846  1
  In  In11  1  0.35141199  0.83427362  0.62478256  1
  In  In12  1  0.67097731  0.16959817  0.12284602  1
  In  In13  1  0.65676839  0.17523269  0.63135536  1
  In  In14  1  0.67689071  0.49551777  0.12593482  1
  In  In15  1  0.66754299  0.50807689  0.62672198  1
  In  In16  1  0.65437716  0.83615346  0.12543516  1
  In  In17  1  0.66441505  0.83719485  0.62857837  1
  In  In18  1  0.17054935  0.00250075  0.37235554  1
  In  In19  1  0.17443288  -0.00702409  0.88197636  1
  In  In20  1  0.16071729  0.31648764  0.37818899  1
  In  In21  1  0.14562287  0.34461226  0.89666675  1
  In  In22  1  0.16423498  0.67296627  0.35866258  1
  In  In23  1  0.15475200  0.67489818  0.88378874  1
  In  In24  1  0.49389256  0.00073988  0.38307570  1
  In  In25  1  0.49851941  0.00437280  0.87570729  1
  In  In26  1  0.50838705  0.32186350  0.38086644  1
  In  In27  1  0.49785557  0.32045373  0.87274229  1
  In  In28  1  0.50435301  0.66605483  0.37476665  1
  In  In29  1  0.51598538  0.66664577  0.87357044  1
  In  In30  1  0.82871017  -0.02067023  0.37423876  1
  In  In31  1  0.82635085  -0.00209706  0.86715831  1
  In  In32  1  0.83356187  0.34617554  0.37674008  1
  In  In33  1  0.84391758  0.34336077  0.86834246  1
  In  In34  1  0.83311677  0.67573127  0.36350938  1
  In  In35  1  0.81887603  0.66234622  0.87043229  1
  In  In36  1  0.01756299  0.16643019  0.38182755  1
  In  In37  1  -0.00453531  0.18034238  0.87928810  1
  In  In38  1  -0.00914044  0.50587968  0.37329203  1
  In  In39  1  -0.00858079  0.50025864  0.88394618  1
  In  In40  1  -0.01833984  0.82000873  0.35501820  1
  In  In41  1  0.00778493  0.83626906  0.87526072  1
  In  In42  1  0.33359738  0.15974991  0.38077584  1
  In  In43  1  0.34257043  0.16259079  0.88116862  1
  In  In44  1  0.33412847  0.51328197  0.37084755  1
  In  In45  1  0.32869425  0.48810504  0.87758296  1
  In  In46  1  0.34225956  0.83645836  0.37263561  1
  In  In47  1  0.32436040  0.84252719  0.87969223  1
  In  In48  1  0.64936013  0.16653814  0.37271159  1
  In  In49  1  0.65658912  0.15758785  0.86570617  1
  In  In50  1  0.66114187  0.49193477  0.36797967  1
  In  In51  1  0.67666510  0.50803877  0.86848688  1
  In  In52  1  0.67373524  0.82293410  0.38189889  1
  In  In53  1  0.66134218  0.82821236  0.87195821  1
  In  In54  1  0.16064135  -0.01167400  0.11647160  1
  In  In55  1  0.16763403  0.01794975  0.62908490  1
  In  In56  1  0.15554080  0.32865491  0.10737744  1
  In  In57  1  0.16701997  0.32398628  0.62884361  1
  In  In58  1  0.16812187  0.66833480  0.12395952  1
  In  In59  1  0.15658116  0.65860190  0.62999634  1
  In  In60  1  0.51036711  -0.00256335  0.11424116  1
  In  In61  1  0.49946220  -0.00090947  0.62766022  1
  In  In62  1  0.51622440  0.32967354  0.12485956  1
  In  In63  1  0.50875280  0.34091631  0.61530662  1
  In  In64  1  0.48930901  0.67615187  0.13159080  1
  In  In65  1  0.51487490  0.67786257  0.61321889  1
  In  In66  1  0.83872626  0.00467942  0.12713706  1
  In  In67  1  0.82852827  -0.02260216  0.62531777  1
  In  In68  1  0.82243192  0.33382391  0.12235389  1
  In  In69  1  0.83612355  0.33276872  0.63399262  1
  In  In70  1  0.84455408  0.66538399  0.13469777  1
  In  In71  1  0.81796874  0.68761226  0.64242676  1
  In  In72  1  0.66916939  -0.00338589  0.24895776  1
  In  In73  1  0.83318294  0.16299854  0.50960949  1
  In  In74  1  0.16938554  0.83920753  0.49011187  1
  In  In75  1  -0.00509800  0.00206054  0.74867602  1
  In  In76  1  0.33957118  0.34128449  0.23863575  1
  In  In77  1  0.17126869  0.49706616  0.50043556  1
  In  In78  1  0.82980267  0.16668574  -0.00026084  1
  In  In79  1  0.83688534  0.50523817  0.49653895  1
  In  In80  1  0.33031643  0.32477040  0.75403730  1
  In  In81  1  0.33162901  -0.00623468  0.25290519  1
  In  In82  1  0.33614506  0.66736733  0.74618843  1
  In  In83  1  -0.00384515  0.33722466  0.25283141  1
  In  In84  1  0.49821684  0.50039137  0.00157593  1
  In  In85  1  0.83282961  0.83575429  0.00040706  1
  Cu  Cu86  1  0.51004645  0.50153015  0.74368936  1
  Cu  Cu87  1  0.33244197  0.00301361  0.50213442  1
  Cu  Cu88  1  0.49976944  0.82966361  0.25118951  1
  Cu  Cu89  1  0.82893453  0.16799041  0.75085171  1
  Cu  Cu90  1  0.00399271  -0.00396610  0.00130388  1
  Cu  Cu91  1  -0.00483677  0.67173408  0.49375936  1
  Cu  Cu92  1  0.17080836  0.16422983  0.24874558  1
  Cu  Cu93  1  0.34363927  0.66178551  0.49765770  1
  Cu  Cu94  1  0.66696762  0.33088789  0.49947722  1
  Cu  Cu95  1  0.66594030  0.66801375  0.50193037  1
  Cu  Cu96  1  -0.00155383  0.66811140  0.00673473  1
  Cu  Cu97  1  0.66777265  0.33138506  -0.00330418  1
  Cu  Cu98  1  0.65725297  -0.00515281  0.50176780  1
  Cu  Cu99  1  0.66675521  0.66696404  -0.00244093  1
  Cu  Cu100  1  0.50058861  0.16274460  0.75010688  1
  Cu  Cu101  1  0.50247323  0.83738655  0.75008498  1
  Cu  Cu102  1  0.16663748  0.17085158  0.75667528  1
  Cu  Cu103  1  0.16888427  0.83816075  0.75538019  1
  Cu  Cu104  1  0.33048273  0.33162995  0.00011607  1
  Cu  Cu105  1  0.16205103  0.50462759  0.24265704  1
  Cu  Cu106  1  0.33050559  0.67038897  0.00194183  1
  Cu  Cu107  1  0.83171337  0.50296975  0.24852919  1
  Cu  Cu108  1  -0.00175313  -0.00155275  0.50262988  1
  Cu  Cu109  1  0.50556495  0.50359219  0.24832818  1
  Cu  Cu110  1  0.83640483  0.49673636  0.75361932  1
  Cu  Cu111  1  0.15604615  0.50218786  0.76156252  1
  Cu  Cu112  1  0.33726627  0.32833098  0.50009513  1
  Cu  Cu113  1  0.83082815  0.17084138  0.24727637  1
  Cu  Cu114  1  0.33935971  -0.00025712  0.00063880  1
  Se  Se115  1  0.08604039  0.08407506  0.05148741  1
  Se  Se116  1  0.08231237  0.08282628  0.55290981  1
  Se  Se117  1  0.07266915  0.41110507  0.04268304  1
  Se  Se118  1  0.08031351  0.41892120  0.56614018  1
  Se  Se119  1  0.08158039  0.75419325  0.05793706  1
  Se  Se120  1  0.08317385  0.74589126  0.55334507  1
  Se  Se121  1  0.42275127  0.08412767  0.05250646  1
  Se  Se122  1  0.41775524  0.08315762  0.55679996  1
  Se  Se123  1  0.40971654  0.41021665  0.06427685  1
  Se  Se124  1  0.41843756  0.41832908  0.54794538  1
  Se  Se125  1  0.42020952  0.75099499  0.05141649  1
  Se  Se126  1  0.41980724  0.75292304  0.54877872  1
  Se  Se127  1  0.74165923  0.06956397  0.05509355  1
  Se  Se128  1  0.73844437  0.07266567  0.56444614  1
  Se  Se129  1  0.74944641  0.41715747  0.04836058  1
  Se  Se130  1  0.75028123  0.41086454  0.55718540  1
  Se  Se131  1  0.74637059  0.74347727  0.06170794  1
  Se  Se132  1  0.74732063  0.75093487  0.55817496  1
  Se  Se133  1  0.25017925  0.24353321  0.05143060  1
  Se  Se134  1  0.25119805  0.25147177  0.55642881  1
  Se  Se135  1  0.24632898  0.58394689  0.05073429  1
  Se  Se136  1  0.26035730  0.59052778  0.56162263  1
  Se  Se137  1  0.25334109  0.91467483  0.05065473  1
  Se  Se138  1  0.25212167  0.92186939  0.56265196  1
  Se  Se139  1  0.58720437  0.24677195  0.05017374  1
  Se  Se140  1  0.58318871  0.24528978  0.55047817  1
  Se  Se141  1  0.58597288  0.59003498  0.06227746  1
  Se  Se142  1  0.58503368  0.57724206  0.55037316  1
  Se  Se143  1  0.58526563  0.90958250  0.04683702  1
  Se  Se144  1  0.57650847  0.91152994  0.55752904  1
  Se  Se145  1  0.92146437  0.25256248  0.06088117  1
  Se  Se146  1  0.92529617  0.25961596  0.55982527  1
  Se  Se147  1  0.90814799  0.58633161  0.05396734  1
  Se  Se148  1  0.91801429  0.59765227  0.56012473  1
  Se  Se149  1  0.92675027  0.91682745  0.06350489  1
  Se  Se150  1  0.91252626  0.91148439  0.54830168  1
  Se  Se151  1  0.08359940  0.25121927  0.45598859  1
  Se  Se152  1  0.08698702  0.23425636  0.95407099  1
  Se  Se153  1  0.08238885  0.59199852  0.43950180  1
  Se  Se154  1  0.08005556  0.58430597  0.95043275  1
  Se  Se155  1  0.07043323  0.92072882  0.43431565  1
  Se  Se156  1  0.08746043  0.91146657  0.94907917  1
  Se  Se157  1  0.41842373  0.24334262  0.44653502  1
  Se  Se158  1  0.41963789  0.25164874  0.95026088  1
  Se  Se159  1  0.42375256  0.57750433  0.44397130  1
  Se  Se160  1  0.40964064  0.59106889  0.93835587  1
  Se  Se161  1  0.41241093  0.91474488  0.45013183  1
  Se  Se162  1  0.41905151  0.91579373  0.94436113  1
  Se  Se163  1  0.74941844  0.25145648  0.44096922  1
  Se  Se164  1  0.74565326  0.25263399  0.93268260  1
  Se  Se165  1  0.74408568  0.59071095  0.43655380  1
  Se  Se166  1  0.74986582  0.58093319  0.94797990  1
  Se  Se167  1  0.74626866  0.91448013  0.45150810  1
  Se  Se168  1  0.74159025  0.92411365  0.94111354  1
  Se  Se169  1  0.24495843  0.08196699  0.44813600  1
  Se  Se170  1  0.25398087  0.08207010  0.94760972  1
  Se  Se171  1  0.25906381  0.40743282  0.43618330  1
  Se  Se172  1  0.24794694  0.42180601  0.95413432  1
  Se  Se173  1  0.25732490  0.73714189  0.43809426  1
  Se  Se174  1  0.24722710  0.75354505  0.94720608  1
  Se  Se175  1  0.58073561  0.08365609  0.44853572  1
  Se  Se176  1  0.57452712  0.09565760  0.94295407  1
  Se  Se177  1  0.58609915  0.41603740  0.44514807  1
  Se  Se178  1  0.58617397  0.41387290  0.93697536  1
  Se  Se179  1  0.58015396  0.75035218  0.44833135  1
  Se  Se180  1  0.58227471  0.75189880  0.94854229  1
  Se  Se181  1  0.91701867  0.07838196  0.44043133  1
  Se  Se182  1  0.92024540  0.07133041  0.93991837  1
  Se  Se183  1  0.93386650  0.40810414  0.44773244  1
  Se  Se184  1  0.91271162  0.41039763  0.95015215  1
  Se  Se185  1  0.91220375  0.75260523  0.43890785  1
  Se  Se186  1  0.92065091  0.74384597  0.93996454  1
  Se  Se187  1  0.25323547  0.24714588  0.30433155  1
  Se  Se188  1  0.23983473  0.25069344  0.82262268  1
  Se  Se189  1  0.24898988  0.58254489  0.29749134  1
  Se  Se190  1  0.24703995  0.58178758  0.81231365  1
  Se  Se191  1  0.23774646  0.90004033  0.30516470  1
  Se  Se192  1  0.25311252  0.92341939  0.80293197  1
  Se  Se193  1  0.58986574  0.25999192  0.30186482  1
  Se  Se194  1  0.58251852  0.25257553  0.79842829  1
  Se  Se195  1  0.58818059  0.58699639  0.30296068  1
  Se  Se196  1  0.58873779  0.58625458  0.79928292  1
  Se  Se197  1  0.57573690  0.91325604  0.31240513  1
  Se  Se198  1  0.58202487  0.92002942  0.80693414  1
  Se  Se199  1  0.91201215  0.24278275  0.31440656  1
  Se  Se200  1  0.91750933  0.24890063  0.80091314  1
  Se  Se201  1  0.91765109  0.58548777  0.30010997  1
  Se  Se202  1  0.91450822  0.58181001  0.81026755  1
  Se  Se203  1  0.92493825  0.93437827  0.30004840  1
  Se  Se204  1  0.90972296  0.90400639  0.80452799  1
  Se  Se205  1  0.08664412  0.08647974  0.30482327  1
  Se  Se206  1  0.08443158  0.08618205  0.81366296  1
  Se  Se207  1  0.09431776  0.42384134  0.31145113  1
  Se  Se208  1  0.07736947  0.41576442  0.81476372  1
  Se  Se209  1  0.07692904  0.74721322  0.29199977  1
  Se  Se210  1  0.08590915  0.75222508  0.80417323  1
  Se  Se211  1  0.42376333  0.08945196  0.30614856  1
  Se  Se212  1  0.41336634  0.08429313  0.80362081  1
  Se  Se213  1  0.42448833  0.42219639  0.30866850  1
  Se  Se214  1  0.42610757  0.42485741  0.80396659  1
  Se  Se215  1  0.41669889  0.74661851  0.30531092  1
  Se  Se216  1  0.42165268  0.75512132  0.81064786  1
  Se  Se217  1  0.75543189  0.08969120  0.31242303  1
  Se  Se218  1  0.74626566  0.07992106  0.79815716  1
  Se  Se219  1  0.75251069  0.41439358  0.30084244  1
  Se  Se220  1  0.74713063  0.41288177  0.80177330  1
  Se  Se221  1  0.74497760  0.75828826  0.30019323  1
  Se  Se222  1  0.74913835  0.75414866  0.80305260  1
  Se  Se223  1  0.24963368  0.08602159  0.18781726  1
  Se  Se224  1  0.25096224  0.08937764  0.70289958  1
  Se  Se225  1  0.23499638  0.41946352  0.18232551  1
  Se  Se226  1  0.23906055  0.42499614  0.69988096  1
  Se  Se227  1  0.25700712  0.74364491  0.19271774  1
  Se  Se228  1  0.24331225  0.75953709  0.68798158  1
  Se  Se229  1  0.57887589  0.08719674  0.19100307  1
  Se  Se230  1  0.58489810  0.07973702  0.69689837  1
  Se  Se231  1  0.58679339  0.41897958  0.19453090  1
  Se  Se232  1  0.58870813  0.41373078  0.69077641  1
  Se  Se233  1  0.58479192  0.74817349  0.19799690  1
  Se  Se234  1  0.58040259  0.74908151  0.69602502  1
  Se  Se235  1  0.91656862  0.08611086  0.19951749  1
  Se  Se236  1  0.90612667  0.08965141  0.68471132  1
  Se  Se237  1  0.91311582  0.42422444  0.18676768  1
  Se  Se238  1  0.92153302  0.41518809  0.70022822  1
  Se  Se239  1  0.91005851  0.75946284  0.20323730  1
  Se  Se240  1  0.93545056  0.73843522  0.69603360  1
  Se  Se241  1  0.08867722  0.24786119  0.19264558  1
  Se  Se242  1  0.08249978  0.25207463  0.70258537  1
  Se  Se243  1  0.07709070  0.58504322  0.18962472  1
  Se  Se244  1  0.07802141  0.58718225  0.70554226  1
  Se  Se245  1  0.07950378  0.93346432  0.19760814  1
  Se  Se246  1  0.08899745  0.91318334  0.68850126  1
  Se  Se247  1  0.43083942  0.24073755  0.19340899  1
  Se  Se248  1  0.42415875  0.24797731  0.68821493  1
  Se  Se249  1  0.41512760  0.58430455  0.19975700  1
  Se  Se250  1  0.42536463  0.57829420  0.68429873  1
  Se  Se251  1  0.42530249  0.91258744  0.18847685  1
  Se  Se252  1  0.41463383  0.91992233  0.70023202  1
  Se  Se253  1  0.74685065  0.25250484  0.19585217  1
  Se  Se254  1  0.74647433  0.25314975  0.69801091  1
  Se  Se255  1  0.74769254  0.58620231  0.19583047  1
  Se  Se256  1  0.75226536  0.57999333  0.69946989  1
  Se  Se257  1  0.75848310  0.90707528  0.19003193  1
  Se  Se258  1  0.75345181  0.90637021  0.70137128  1
