# generated using pymatgen
data_In86Cu29Se144
_symmetry_space_group_name_H-M   'P 1'
_cell_length_a   17.55842788
_cell_length_b   17.55736103
_cell_length_c   23.39869533
_cell_angle_alpha   89.99592198
_cell_angle_beta   89.99320464
_cell_angle_gamma   90.00318930
_symmetry_Int_Tables_number   1
_chemical_formula_structural   In86Cu29Se144
_chemical_formula_sum   'In86 Cu29 Se144'
_cell_volume   7213.34170323
_cell_formula_units_Z   1
loop_
 _symmetry_equiv_pos_site_id
 _symmetry_equiv_pos_as_xyz
  1  'x, y, z'
loop_
 _atom_site_type_symbol
 _atom_site_label
 _atom_site_symmetry_multiplicity
 _atom_site_fract_x
 _atom_site_fract_y
 _atom_site_fract_z
 _atom_site_occupancy
  In  In0  1  0.00741750  0.15549050  0.13688842  1
  In  In1  1  0.01411283  0.18495522  0.59677411  1
  In  In2  1  0.00649308  0.49046657  0.12998678  1
  In  In3  1  -0.01066929  0.48501008  0.62685564  1
  In  In4  1  0.00317632  0.83566574  0.13055150  1
  In  In5  1  0.00525706  0.84382259  0.60625022  1
  In  In6  1  0.32371032  0.15976915  0.12152012  1
  In  In7  1  0.34012105  0.17218279  0.61522566  1
  In  In8  1  0.33007346  0.51067519  0.12466032  1
  In  In9  1  0.34381200  0.48917246  0.63508986  1
  In  In10  1  0.33468296  0.85104717  0.13089585  1
  In  In11  1  0.32586958  0.83462667  0.62041631  1
  In  In12  1  0.66868023  0.17599300  0.12881630  1
  In  In13  1  0.66687858  0.16496710  0.61972302  1
  In  In14  1  0.65927951  0.48123282  0.13034414  1
  In  In15  1  0.65515311  0.50220537  0.62729074  1
  In  In16  1  0.66866094  0.82472918  0.12722981  1
  In  In17  1  0.66970452  0.84565661  0.60543753  1
  In  In18  1  0.16247714  0.00300927  0.38158278  1
  In  In19  1  0.16418686  0.00206496  0.88272765  1
  In  In20  1  0.15234644  0.32667376  0.37452658  1
  In  In21  1  0.16770291  0.33125177  0.87433449  1
  In  In22  1  0.16481634  0.68231876  0.37033632  1
  In  In23  1  0.16502754  0.66157657  0.87869896  1
  In  In24  1  0.49447669  0.01034441  0.39495543  1
  In  In25  1  0.51376460  0.00272196  0.86888052  1
  In  In26  1  0.50478455  0.32325232  0.38303239  1
  In  In27  1  0.48976754  0.32432233  0.86626212  1
  In  In28  1  0.50366093  0.67265342  0.38927749  1
  In  In29  1  0.49417318  0.68206286  0.86704045  1
  In  In30  1  0.85870243  -0.01331940  0.40355668  1
  In  In31  1  0.82857857  0.00257935  0.87177641  1
  In  In32  1  0.83143651  0.33156087  0.37579557  1
  In  In33  1  0.83246141  0.33369152  0.85414242  1
  In  In34  1  0.84320108  0.66592486  0.37217454  1
  In  In35  1  0.84810017  0.67212051  0.87290402  1
  In  In36  1  0.00639171  0.17221633  0.38310590  1
  In  In37  1  0.00427022  0.17486813  0.87243111  1
  In  In38  1  -0.00871985  0.49636685  0.36273000  1
  In  In39  1  0.00978880  0.50181758  0.87347690  1
  In  In40  1  0.00354406  0.83716924  0.37444771  1
  In  In41  1  -0.00118466  0.84041995  0.88033891  1
  In  In42  1  0.33907206  0.15028546  0.39117531  1
  In  In43  1  0.32617166  0.17516359  0.87834833  1
  In  In44  1  0.34303180  0.50693128  0.37667477  1
  In  In45  1  0.32287948  0.49509673  0.86832039  1
  In  In46  1  0.31223340  0.86235585  0.40449161  1
  In  In47  1  0.32994260  0.82430819  0.86989604  1
  In  In48  1  0.66307550  0.17069023  0.38747396  1
  In  In49  1  0.66284861  0.16071252  0.86596748  1
  In  In50  1  0.66306075  0.48763908  0.37543910  1
  In  In51  1  0.67422394  0.48080092  0.87153920  1
  In  In52  1  0.66731385  0.83913302  0.39834681  1
  In  In53  1  0.66461404  0.84692778  0.87081701  1
  In  In54  1  0.16842913  0.00067289  0.12781476  1
  In  In55  1  0.17443645  0.01480689  0.58620725  1
  In  In56  1  0.15677663  0.32114817  0.11766272  1
  In  In57  1  0.16798620  0.33365700  0.63014460  1
  In  In58  1  0.16353255  0.66001131  0.12059393  1
  In  In59  1  0.16915307  0.68045587  0.62626289  1
  In  In60  1  0.48579729  -0.00158510  0.13218622  1
  In  In61  1  0.51297770  0.02169499  0.59606599  1
  In  In62  1  0.51608726  0.32715051  0.12883466  1
  In  In63  1  0.49732213  0.33314014  0.62678460  1
  In  In64  1  0.49496481  0.66770446  0.13064835  1
  In  In65  1  0.49934743  0.65457023  0.61842199  1
  In  In66  1  0.84861059  0.00227432  0.13073859  1
  In  In67  1  0.82649231  -0.00381246  0.60940579  1
  In  In68  1  0.83200248  0.32823546  0.13494372  1
  In  In69  1  0.84544430  0.31933555  0.63699478  1
  In  In70  1  0.83276096  0.68704680  0.12706743  1
  In  In71  1  0.82156243  0.67612084  0.61704605  1
  In  In72  1  0.33190060  0.32747689  0.25163643  1
  In  In73  1  0.83809537  0.16375832  -0.00156824  1
  In  In74  1  0.16868679  0.49761404  0.49773823  1
  In  In75  1  0.33567107  0.00621657  0.73593580  1
  In  In76  1  0.00013501  0.66129336  0.74726319  1
  In  In77  1  0.49480837  0.84332746  -0.00281041  1
  In  In78  1  0.83065446  0.49749350  0.49903011  1
  In  In79  1  0.67231073  0.00838992  0.27043280  1
  In  In80  1  0.49484375  0.50315724  0.00566186  1
  In  In81  1  0.67276979  0.66338637  0.25905702  1
  In  In82  1  0.66487787  0.66309383  0.74311503  1
  In  In83  1  0.84103792  0.50284793  -0.00503477  1
  In  In84  1  -0.00328625  0.00138998  0.72942642  1
  In  In85  1  0.33599695  0.66987949  0.25091867  1
  Cu  Cu86  1  0.00182950  0.66850116  0.49505575  1
  Cu  Cu87  1  0.49121238  0.83437468  0.26469968  1
  Cu  Cu88  1  0.16964449  0.49768389  0.75377068  1
  Cu  Cu89  1  0.16359093  0.16764044  0.74519073  1
  Cu  Cu90  1  0.66207777  0.33756659  0.50513852  1
  Cu  Cu91  1  0.33030183  0.00677846  0.00335667  1
  Cu  Cu92  1  0.82577966  0.15575149  0.74331025  1
  Cu  Cu93  1  0.50142127  0.16651607  0.74018263  1
  Cu  Cu94  1  0.33546798  0.66028861  0.50163912  1
  Cu  Cu95  1  0.32574750  0.66935212  -0.00329147  1
  Cu  Cu96  1  0.83477712  0.50027910  0.25114008  1
  Cu  Cu97  1  0.50183357  0.16262178  0.26299832  1
  Cu  Cu98  1  0.67419109  0.66896219  0.00165555  1
  Cu  Cu99  1  0.83708722  0.84536578  0.25592759  1
  Cu  Cu100  1  0.49694016  0.49962538  0.74922351  1
  Cu  Cu101  1  0.00000518  0.67708480  0.00300458  1
  Cu  Cu102  1  0.83801318  0.17002268  0.26183314  1
  Cu  Cu103  1  0.00869119  -0.00470615  0.00958854  1
  Cu  Cu104  1  0.49930255  0.83854971  0.74085062  1
  Cu  Cu105  1  0.66880773  0.00038561  -0.00552181  1
  Cu  Cu106  1  0.33631919  0.33138138  0.50357498  1
  Cu  Cu107  1  0.66626925  0.32539983  -0.00178322  1
  Cu  Cu108  1  0.00570416  0.33083909  0.00015316  1
  Cu  Cu109  1  0.16789109  0.15883235  0.25321192  1
  Cu  Cu110  1  0.16011189  0.49857102  0.24641505  1
  Cu  Cu111  1  0.33399665  0.33276147  -0.00581614  1
  Cu  Cu112  1  0.16570632  0.84469629  0.25625149  1
  Cu  Cu113  1  0.16667039  0.83825634  0.74482513  1
  Cu  Cu114  1  0.82920750  0.83664976  0.73747475  1
  Se  Se115  1  0.08677385  0.08735270  0.05844893  1
  Se  Se116  1  0.04368109  0.05693600  0.54614396  1
  Se  Se117  1  0.08519642  0.41929544  0.05237826  1
  Se  Se118  1  0.07615426  0.40883839  0.55487648  1
  Se  Se119  1  0.08597500  0.75503715  0.05860053  1
  Se  Se120  1  0.08887379  0.74743673  0.54879610  1
  Se  Se121  1  0.41991746  0.08322401  0.05655481  1
  Se  Se122  1  0.39262973  0.07126482  0.54559489  1
  Se  Se123  1  0.40987361  0.40568347  0.06397474  1
  Se  Se124  1  0.41778425  0.41880398  0.55527894  1
  Se  Se125  1  0.40848228  0.74704128  0.05836358  1
  Se  Se126  1  0.41261601  0.74467421  0.55821604  1
  Se  Se127  1  0.74686565  0.07640957  0.06113926  1
  Se  Se128  1  0.72737441  0.06985504  0.54465519  1
  Se  Se129  1  0.74934995  0.40820532  0.05481125  1
  Se  Se130  1  0.74745714  0.41135255  0.56609333  1
  Se  Se131  1  0.75286944  0.75928617  0.05071067  1
  Se  Se132  1  0.75701037  0.75971862  0.54269224  1
  Se  Se133  1  0.25195464  0.25008104  0.05173827  1
  Se  Se134  1  0.24540199  0.25504986  0.55536303  1
  Se  Se135  1  0.24817261  0.58059956  0.04979209  1
  Se  Se136  1  0.25508852  0.58219661  0.56455716  1
  Se  Se137  1  0.25116709  0.91826338  0.05554841  1
  Se  Se138  1  0.25263621  0.90779336  0.54063232  1
  Se  Se139  1  0.58404700  0.24310915  0.05261253  1
  Se  Se140  1  0.57844502  0.25099661  0.55619976  1
  Se  Se141  1  0.59468439  0.59217305  0.06307115  1
  Se  Se142  1  0.59938971  0.59152318  0.55148352  1
  Se  Se143  1  0.58936905  0.92496630  0.06160136  1
  Se  Se144  1  0.55421771  0.89578362  0.54663743  1
  Se  Se145  1  0.92400636  0.25319464  0.06221592  1
  Se  Se146  1  0.89917084  0.25090577  0.54851140  1
  Se  Se147  1  0.92067171  0.59247533  0.06280277  1
  Se  Se148  1  0.92553800  0.58960993  0.55843672  1
  Se  Se149  1  0.91753244  0.91565746  0.05837408  1
  Se  Se150  1  0.90503705  0.90689192  0.54314955  1
  Se  Se151  1  0.09448942  0.24665336  0.45442206  1
  Se  Se152  1  0.08737069  0.24638980  0.94592762  1
  Se  Se153  1  0.07773537  0.58505515  0.43443956  1
  Se  Se154  1  0.07634554  0.58702365  0.94870261  1
  Se  Se155  1  0.09481756  0.90216703  0.44586719  1
  Se  Se156  1  0.08783277  0.91281119  0.95018626  1
  Se  Se157  1  0.41994421  0.24462263  0.45243802  1
  Se  Se158  1  0.42058536  0.24791693  0.94594390  1
  Se  Se159  1  0.42262536  0.57801761  0.45183676  1
  Se  Se160  1  0.41260371  0.59301217  0.93824127  1
  Se  Se161  1  0.44373875  0.89181669  0.45040828  1
  Se  Se162  1  0.40530486  0.93048984  0.93410901  1
  Se  Se163  1  0.74912365  0.25902928  0.45058033  1
  Se  Se164  1  0.75141301  0.25443486  0.93552456  1
  Se  Se165  1  0.74635833  0.58702835  0.43591690  1
  Se  Se166  1  0.74378857  0.58977545  0.93538690  1
  Se  Se167  1  0.73375809  0.94697247  0.45604300  1
  Se  Se168  1  0.75278588  0.91661082  0.94334478  1
  Se  Se169  1  0.24056423  0.08394439  0.45649773  1
  Se  Se170  1  0.24718562  0.08846108  0.94698529  1
  Se  Se171  1  0.25946413  0.40734242  0.43675585  1
  Se  Se172  1  0.24900985  0.41746558  0.94439923  1
  Se  Se173  1  0.24998503  0.74085391  0.44829521  1
  Se  Se174  1  0.24505640  0.75461120  0.94328536  1
  Se  Se175  1  0.58655453  0.08692148  0.45901876  1
  Se  Se176  1  0.58531615  0.08540104  0.94372681  1
  Se  Se177  1  0.57857557  0.41825460  0.45015261  1
  Se  Se178  1  0.58258945  0.41018717  0.94405359  1
  Se  Se179  1  0.60462555  0.73147085  0.45617706  1
  Se  Se180  1  0.58900829  0.74715825  0.94227324  1
  Se  Se181  1  0.92399244  0.09612632  0.45900115  1
  Se  Se182  1  0.93129928  0.07145146  0.94118242  1
  Se  Se183  1  0.92807948  0.41236027  0.44307782  1
  Se  Se184  1  0.92094834  0.40200494  0.93638505  1
  Se  Se185  1  0.91751479  0.75117459  0.44229224  1
  Se  Se186  1  0.91466554  0.75613243  0.94777961  1
  Se  Se187  1  0.24931152  0.23631178  0.31538922  1
  Se  Se188  1  0.24667009  0.24693579  0.80192704  1
  Se  Se189  1  0.24154825  0.57518617  0.30759398  1
  Se  Se190  1  0.24777566  0.59050515  0.80328944  1
  Se  Se191  1  0.25229767  0.92048579  0.31324841  1
  Se  Se192  1  0.24563224  0.92157818  0.80435056  1
  Se  Se193  1  0.58817322  0.24784662  0.30954249  1
  Se  Se194  1  0.58162262  0.24830128  0.79998066  1
  Se  Se195  1  0.57311597  0.57983992  0.31207995  1
  Se  Se196  1  0.57788031  0.57679876  0.81283551  1
  Se  Se197  1  0.57931124  0.91168219  0.32058549  1
  Se  Se198  1  0.58498359  0.91853101  0.79494612  1
  Se  Se199  1  0.92483970  0.25491392  0.31073937  1
  Se  Se200  1  0.91355732  0.23516778  0.79825491  1
  Se  Se201  1  0.91875831  0.59043280  0.29567326  1
  Se  Se202  1  0.90707884  0.56983327  0.80449815  1
  Se  Se203  1  0.91711996  0.92779198  0.31190943  1
  Se  Se204  1  0.91334088  0.91248226  0.79976044  1
  Se  Se205  1  0.08066212  0.08413118  0.31045206  1
  Se  Se206  1  0.08561215  0.08148153  0.80226721  1
  Se  Se207  1  0.08190783  0.41237471  0.30092398  1
  Se  Se208  1  0.08360357  0.41373415  0.80436579  1
  Se  Se209  1  0.07925742  0.75398799  0.29874114  1
  Se  Se210  1  0.08505121  0.76024988  0.80574956  1
  Se  Se211  1  0.41865808  0.07789630  0.31401258  1
  Se  Se212  1  0.42003884  0.09013585  0.80557449  1
  Se  Se213  1  0.42342965  0.41555657  0.31061359  1
  Se  Se214  1  0.41195241  0.41640093  0.80235203  1
  Se  Se215  1  0.41083616  0.75494063  0.32327350  1
  Se  Se216  1  0.41436625  0.75689095  0.79344009  1
  Se  Se217  1  0.76874990  0.08979047  0.32852590  1
  Se  Se218  1  0.74442869  0.07338198  0.79860107  1
  Se  Se219  1  0.75206499  0.41695746  0.30471880  1
  Se  Se220  1  0.74349578  0.41316214  0.79089836  1
  Se  Se221  1  0.75293174  0.76728328  0.31434947  1
  Se  Se222  1  0.75666559  0.75641310  0.80414367  1
  Se  Se223  1  0.25450308  0.07967957  0.19886821  1
  Se  Se224  1  0.23466718  0.08758744  0.67850419  1
  Se  Se225  1  0.24416357  0.41906670  0.18869337  1
  Se  Se226  1  0.25179676  0.41222669  0.70034663  1
  Se  Se227  1  0.24286218  0.76028159  0.19314698  1
  Se  Se228  1  0.25475946  0.75296609  0.69848964  1
  Se  Se229  1  0.58183891  0.08438865  0.19732578  1
  Se  Se230  1  0.57824740  0.07901731  0.68568080  1
  Se  Se231  1  0.58251581  0.40874948  0.20475108  1
  Se  Se232  1  0.58026728  0.41584165  0.69732525  1
  Se  Se233  1  0.57299766  0.75844534  0.20225851  1
  Se  Se234  1  0.58229227  0.75666094  0.68287389  1
  Se  Se235  1  0.91681107  0.08379027  0.20653958  1
  Se  Se236  1  0.90801747  0.09418006  0.67351001  1
  Se  Se237  1  0.91742743  0.41422108  0.19792437  1
  Se  Se238  1  0.92015057  0.41020360  0.70405109  1
  Se  Se239  1  0.91483467  0.75738840  0.20133365  1
  Se  Se240  1  0.91809458  0.75760587  0.68412613  1
  Se  Se241  1  0.08862648  0.24815193  0.19969544  1
  Se  Se242  1  0.07635930  0.24326194  0.68799436  1
  Se  Se243  1  0.08071746  0.58731544  0.19461042  1
  Se  Se244  1  0.09214247  0.57257471  0.68630272  1
  Se  Se245  1  0.08178680  0.92410499  0.19855026  1
  Se  Se246  1  0.09952592  0.91767084  0.67733462  1
  Se  Se247  1  0.42442074  0.23663316  0.19361200  1
  Se  Se248  1  0.41061378  0.24910959  0.69412799  1
  Se  Se249  1  0.42827874  0.56928409  0.19932645  1
  Se  Se250  1  0.41776796  0.58827482  0.69770247  1
  Se  Se251  1  0.41360826  0.92008200  0.20880522  1
  Se  Se252  1  0.42794307  0.92126562  0.67675573  1
  Se  Se253  1  0.75064062  0.24548698  0.20433397  1
  Se  Se254  1  0.74245560  0.24547459  0.69514656  1
  Se  Se255  1  0.75472290  0.57729530  0.18632345  1
  Se  Se256  1  0.76330555  0.57609184  0.68913981  1
  Se  Se257  1  0.74898167  0.91778322  0.19586471  1
  Se  Se258  1  0.74589984  0.91824338  0.68463423  1
