# generated using pymatgen
data_In86Cu29Se144
_symmetry_space_group_name_H-M   'P 1'
_cell_length_a   17.58290024
_cell_length_b   17.59121941
_cell_length_c   23.44695268
_cell_angle_alpha   89.97525272
_cell_angle_beta   90.00773491
_cell_angle_gamma   89.98513298
_symmetry_Int_Tables_number   1
_chemical_formula_structural   In86Cu29Se144
_chemical_formula_sum   'In86 Cu29 Se144'
_cell_volume   7252.25064561
_cell_formula_units_Z   1
loop_
 _symmetry_equiv_pos_site_id
 _symmetry_equiv_pos_as_xyz
  1  'x, y, z'
loop_
 _atom_site_type_symbol
 _atom_site_label
 _atom_site_symmetry_multiplicity
 _atom_site_fract_x
 _atom_site_fract_y
 _atom_site_fract_z
 _atom_site_occupancy
  In  In0  1  -0.00845919  0.15200069  0.12467038  1
  In  In1  1  -0.00545478  0.16388190  0.61587894  1
  In  In2  1  0.00684349  0.50375798  0.12786269  1
  In  In3  1  -0.00511358  0.51608428  0.62536670  1
  In  In4  1  0.00781242  0.82971596  0.14516213  1
  In  In5  1  -0.01032769  0.83116017  0.61927006  1
  In  In6  1  0.32630063  0.17612427  0.13226430  1
  In  In7  1  0.33184849  0.15977752  0.61413336  1
  In  In8  1  0.34353478  0.48978643  0.13413522  1
  In  In9  1  0.35143087  0.50480175  0.62214804  1
  In  In10  1  0.35185414  0.81800617  0.14944098  1
  In  In11  1  0.33839461  0.81859466  0.62340385  1
  In  In12  1  0.68226839  0.17006775  0.12507089  1
  In  In13  1  0.66925267  0.17023191  0.62968528  1
  In  In14  1  0.64849046  0.49421156  0.11603792  1
  In  In15  1  0.66391431  0.49747769  0.62747846  1
  In  In16  1  0.65480773  0.83201720  0.11693016  1
  In  In17  1  0.66508094  0.83381585  0.62154914  1
  In  In18  1  0.17831270  0.00467400  0.36165003  1
  In  In19  1  0.17238374  0.00359115  0.88327655  1
  In  In20  1  0.16755692  0.32029397  0.37444165  1
  In  In21  1  0.16179727  0.32650902  0.88039416  1
  In  In22  1  0.17523898  0.68463456  0.35982245  1
  In  In23  1  0.16647736  0.66398545  0.87035273  1
  In  In24  1  0.50117612  0.00295939  0.37630619  1
  In  In25  1  0.50248667  -0.01205984  0.87600363  1
  In  In26  1  0.49981786  0.33400358  0.37512041  1
  In  In27  1  0.52503377  0.34493496  0.87202613  1
  In  In28  1  0.49439071  0.67214748  0.38346838  1
  In  In29  1  0.50627728  0.67149479  0.87660045  1
  In  In30  1  0.83355622  0.00040486  0.38029335  1
  In  In31  1  0.82644544  0.01278478  0.87556900  1
  In  In32  1  0.82537997  0.33801757  0.38168227  1
  In  In33  1  0.81886857  0.32180127  0.87332127  1
  In  In34  1  0.83401962  0.66811734  0.38108401  1
  In  In35  1  0.82598019  0.65765474  0.86021771  1
  In  In36  1  0.00261906  0.16204869  0.37974985  1
  In  In37  1  -0.00390856  0.16636101  0.88434718  1
  In  In38  1  -0.01459055  0.50762381  0.37808349  1
  In  In39  1  -0.01126223  0.50308256  0.87187454  1
  In  In40  1  -0.00639046  0.83025887  0.36815927  1
  In  In41  1  0.00464403  0.82710759  0.87318468  1
  In  In42  1  0.33609268  0.16625932  0.37180759  1
  In  In43  1  0.33097630  0.15951077  0.88172145  1
  In  In44  1  0.34236953  0.51228090  0.36887577  1
  In  In45  1  0.34478049  0.51859838  0.87338788  1
  In  In46  1  0.35347777  0.84870995  0.35252858  1
  In  In47  1  0.35133462  0.82515923  0.88255024  1
  In  In48  1  0.65974926  0.17271666  0.37904005  1
  In  In49  1  0.68494211  0.17713837  0.85427082  1
  In  In50  1  0.67223738  0.49406446  0.38389505  1
  In  In51  1  0.65815063  0.49874604  0.86988749  1
  In  In52  1  0.66365624  0.83802597  0.38499229  1
  In  In53  1  0.65348540  0.82281592  0.86086376  1
  In  In54  1  0.16123249  0.00187750  0.13827526  1
  In  In55  1  0.15780760  0.00178620  0.61843236  1
  In  In56  1  0.18268671  0.33460860  0.12759427  1
  In  In57  1  0.17446496  0.32510469  0.61824494  1
  In  In58  1  0.16870784  0.67238889  0.13743477  1
  In  In59  1  0.17192827  0.66805111  0.62981614  1
  In  In60  1  0.49603744  -0.01245567  0.12903157  1
  In  In61  1  0.50990700  0.00967457  0.61517493  1
  In  In62  1  0.49852118  0.33667912  0.13055357  1
  In  In63  1  0.52086227  0.34959521  0.61530172  1
  In  In64  1  0.49719085  0.65883904  0.11998428  1
  In  In65  1  0.50252855  0.66372542  0.62565202  1
  In  In66  1  0.83505171  0.01351019  0.13427764  1
  In  In67  1  0.82832899  -0.00131145  0.61948335  1
  In  In68  1  0.83490329  0.31338859  0.13231448  1
  In  In69  1  0.81106893  0.31809777  0.61586552  1
  In  In70  1  0.83223995  0.67363268  0.12426709  1
  In  In71  1  0.83186780  0.66784086  0.62063503  1
  In  In72  1  0.34121561  0.33571521  0.74846048  1
  In  In73  1  -0.00902319  -0.00604397  0.74182213  1
  In  In74  1  0.33425443  -0.00832507  0.75728388  1
  In  In75  1  0.00205815  0.33487514  0.25737059  1
  In  In76  1  0.66284429  0.00267181  0.25431117  1
  In  In77  1  -0.00576955  0.33786983  0.75379250  1
  In  In78  1  0.17299966  0.83923261  0.48582457  1
  In  In79  1  0.16173312  0.49555326  0.49249143  1
  In  In80  1  0.17555768  0.49657911  0.00588185  1
  In  In81  1  0.82192811  0.48912958  -0.01216526  1
  In  In82  1  0.66326001  0.66209317  0.24281666  1
  In  In83  1  0.50674472  0.16973256  -0.00303704  1
  In  In84  1  0.17052488  0.83779983  0.01582819  1
  In  In85  1  0.83124345  0.83838470  0.00525113  1
  Cu  Cu86  1  -0.00873739  0.66424643  -0.00036217  1
  Cu  Cu87  1  0.16068217  0.16169499  0.74992217  1
  Cu  Cu88  1  0.66144600  0.33127397  0.50138636  1
  Cu  Cu89  1  0.50164506  0.49978761  0.25091092  1
  Cu  Cu90  1  0.34262509  0.66337204  0.49914333  1
  Cu  Cu91  1  0.83323340  0.50361389  0.74427034  1
  Cu  Cu92  1  0.16835318  0.50621996  0.25034031  1
  Cu  Cu93  1  0.66708422  0.66505775  0.50546133  1
  Cu  Cu94  1  0.50039060  0.82927680  0.74814699  1
  Cu  Cu95  1  -0.00211646  0.67267753  0.49763264  1
  Cu  Cu96  1  0.00123565  0.31588034  0.00206686  1
  Cu  Cu97  1  0.16769905  0.82106686  0.75243860  1
  Cu  Cu98  1  0.34337500  0.33703110  0.00522452  1
  Cu  Cu99  1  -0.00217342  0.00776816  0.49804477  1
  Cu  Cu100  1  -0.00190535  0.00440538  0.00842061  1
  Cu  Cu101  1  0.16902711  0.17025818  0.25088496  1
  Cu  Cu102  1  0.83178124  0.82966542  0.74023879  1
  Cu  Cu103  1  -0.00653514  0.33472373  0.49588867  1
  Cu  Cu104  1  0.33697362  0.32359319  0.49755832  1
  Cu  Cu105  1  0.82967399  0.83302563  0.25126303  1
  Cu  Cu106  1  0.50349837  0.16922267  0.74296351  1
  Cu  Cu107  1  0.49744822  0.16944270  0.25347412  1
  Cu  Cu108  1  0.33506142  -0.00246901  0.48838335  1
  Cu  Cu109  1  0.82727676  0.49805612  0.25765728  1
  Cu  Cu110  1  0.66547356  0.00219757  0.00109465  1
  Cu  Cu111  1  0.17345672  0.50698734  0.74759463  1
  Cu  Cu112  1  0.34070545  0.66874811  0.00416303  1
  Cu  Cu113  1  0.66748685  0.00212132  0.50070840  1
  Cu  Cu114  1  0.32876614  0.00596610  0.00848003  1
  Se  Se115  1  0.08919708  0.08111370  0.05981858  1
  Se  Se116  1  0.08619978  0.08883104  0.54856132  1
  Se  Se117  1  0.07609296  0.40440488  0.05887978  1
  Se  Se118  1  0.07360456  0.41155276  0.56029320  1
  Se  Se119  1  0.07125523  0.74104015  0.06164653  1
  Se  Se120  1  0.08764628  0.74911349  0.55364982  1
  Se  Se121  1  0.41553716  0.08719563  0.06285344  1
  Se  Se122  1  0.41622398  0.07958980  0.54657357  1
  Se  Se123  1  0.42413842  0.42195585  0.05645083  1
  Se  Se124  1  0.41491413  0.41079955  0.55200725  1
  Se  Se125  1  0.41479294  0.75696616  0.06063539  1
  Se  Se126  1  0.42410765  0.74877536  0.55173790  1
  Se  Se127  1  0.75283757  0.07804350  0.05566939  1
  Se  Se128  1  0.74745674  0.08803037  0.55532597  1
  Se  Se129  1  0.75183661  0.40596836  0.06379727  1
  Se  Se130  1  0.74524299  0.41912882  0.55248498  1
  Se  Se131  1  0.73729406  0.73851147  0.05215087  1
  Se  Se132  1  0.75192826  0.75375465  0.55230688  1
  Se  Se133  1  0.25516118  0.25379253  0.05257093  1
  Se  Se134  1  0.24702838  0.24208117  0.54624818  1
  Se  Se135  1  0.25833447  0.59175379  0.06583853  1
  Se  Se136  1  0.25216390  0.58608323  0.55368048  1
  Se  Se137  1  0.26293846  0.92219332  0.07406563  1
  Se  Se138  1  0.25954595  0.92206418  0.55768082  1
  Se  Se139  1  0.59100703  0.25688571  0.06112698  1
  Se  Se140  1  0.58189137  0.24267176  0.55510345  1
  Se  Se141  1  0.58887887  0.59292835  0.05016839  1
  Se  Se142  1  0.58268750  0.57977738  0.55571696  1
  Se  Se143  1  0.57719004  0.92100912  0.05043347  1
  Se  Se144  1  0.58237106  0.91488059  0.54998852  1
  Se  Se145  1  0.91351076  0.24035741  0.05624438  1
  Se  Se146  1  0.91238247  0.25113318  0.55167177  1
  Se  Se147  1  0.91403796  0.57786140  0.05522279  1
  Se  Se148  1  0.91604129  0.58619793  0.54890328  1
  Se  Se149  1  0.92606654  0.91749619  0.06879283  1
  Se  Se150  1  0.91850189  0.92121733  0.55163609  1
  Se  Se151  1  0.08149719  0.25199092  0.44751527  1
  Se  Se152  1  0.09124109  0.23851344  0.95048770  1
  Se  Se153  1  0.08263521  0.59835300  0.43612493  1
  Se  Se154  1  0.07815070  0.58334852  0.94507514  1
  Se  Se155  1  0.07574802  0.92922784  0.43440258  1
  Se  Se156  1  0.07530869  0.91977362  0.94822295  1
  Se  Se157  1  0.42116007  0.24364465  0.44277176  1
  Se  Se158  1  0.41655990  0.26140000  0.93580444  1
  Se  Se159  1  0.42316949  0.57389982  0.44943872  1
  Se  Se160  1  0.42372221  0.58801962  0.94940073  1
  Se  Se161  1  0.41840925  0.91071084  0.43999058  1
  Se  Se162  1  0.40929489  0.92681446  0.94943311  1
  Se  Se163  1  0.74726883  0.24924624  0.44905299  1
  Se  Se164  1  0.74643631  0.23685872  0.94322577  1
  Se  Se165  1  0.75120998  0.58490230  0.44859063  1
  Se  Se166  1  0.74166784  0.59593926  0.93954810  1
  Se  Se167  1  0.75232366  0.91741086  0.44985758  1
  Se  Se168  1  0.74198720  0.91901390  0.93887870  1
  Se  Se169  1  0.24959765  0.08193372  0.43944604  1
  Se  Se170  1  0.24586868  0.08818881  0.95496071  1
  Se  Se171  1  0.25981212  0.40902800  0.43774462  1
  Se  Se172  1  0.26284692  0.41269010  0.93843381  1
  Se  Se173  1  0.26778737  0.74532199  0.43688338  1
  Se  Se174  1  0.25000668  0.74378778  0.94739758  1
  Se  Se175  1  0.58225384  0.08337465  0.44646502  1
  Se  Se176  1  0.59226479  0.08064238  0.93432833  1
  Se  Se177  1  0.57938698  0.41583699  0.44771820  1
  Se  Se178  1  0.59774780  0.41545328  0.94964091  1
  Se  Se179  1  0.58473621  0.74843233  0.45015698  1
  Se  Se180  1  0.56900885  0.77382917  0.94195669  1
  Se  Se181  1  0.91011436  0.09060864  0.44860862  1
  Se  Se182  1  0.91420252  0.07979809  0.94976445  1
  Se  Se183  1  0.91081747  0.42270200  0.44835052  1
  Se  Se184  1  0.92751879  0.39890246  0.93892461  1
  Se  Se185  1  0.91477459  0.75842444  0.44632420  1
  Se  Se186  1  0.91367326  0.74345363  0.93918022  1
  Se  Se187  1  0.25502294  0.25290281  0.30176188  1
  Se  Se188  1  0.24502513  0.24215658  0.80659536  1
  Se  Se189  1  0.25533011  0.58927041  0.30014726  1
  Se  Se190  1  0.25531766  0.58826154  0.80277822  1
  Se  Se191  1  0.22791860  0.88925582  0.30537214  1
  Se  Se192  1  0.24113737  0.90137619  0.81690250  1
  Se  Se193  1  0.58312525  0.25186772  0.30456093  1
  Se  Se194  1  0.58396387  0.25385174  0.79730351  1
  Se  Se195  1  0.58161231  0.57834774  0.31286357  1
  Se  Se196  1  0.58799752  0.59318695  0.80557592  1
  Se  Se197  1  0.57607411  0.90438842  0.30709155  1
  Se  Se198  1  0.58046741  0.92083871  0.79692495  1
  Se  Se199  1  0.91026230  0.24760928  0.31407870  1
  Se  Se200  1  0.91165918  0.23590794  0.80657345  1
  Se  Se201  1  0.90882745  0.58760078  0.30470003  1
  Se  Se202  1  0.92253140  0.58475119  0.79542594  1
  Se  Se203  1  0.90800392  0.91945524  0.30535865  1
  Se  Se204  1  0.90712701  0.90570550  0.80918735  1
  Se  Se205  1  0.08354739  0.08983659  0.30413642  1
  Se  Se206  1  0.08298924  0.07955434  0.80911575  1
  Se  Se207  1  0.09080079  0.43003279  0.31579311  1
  Se  Se208  1  0.09590532  0.42639331  0.80943025  1
  Se  Se209  1  0.06446802  0.73786251  0.30150385  1
  Se  Se210  1  0.07789649  0.74179714  0.80256605  1
  Se  Se211  1  0.41806898  0.08010785  0.30386972  1
  Se  Se212  1  0.42486467  0.09326404  0.80792840  1
  Se  Se213  1  0.41718396  0.41705789  0.30477004  1
  Se  Se214  1  0.42802671  0.42695400  0.80728129  1
  Se  Se215  1  0.41617183  0.73423671  0.30321953  1
  Se  Se216  1  0.41690295  0.74845010  0.80394021  1
  Se  Se217  1  0.75340742  0.09184719  0.31079987  1
  Se  Se218  1  0.74642402  0.07012175  0.79520064  1
  Se  Se219  1  0.74427423  0.41388461  0.30710194  1
  Se  Se220  1  0.75968842  0.42481070  0.80844238  1
  Se  Se221  1  0.74623577  0.75418275  0.30915225  1
  Se  Se222  1  0.74795331  0.74840892  0.79607137  1
  Se  Se223  1  0.25351352  0.08467190  0.20039443  1
  Se  Se224  1  0.24427452  0.08158143  0.69296884  1
  Se  Se225  1  0.25113452  0.41736934  0.20236476  1
  Se  Se226  1  0.24503128  0.42211707  0.68702776  1
  Se  Se227  1  0.23467435  0.76764435  0.20317842  1
  Se  Se228  1  0.25738667  0.74672218  0.69871040  1
  Se  Se229  1  0.57647038  0.09195419  0.18860421  1
  Se  Se230  1  0.58443508  0.08008008  0.69408407  1
  Se  Se231  1  0.58626305  0.41758444  0.19822224  1
  Se  Se232  1  0.58334853  0.41638943  0.69881651  1
  Se  Se233  1  0.57205449  0.75799077  0.19178981  1
  Se  Se234  1  0.58581759  0.75030746  0.69266591  1
  Se  Se235  1  0.91897677  0.08528547  0.20542066  1
  Se  Se236  1  0.90632984  0.09457232  0.69073892  1
  Se  Se237  1  0.91162224  0.42328319  0.19361948  1
  Se  Se238  1  0.90907731  0.41842266  0.68440141  1
  Se  Se239  1  0.91052424  0.74462937  0.20006433  1
  Se  Se240  1  0.91978566  0.74650973  0.69208810  1
  Se  Se241  1  0.08768186  0.24975211  0.18974480  1
  Se  Se242  1  0.08557629  0.24630293  0.69126244  1
  Se  Se243  1  0.07992016  0.58638036  0.19951858  1
  Se  Se244  1  0.08512616  0.58572225  0.69529251  1
  Se  Se245  1  0.07439160  0.92732340  0.20762817  1
  Se  Se246  1  0.09283785  0.90353504  0.69037940  1
  Se  Se247  1  0.41519007  0.25467668  0.19877114  1
  Se  Se248  1  0.41880951  0.24292293  0.68302287  1
  Se  Se249  1  0.41950935  0.58511677  0.19719720  1
  Se  Se250  1  0.41254140  0.59070536  0.69584523  1
  Se  Se251  1  0.41370671  0.92720470  0.20695709  1
  Se  Se252  1  0.42201081  0.91407792  0.68815779  1
  Se  Se253  1  0.74647435  0.24839907  0.20393696  1
  Se  Se254  1  0.74441084  0.25673155  0.70070885  1
  Se  Se255  1  0.75501554  0.57064872  0.18558409  1
  Se  Se256  1  0.75028562  0.58623043  0.69078363  1
  Se  Se257  1  0.74814162  0.90844611  0.18872510  1
  Se  Se258  1  0.74996873  0.91668296  0.69074541  1
