# generated using pymatgen
data_In86Cu29Se144
_symmetry_space_group_name_H-M   'P 1'
_cell_length_a   17.56630851
_cell_length_b   17.56829763
_cell_length_c   23.41372132
_cell_angle_alpha   90.00327742
_cell_angle_beta   89.99012177
_cell_angle_gamma   89.98391348
_symmetry_Int_Tables_number   1
_chemical_formula_structural   In86Cu29Se144
_chemical_formula_sum   'In86 Cu29 Se144'
_cell_volume   7225.71131968
_cell_formula_units_Z   1
loop_
 _symmetry_equiv_pos_site_id
 _symmetry_equiv_pos_as_xyz
  1  'x, y, z'
loop_
 _atom_site_type_symbol
 _atom_site_label
 _atom_site_symmetry_multiplicity
 _atom_site_fract_x
 _atom_site_fract_y
 _atom_site_fract_z
 _atom_site_occupancy
  In  In0  1  -0.00527256  0.17556653  0.11376435  1
  In  In1  1  -0.00068038  0.14993505  0.62625982  1
  In  In2  1  -0.00713439  0.51034645  0.12706230  1
  In  In3  1  -0.00925886  0.50972416  0.62692975  1
  In  In4  1  -0.00660470  0.81971838  0.12530335  1
  In  In5  1  0.00030072  0.84612489  0.62363592  1
  In  In6  1  0.33315580  0.15239077  0.12521669  1
  In  In7  1  0.32842186  0.15408576  0.62305689  1
  In  In8  1  0.34976975  0.50200332  0.12467325  1
  In  In9  1  0.33027715  0.50079889  0.62730910  1
  In  In10  1  0.33449779  0.83728627  0.12558164  1
  In  In11  1  0.35040290  0.83384393  0.62448004  1
  In  In12  1  0.66393336  0.15677126  0.11356220  1
  In  In13  1  0.65325955  0.16605465  0.62435993  1
  In  In14  1  0.66751988  0.50786236  0.12252596  1
  In  In15  1  0.67732923  0.49626271  0.62581503  1
  In  In16  1  0.66241557  0.84012716  0.12762722  1
  In  In17  1  0.66637600  0.83369100  0.62623388  1
  In  In18  1  0.17915026  0.00070377  0.37131230  1
  In  In19  1  0.16740900  -0.00119708  0.87712247  1
  In  In20  1  0.16132770  0.32931384  0.37739545  1
  In  In21  1  0.15296226  0.32847747  0.88155895  1
  In  In22  1  0.16616304  0.66779345  0.36293416  1
  In  In23  1  0.18225143  0.67070648  0.87957465  1
  In  In24  1  0.50161373  0.00159232  0.37315364  1
  In  In25  1  0.50495280  0.00342448  0.87827958  1
  In  In26  1  0.50185073  0.31446241  0.36930046  1
  In  In27  1  0.52080115  0.32273358  0.89512005  1
  In  In28  1  0.51961384  0.68590302  0.35904019  1
  In  In29  1  0.52027114  0.66470330  0.89495886  1
  In  In30  1  0.81255373  0.00064414  0.36901982  1
  In  In31  1  0.84137289  0.00322988  0.86946993  1
  In  In32  1  0.83595144  0.34434224  0.37213287  1
  In  In33  1  0.83347830  0.33584715  0.89749465  1
  In  In34  1  0.82644503  0.66674130  0.37200478  1
  In  In35  1  0.80488101  0.66771825  0.88563092  1
  In  In36  1  0.00286599  0.17583394  0.37534061  1
  In  In37  1  0.01577835  0.16026276  0.89008891  1
  In  In38  1  -0.01741946  0.49667283  0.37349045  1
  In  In39  1  -0.01319697  0.49159216  0.87864707  1
  In  In40  1  -0.00768324  0.82050660  0.36928761  1
  In  In41  1  -0.00404412  0.85004815  0.87641818  1
  In  In42  1  0.33968725  0.15717499  0.37595131  1
  In  In43  1  0.34276748  0.15162402  0.88063217  1
  In  In44  1  0.32728718  0.50480665  0.36834449  1
  In  In45  1  0.34179998  0.51268258  0.87772658  1
  In  In46  1  0.34668613  0.84992997  0.36417826  1
  In  In47  1  0.33112315  0.83925749  0.88138863  1
  In  In48  1  0.65413525  0.15249334  0.35960879  1
  In  In49  1  0.68860113  0.14984079  0.90417845  1
  In  In50  1  0.67846606  0.51231501  0.36365048  1
  In  In51  1  0.66273771  0.50390889  0.88975564  1
  In  In52  1  0.66533702  0.83342226  0.37520846  1
  In  In53  1  0.65777184  0.83085278  0.87667707  1
  In  In54  1  0.18155633  0.01415073  0.12336542  1
  In  In55  1  0.15987512  0.00658212  0.63204592  1
  In  In56  1  0.16926046  0.31913979  0.12372568  1
  In  In57  1  0.18067497  0.32426137  0.62749041  1
  In  In58  1  0.15515487  0.67716079  0.12906078  1
  In  In59  1  0.16160009  0.66334503  0.62387029  1
  In  In60  1  0.50564665  -0.00928948  0.11880429  1
  In  In61  1  0.50033925  -0.00318101  0.62917343  1
  In  In62  1  0.52571265  0.34127682  0.10152526  1
  In  In63  1  0.51788483  0.32818690  0.62357264  1
  In  In64  1  0.50504590  0.66852950  0.12483227  1
  In  In65  1  0.49951919  0.68509770  0.62416627  1
  In  In66  1  0.80320784  -0.00070384  0.11933997  1
  In  In67  1  0.84226128  -0.00818405  0.63119440  1
  In  In68  1  0.80845074  0.31925626  0.09745152  1
  In  In69  1  0.82090127  0.34293758  0.62269715  1
  In  In70  1  0.83310403  0.67453310  0.13655786  1
  In  In71  1  0.82083546  0.65865658  0.61834721  1
  In  In72  1  -0.00485882  0.33784429  0.24175084  1
  In  In73  1  0.83024248  0.16380849  0.49738148  1
  In  In74  1  0.66824718  0.32768573  0.75694187  1
  In  In75  1  0.33862409  0.67548959  0.75521545  1
  In  In76  1  -0.00208851  0.67272018  0.74711890  1
  In  In77  1  -0.00400773  -0.00071488  0.24678970  1
  In  In78  1  0.16717081  0.83689100  0.49867691  1
  In  In79  1  0.82640420  0.83255304  0.00480195  1
  In  In80  1  0.16422383  0.49582478  0.50167855  1
  In  In81  1  0.16645668  0.50121196  0.00092389  1
  In  In82  1  0.33860526  0.33083319  0.75576514  1
  In  In83  1  -0.00207726  0.32685190  0.76532809  1
  In  In84  1  0.33971013  0.32706503  0.24507715  1
  In  In85  1  0.50259342  0.49812910  0.49547876  1
  Cu  Cu86  1  0.82856435  0.50473774  0.75397190  1
  Cu  Cu87  1  0.16949244  0.83676261  0.24616247  1
  Cu  Cu88  1  0.00047652  0.67205065  0.00342601  1
  Cu  Cu89  1  0.50635055  0.83652770  0.75305908  1
  Cu  Cu90  1  0.00410714  -0.00021271  0.00162192  1
  Cu  Cu91  1  0.33844782  0.00402585  0.49849437  1
  Cu  Cu92  1  0.83268159  0.16090534  0.75874877  1
  Cu  Cu93  1  -0.01369106  0.66211630  0.49508938  1
  Cu  Cu94  1  0.16840516  0.84021808  0.75273237  1
  Cu  Cu95  1  0.33912534  0.31884017  0.50126423  1
  Cu  Cu96  1  0.34115664  0.67559258  0.49051304  1
  Cu  Cu97  1  0.32947318  0.32717017  0.00555267  1
  Cu  Cu98  1  0.82299307  0.17013244  0.23650053  1
  Cu  Cu99  1  0.66781523  0.33062475  0.49423236  1
  Cu  Cu100  1  0.66605488  0.66843702  0.49355756  1
  Cu  Cu101  1  0.00058558  0.32848042  0.49922857  1
  Cu  Cu102  1  0.82500683  0.83459508  0.75344625  1
  Cu  Cu103  1  0.49962744  0.83751007  0.24670877  1
  Cu  Cu104  1  0.33379582  -0.00405124  -0.00022005  1
  Cu  Cu105  1  0.82748757  0.50062857  0.24676693  1
  Cu  Cu106  1  0.50254445  0.50782575  0.76398026  1
  Cu  Cu107  1  -0.00119426  -0.00202039  0.50202268  1
  Cu  Cu108  1  0.33788719  0.67624689  0.00519691  1
  Cu  Cu109  1  0.50368320  0.16362870  0.23958425  1
  Cu  Cu110  1  0.16496797  0.15914849  0.75530302  1
  Cu  Cu111  1  0.16741288  0.50562854  0.24434690  1
  Cu  Cu112  1  0.49958050  0.15804291  0.75275252  1
  Cu  Cu113  1  0.65976065  -0.00408726  0.49959094  1
  Cu  Cu114  1  0.50417116  0.49847887  0.23840839  1
  Se  Se115  1  0.08412106  0.08451884  0.05664029  1
  Se  Se116  1  0.08501131  0.08037065  0.55272752  1
  Se  Se117  1  0.08107713  0.41481435  0.06559376  1
  Se  Se118  1  0.07610992  0.40679197  0.56599052  1
  Se  Se119  1  0.08575628  0.75723731  0.05106027  1
  Se  Se120  1  0.07118011  0.74070844  0.55408764  1
  Se  Se121  1  0.41779070  0.07705078  0.05415913  1
  Se  Se122  1  0.42254033  0.08266886  0.55685232  1
  Se  Se123  1  0.41477558  0.41489716  0.05116757  1
  Se  Se124  1  0.41183586  0.40745397  0.56085222  1
  Se  Se125  1  0.42292956  0.75767643  0.05774087  1
  Se  Se126  1  0.42175360  0.75633807  0.54691848  1
  Se  Se127  1  0.76366085  0.09597611  0.04359890  1
  Se  Se128  1  0.74337916  0.07538817  0.56056609  1
  Se  Se129  1  0.76434616  0.44510731  0.05029640  1
  Se  Se130  1  0.74652971  0.41865782  0.54653708  1
  Se  Se131  1  0.73952033  0.73782382  0.06023005  1
  Se  Se132  1  0.74614803  0.75093360  0.55304914  1
  Se  Se133  1  0.25055086  0.23879166  0.05530905  1
  Se  Se134  1  0.24946513  0.24136714  0.55354823  1
  Se  Se135  1  0.25498675  0.59134110  0.06233621  1
  Se  Se136  1  0.26150428  0.59549371  0.55183734  1
  Se  Se137  1  0.24810031  0.91729297  0.05549955  1
  Se  Se138  1  0.25744557  0.92352799  0.56091850  1
  Se  Se139  1  0.56833789  0.22372353  0.04183914  1
  Se  Se140  1  0.58465606  0.24705771  0.54655862  1
  Se  Se141  1  0.56781757  0.57148855  0.05508340  1
  Se  Se142  1  0.58788364  0.58885638  0.55952274  1
  Se  Se143  1  0.59588476  0.91785150  0.04910026  1
  Se  Se144  1  0.57961551  0.91392596  0.55752599  1
  Se  Se145  1  0.92114778  0.25982816  0.04245889  1
  Se  Se146  1  0.91859714  0.25339354  0.56324953  1
  Se  Se147  1  0.91484398  0.59783004  0.06005731  1
  Se  Se148  1  0.90889891  0.57661883  0.55139932  1
  Se  Se149  1  0.92004265  0.92424135  0.06228314  1
  Se  Se150  1  0.91221796  0.91492761  0.55111142  1
  Se  Se151  1  0.08677451  0.24610646  0.45034850  1
  Se  Se152  1  0.08740436  0.25074071  0.95865884  1
  Se  Se153  1  0.07800211  0.58750884  0.43860471  1
  Se  Se154  1  0.07604635  0.59194467  0.93892907  1
  Se  Se155  1  0.07530086  0.92103739  0.43525799  1
  Se  Se156  1  0.08581945  0.91483356  0.94857748  1
  Se  Se157  1  0.42275338  0.24167904  0.44479418  1
  Se  Se158  1  0.41067643  0.25042758  0.94550046  1
  Se  Se159  1  0.41756220  0.58963059  0.43307204  1
  Se  Se160  1  0.41702736  0.58871910  0.95205028  1
  Se  Se161  1  0.41936849  0.91878546  0.44494578  1
  Se  Se162  1  0.42190128  0.91713009  0.94642023  1
  Se  Se163  1  0.74457761  0.24941291  0.43154037  1
  Se  Se164  1  0.72171752  0.27762631  0.95210035  1
  Se  Se165  1  0.75013569  0.58043787  0.44553244  1
  Se  Se166  1  0.76974522  0.55997256  0.95521402  1
  Se  Se167  1  0.74726201  0.91794111  0.44588915  1
  Se  Se168  1  0.74878320  0.92374718  0.93813087  1
  Se  Se169  1  0.24969610  0.08304160  0.44664939  1
  Se  Se170  1  0.24830986  0.08124170  0.94791810  1
  Se  Se171  1  0.26248397  0.40676529  0.44355648  1
  Se  Se172  1  0.25851989  0.41165389  0.93970065  1
  Se  Se173  1  0.25411852  0.75106587  0.43322268  1
  Se  Se174  1  0.25030206  0.75558356  0.95269956  1
  Se  Se175  1  0.58554010  0.08471599  0.44332953  1
  Se  Se176  1  0.56451143  0.10132053  0.95160943  1
  Se  Se177  1  0.58943230  0.41104589  0.43157804  1
  Se  Se178  1  0.56903653  0.43342408  0.95689872  1
  Se  Se179  1  0.57877605  0.75266127  0.44632812  1
  Se  Se180  1  0.58885712  0.76132050  0.95917604  1
  Se  Se181  1  0.92069716  0.07482295  0.43633111  1
  Se  Se182  1  0.91735724  0.07899219  0.94672312  1
  Se  Se183  1  0.91601843  0.41378714  0.44998043  1
  Se  Se184  1  0.93531654  0.40656207  0.95744936  1
  Se  Se185  1  0.90840616  0.75062967  0.44345666  1
  Se  Se186  1  0.91839076  0.74618715  0.93826519  1
  Se  Se187  1  0.24658016  0.24579943  0.30919695  1
  Se  Se188  1  0.24325762  0.24320674  0.81362109  1
  Se  Se189  1  0.25370370  0.58744104  0.29611280  1
  Se  Se190  1  0.24452317  0.57623841  0.80437683  1
  Se  Se191  1  0.25329744  0.92232325  0.29647124  1
  Se  Se192  1  0.25370670  0.91842547  0.80715041  1
  Se  Se193  1  0.58568611  0.25019476  0.29240223  1
  Se  Se194  1  0.57992092  0.23614892  0.81391589  1
  Se  Se195  1  0.58310454  0.58123270  0.29700907  1
  Se  Se196  1  0.59003125  0.58747437  0.81490316  1
  Se  Se197  1  0.58362855  0.91769226  0.30460685  1
  Se  Se198  1  0.58756501  0.92232158  0.80646419  1
  Se  Se199  1  0.90532253  0.24154908  0.30202959  1
  Se  Se200  1  0.90502331  0.24043171  0.82353327  1
  Se  Se201  1  0.91206023  0.58213193  0.30228832  1
  Se  Se202  1  0.90826220  0.58726955  0.81246262  1
  Se  Se203  1  0.90473252  0.91186290  0.30658705  1
  Se  Se204  1  0.91709590  0.91685742  0.79799394  1
  Se  Se205  1  0.08615541  0.08913395  0.30788760  1
  Se  Se206  1  0.07823591  0.08045009  0.80925091  1
  Se  Se207  1  0.08921969  0.42506518  0.30687616  1
  Se  Se208  1  0.09112537  0.42854235  0.80965831  1
  Se  Se209  1  0.08355409  0.75388488  0.29810133  1
  Se  Se210  1  0.09097346  0.75614397  0.81165866  1
  Se  Se211  1  0.42206230  0.08605358  0.30081661  1
  Se  Se212  1  0.41495007  0.07467833  0.80374592  1
  Se  Se213  1  0.42687840  0.42235712  0.30625398  1
  Se  Se214  1  0.43005503  0.41654522  0.81851666  1
  Se  Se215  1  0.41415598  0.75131295  0.29844803  1
  Se  Se216  1  0.43139587  0.75470351  0.81785024  1
  Se  Se217  1  0.74608643  0.08088041  0.29075893  1
  Se  Se218  1  0.74213480  0.08635746  0.81227055  1
  Se  Se219  1  0.74817156  0.41173072  0.29947309  1
  Se  Se220  1  0.75696136  0.41910787  0.81624859  1
  Se  Se221  1  0.72808287  0.73424472  0.30767996  1
  Se  Se222  1  0.74416874  0.74977702  0.80644458  1
  Se  Se223  1  0.25180842  0.08700440  0.20320904  1
  Se  Se224  1  0.25155830  0.08084878  0.70015820  1
  Se  Se225  1  0.24554503  0.42136066  0.18768850  1
  Se  Se226  1  0.24348562  0.42352172  0.69858209  1
  Se  Se227  1  0.25111608  0.75044881  0.19338366  1
  Se  Se228  1  0.24261617  0.75758077  0.68916207  1
  Se  Se229  1  0.58767804  0.07701203  0.18862742  1
  Se  Se230  1  0.58656703  0.07972936  0.69785588  1
  Se  Se231  1  0.58722593  0.41272917  0.18749839  1
  Se  Se232  1  0.57800237  0.42580760  0.69872701  1
  Se  Se233  1  0.58385130  0.75224374  0.19620382  1
  Se  Se234  1  0.58549945  0.74941364  0.69868380  1
  Se  Se235  1  0.90864187  0.08850158  0.18244646  1
  Se  Se236  1  0.91613761  0.08227510  0.70126148  1
  Se  Se237  1  0.89821825  0.41673257  0.18229507  1
  Se  Se238  1  0.90930053  0.41894388  0.69824582  1
  Se  Se239  1  0.92369974  0.74888664  0.20466981  1
  Se  Se240  1  0.90468390  0.75811441  0.68706409  1
  Se  Se241  1  0.08637352  0.23712836  0.19546113  1
  Se  Se242  1  0.08640095  0.24293114  0.69546444  1
  Se  Se243  1  0.07799317  0.58765113  0.19703954  1
  Se  Se244  1  0.09150055  0.57264785  0.69676479  1
  Se  Se245  1  0.08865344  0.91468643  0.18458637  1
  Se  Se246  1  0.08005787  0.91786189  0.69893099  1
  Se  Se247  1  0.43042845  0.24983783  0.17835713  1
  Se  Se248  1  0.42741712  0.24469995  0.69092565  1
  Se  Se249  1  0.41769525  0.58883271  0.19702462  1
  Se  Se250  1  0.42605313  0.57858584  0.69386238  1
  Se  Se251  1  0.41725220  0.92223251  0.19377664  1
  Se  Se252  1  0.41652830  0.91553353  0.70109069  1
  Se  Se253  1  0.74077804  0.25208150  0.18121682  1
  Se  Se254  1  0.75950331  0.23966093  0.69214169  1
  Se  Se255  1  0.74345889  0.58795363  0.19797455  1
  Se  Se256  1  0.74634024  0.58480921  0.69768791  1
  Se  Se257  1  0.76757896  0.89919041  0.19293964  1
  Se  Se258  1  0.74655241  0.91958319  0.69611397  1
