# generated using pymatgen
data_In86Cu29Se144
_symmetry_space_group_name_H-M   'P 1'
_cell_length_a   17.58509210
_cell_length_b   17.58162615
_cell_length_c   23.44417977
_cell_angle_alpha   89.98986055
_cell_angle_beta   89.98754073
_cell_angle_gamma   90.01332033
_symmetry_Int_Tables_number   1
_chemical_formula_structural   In86Cu29Se144
_chemical_formula_sum   'In86 Cu29 Se144'
_cell_volume   7248.34243034
_cell_formula_units_Z   1
loop_
 _symmetry_equiv_pos_site_id
 _symmetry_equiv_pos_as_xyz
  1  'x, y, z'
loop_
 _atom_site_type_symbol
 _atom_site_label
 _atom_site_symmetry_multiplicity
 _atom_site_fract_x
 _atom_site_fract_y
 _atom_site_fract_z
 _atom_site_occupancy
  In  In0  1  -0.00330361  0.17180569  0.13283675  1
  In  In1  1  0.00032643  0.16577600  0.62349118  1
  In  In2  1  -0.00772857  0.50290761  0.12926412  1
  In  In3  1  0.00933940  0.48960334  0.63277679  1
  In  In4  1  -0.00212007  0.84090470  0.12192367  1
  In  In5  1  -0.01019973  0.84583366  0.63963294  1
  In  In6  1  0.32755929  0.16092984  0.12891824  1
  In  In7  1  0.33366149  0.16363652  0.62218156  1
  In  In8  1  0.34486309  0.51511009  0.12773743  1
  In  In9  1  0.32124873  0.51067627  0.62853124  1
  In  In10  1  0.33470973  0.83535415  0.12653802  1
  In  In11  1  0.32040201  0.83932871  0.64258414  1
  In  In12  1  0.66744877  0.15112269  0.12661885  1
  In  In13  1  0.65750129  0.15109835  0.61854177  1
  In  In14  1  0.67441436  0.49721573  0.12128730  1
  In  In15  1  0.67567634  0.50664102  0.63180204  1
  In  In16  1  0.67901171  0.84406733  0.11182224  1
  In  In17  1  0.67249894  0.83178486  0.63334312  1
  In  In18  1  0.17354129  0.01079873  0.37422590  1
  In  In19  1  0.17040930  -0.00994227  0.86097919  1
  In  In20  1  0.16067404  0.33435051  0.38206904  1
  In  In21  1  0.16310220  0.32925518  0.86207690  1
  In  In22  1  0.16919908  0.65267475  0.37981410  1
  In  In23  1  0.15775555  0.67597230  0.85822436  1
  In  In24  1  0.50162898  0.00073797  0.37214879  1
  In  In25  1  0.48880065  -0.01843355  0.87060418  1
  In  In26  1  0.48547146  0.32749922  0.37498083  1
  In  In27  1  0.49328279  0.34212307  0.87106519  1
  In  In28  1  0.49713768  0.68072938  0.37205248  1
  In  In29  1  0.51743087  0.68218019  0.86955294  1
  In  In30  1  0.83497783  -0.00231516  0.37354510  1
  In  In31  1  0.83308608  0.00344683  0.87308669  1
  In  In32  1  0.83045024  0.31481325  0.37338548  1
  In  In33  1  0.84620645  0.32402917  0.87910917  1
  In  In34  1  0.84279591  0.67069217  0.37895012  1
  In  In35  1  0.83686738  0.67200809  0.88529361  1
  In  In36  1  0.00099868  0.16356324  0.37586764  1
  In  In37  1  -0.00582305  0.15626607  0.86355795  1
  In  In38  1  0.02165368  0.49470752  0.37315619  1
  In  In39  1  -0.00328100  0.49832348  0.87162842  1
  In  In40  1  -0.01736527  0.83196891  0.37853519  1
  In  In41  1  -0.01282297  0.82528445  0.86011178  1
  In  In42  1  0.33773496  0.15024354  0.39399353  1
  In  In43  1  0.32419470  0.15622426  0.86230435  1
  In  In44  1  0.31676663  0.49707820  0.37040361  1
  In  In45  1  0.33123533  0.50167582  0.86443723  1
  In  In46  1  0.33370550  0.83871501  0.37041234  1
  In  In47  1  0.34723190  0.84392447  0.86745622  1
  In  In48  1  0.67991353  0.15409299  0.38154233  1
  In  In49  1  0.68259044  0.16674965  0.87695763  1
  In  In50  1  0.67244969  0.50790065  0.37383501  1
  In  In51  1  0.67497914  0.52106935  0.87717090  1
  In  In52  1  0.66236703  0.84765172  0.37497617  1
  In  In53  1  0.66764596  0.83219355  0.88297293  1
  In  In54  1  0.16112090  -0.00384545  0.13527337  1
  In  In55  1  0.15821865  0.00072754  0.63194719  1
  In  In56  1  0.16736230  0.31731509  0.12904475  1
  In  In57  1  0.16352006  0.33314726  0.62118924  1
  In  In58  1  0.16914782  0.67682868  0.12644564  1
  In  In59  1  0.16950602  0.66053157  0.63229530  1
  In  In60  1  0.50181804  -0.00300747  0.12898212  1
  In  In61  1  0.49119193  0.01264924  0.63215952  1
  In  In62  1  0.50280838  0.34369058  0.12504561  1
  In  In63  1  0.49732145  0.31189018  0.62032897  1
  In  In64  1  0.48610786  0.67145070  0.12152774  1
  In  In65  1  0.49518402  0.67554717  0.63392534  1
  In  In66  1  0.83274038  0.00000108  0.12230113  1
  In  In67  1  0.83468631  -0.00007374  0.62728377  1
  In  In68  1  0.84419228  0.33995324  0.11991669  1
  In  In69  1  0.84776192  0.33028784  0.62759634  1
  In  In70  1  0.83749848  0.67166011  0.09736826  1
  In  In71  1  0.82520832  0.67743853  0.63870403  1
  In  In72  1  0.15848152  0.50236952  -0.00474151  1
  In  In73  1  0.49818267  0.83871067  0.49989496  1
  In  In74  1  0.84404252  0.49206380  0.51057945  1
  In  In75  1  0.16046088  0.84049566  0.51197017  1
  In  In76  1  0.66515141  0.33450015  0.75082977  1
  In  In77  1  0.49604894  0.49765589  0.49402757  1
  In  In78  1  0.66178079  0.66904146  0.24008994  1
  In  In79  1  0.00417370  0.67009346  0.24416613  1
  In  In80  1  0.15873019  0.83318596  -0.00434703  1
  In  In81  1  0.50559385  0.50903713  -0.00171229  1
  In  In82  1  0.15987075  0.15393292  -0.01415576  1
  In  In83  1  0.32455866  0.33340000  0.25546898  1
  In  In84  1  0.50275447  0.16297289  0.00568142  1
  In  In85  1  0.66561243  0.32957859  0.24233146  1
  Cu  Cu86  1  0.33293853  0.32810341  -0.00593732  1
  Cu  Cu87  1  0.00025229  0.32801309  0.50062654  1
  Cu  Cu88  1  0.82601763  0.83685647  0.24677014  1
  Cu  Cu89  1  -0.00940384  0.00063414  -0.00256918  1
  Cu  Cu90  1  0.49966217  0.16101077  0.74629107  1
  Cu  Cu91  1  -0.00632848  0.33379931  0.00074891  1
  Cu  Cu92  1  0.49433209  0.83974180  0.24772898  1
  Cu  Cu93  1  0.15959275  0.49759742  0.74726700  1
  Cu  Cu94  1  0.16660981  0.17233432  0.74109582  1
  Cu  Cu95  1  0.49463693  0.49762166  0.74984924  1
  Cu  Cu96  1  0.32479739  0.66756588  0.50500964  1
  Cu  Cu97  1  0.67799139  0.33747310  -0.00115547  1
  Cu  Cu98  1  0.51056836  0.82877757  0.75307959  1
  Cu  Cu99  1  0.67332378  -0.00426310  0.50086627  1
  Cu  Cu100  1  0.82878319  0.83826430  0.75830759  1
  Cu  Cu101  1  0.33590184  0.67600922  -0.00509371  1
  Cu  Cu102  1  0.32959570  0.33005037  0.50167868  1
  Cu  Cu103  1  0.66995700  0.00257913  -0.00252154  1
  Cu  Cu104  1  0.83458241  0.16425363  0.74780457  1
  Cu  Cu105  1  -0.00274513  0.66872816  0.50285109  1
  Cu  Cu106  1  0.83396248  0.50818138  0.75511413  1
  Cu  Cu107  1  0.16702994  0.83227318  0.25181206  1
  Cu  Cu108  1  0.49734182  0.16385207  0.25472585  1
  Cu  Cu109  1  0.16269299  0.16153254  0.25573283  1
  Cu  Cu110  1  0.83867195  0.49869044  0.24437275  1
  Cu  Cu111  1  -0.00462048  0.00290504  0.50253725  1
  Cu  Cu112  1  0.66490474  0.32314839  0.49921117  1
  Cu  Cu113  1  0.67237525  0.66832136  0.51186104  1
  Cu  Cu114  1  0.83964816  0.15709689  0.25296982  1
  Se  Se115  1  0.07576235  0.07536717  0.05880853  1
  Se  Se116  1  0.08334084  0.07981706  0.55639219  1
  Se  Se117  1  0.08189107  0.40476791  0.06026768  1
  Se  Se118  1  0.07961028  0.41768254  0.55191649  1
  Se  Se119  1  0.07162884  0.73951711  0.05620908  1
  Se  Se120  1  0.07269737  0.74620400  0.56843288  1
  Se  Se121  1  0.40504198  0.07506455  0.05810051  1
  Se  Se122  1  0.42447417  0.08844935  0.55418767  1
  Se  Se123  1  0.40763131  0.41349896  0.05292073  1
  Se  Se124  1  0.41074831  0.41277328  0.56096057  1
  Se  Se125  1  0.41435414  0.75913340  0.05081802  1
  Se  Se126  1  0.40618712  0.75034882  0.56072588  1
  Se  Se127  1  0.75246529  0.08620640  0.05155491  1
  Se  Se128  1  0.75527557  0.08154903  0.55383370  1
  Se  Se129  1  0.75936513  0.42161185  0.05197005  1
  Se  Se130  1  0.73968251  0.40494942  0.56173138  1
  Se  Se131  1  0.74255628  0.75131674  0.04133798  1
  Se  Se132  1  0.75507880  0.75484741  0.55989334  1
  Se  Se133  1  0.25209032  0.24586565  0.05031411  1
  Se  Se134  1  0.24664181  0.24713403  0.55526024  1
  Se  Se135  1  0.25657219  0.59215020  0.05296548  1
  Se  Se136  1  0.23990534  0.58159479  0.55254086  1
  Se  Se137  1  0.24531509  0.92201921  0.05897912  1
  Se  Se138  1  0.26033855  0.92698535  0.56284429  1
  Se  Se139  1  0.59490287  0.26177886  0.06026859  1
  Se  Se140  1  0.58051073  0.23845762  0.54869107  1
  Se  Se141  1  0.59259341  0.59584445  0.06117383  1
  Se  Se142  1  0.58384339  0.58612143  0.56080752  1
  Se  Se143  1  0.58245851  0.92595607  0.05302441  1
  Se  Se144  1  0.58923092  0.92165289  0.56301347  1
  Se  Se145  1  0.91841925  0.24413338  0.05538262  1
  Se  Se146  1  0.91460254  0.24636001  0.55246679  1
  Se  Se147  1  0.92841719  0.57695618  0.04987014  1
  Se  Se148  1  0.92108981  0.59107458  0.56968353  1
  Se  Se149  1  0.91146150  0.91413635  0.05118937  1
  Se  Se150  1  0.91841768  0.91560193  0.55815721  1
  Se  Se151  1  0.08344872  0.24419719  0.44765574  1
  Se  Se152  1  0.07310017  0.25665328  0.93699472  1
  Se  Se153  1  0.07851988  0.58359875  0.45066148  1
  Se  Se154  1  0.07796254  0.59771755  0.93565740  1
  Se  Se155  1  0.07403473  0.92041081  0.44173482  1
  Se  Se156  1  0.07335468  0.92604684  0.93508440  1
  Se  Se157  1  0.41841696  0.24875499  0.45198379  1
  Se  Se158  1  0.41255852  0.24654198  0.93693247  1
  Se  Se159  1  0.40726789  0.59526785  0.43992252  1
  Se  Se160  1  0.41152523  0.59024768  0.93522854  1
  Se  Se161  1  0.40509438  0.92783844  0.44431325  1
  Se  Se162  1  0.41920823  0.90871696  0.94995981  1
  Se  Se163  1  0.75537309  0.24305969  0.45072059  1
  Se  Se164  1  0.75773148  0.24839748  0.94905350  1
  Se  Se165  1  0.75105228  0.58667983  0.45062395  1
  Se  Se166  1  0.75399078  0.58674974  0.95334648  1
  Se  Se167  1  0.75417077  0.91264391  0.44520831  1
  Se  Se168  1  0.75519275  0.92089442  0.94490334  1
  Se  Se169  1  0.23724163  0.08307431  0.45619476  1
  Se  Se170  1  0.25989413  0.06474135  0.93851728  1
  Se  Se171  1  0.25033612  0.41667937  0.44784921  1
  Se  Se172  1  0.25141581  0.40929305  0.93726995  1
  Se  Se173  1  0.24927211  0.75304621  0.44447592  1
  Se  Se174  1  0.25058556  0.74756834  0.93333493  1
  Se  Se175  1  0.58712556  0.07495148  0.44455983  1
  Se  Se176  1  0.58633570  0.07954394  0.93700844  1
  Se  Se177  1  0.59394984  0.40766007  0.43701701  1
  Se  Se178  1  0.59269847  0.41147965  0.93901757  1
  Se  Se179  1  0.59443713  0.74326500  0.44583025  1
  Se  Se180  1  0.58313244  0.75010827  0.95140120  1
  Se  Se181  1  0.91384827  0.08249797  0.44375012  1
  Se  Se182  1  0.91492358  0.09005246  0.94281193  1
  Se  Se183  1  0.92187225  0.40912593  0.43677847  1
  Se  Se184  1  0.91653658  0.42022269  0.94555686  1
  Se  Se185  1  0.91030125  0.75212366  0.45507789  1
  Se  Se186  1  0.92773456  0.75832015  0.94564600  1
  Se  Se187  1  0.24742438  0.23689969  0.31762157  1
  Se  Se188  1  0.25300145  0.25150417  0.79687365  1
  Se  Se189  1  0.25235150  0.59159520  0.30272719  1
  Se  Se190  1  0.24264543  0.58208090  0.80017942  1
  Se  Se191  1  0.24688190  0.91982901  0.30491183  1
  Se  Se192  1  0.26534850  0.92087185  0.79598104  1
  Se  Se193  1  0.58129461  0.24439636  0.31172012  1
  Se  Se194  1  0.57619239  0.24134144  0.81105173  1
  Se  Se195  1  0.57723436  0.58140056  0.30836870  1
  Se  Se196  1  0.57957459  0.57767551  0.80435881  1
  Se  Se197  1  0.58219608  0.91929718  0.30050925  1
  Se  Se198  1  0.59023417  0.91426217  0.80790827  1
  Se  Se199  1  0.91952598  0.24663032  0.30310374  1
  Se  Se200  1  0.91711423  0.25086210  0.79897440  1
  Se  Se201  1  0.91561570  0.57745283  0.30877171  1
  Se  Se202  1  0.91583411  0.59114898  0.80965737  1
  Se  Se203  1  0.91452878  0.91278892  0.30170553  1
  Se  Se204  1  0.91765035  0.92828601  0.80021435  1
  Se  Se205  1  0.07723779  0.07582747  0.30508934  1
  Se  Se206  1  0.09071706  0.08525607  0.79946156  1
  Se  Se207  1  0.09891000  0.41628587  0.30249065  1
  Se  Se208  1  0.07575929  0.41479708  0.80083997  1
  Se  Se209  1  0.08705846  0.75466131  0.31519759  1
  Se  Se210  1  0.09848174  0.78076800  0.79390032  1
  Se  Se211  1  0.41145963  0.08622011  0.30989008  1
  Se  Se212  1  0.41901983  0.07696211  0.80221629  1
  Se  Se213  1  0.42344368  0.42670222  0.30609982  1
  Se  Se214  1  0.40926221  0.41145254  0.79756460  1
  Se  Se215  1  0.41350621  0.75438236  0.30095422  1
  Se  Se216  1  0.41963060  0.74666778  0.80241101  1
  Se  Se217  1  0.74915830  0.07760300  0.30265484  1
  Se  Se218  1  0.74881013  0.08403979  0.80111616  1
  Se  Se219  1  0.75692488  0.42117264  0.30579790  1
  Se  Se220  1  0.75549214  0.42053769  0.81336551  1
  Se  Se221  1  0.75242221  0.75146978  0.30825839  1
  Se  Se222  1  0.75191881  0.75046271  0.81313584  1
  Se  Se223  1  0.24713139  0.08224056  0.19942066  1
  Se  Se224  1  0.25016234  0.08408024  0.69337853  1
  Se  Se225  1  0.24956280  0.42163472  0.18342688  1
  Se  Se226  1  0.24471791  0.41675145  0.69231654  1
  Se  Se227  1  0.25181553  0.75259229  0.19684844  1
  Se  Se228  1  0.26851707  0.72565606  0.69781363  1
  Se  Se229  1  0.58073184  0.08336037  0.19915957  1
  Se  Se230  1  0.58999665  0.07830057  0.70023902  1
  Se  Se231  1  0.57648468  0.43435178  0.19553101  1
  Se  Se232  1  0.57349137  0.41924684  0.68632509  1
  Se  Se233  1  0.57663592  0.76602205  0.18415591  1
  Se  Se234  1  0.59194879  0.74332794  0.69975123  1
  Se  Se235  1  0.91943880  0.07567058  0.19417615  1
  Se  Se236  1  0.92075569  0.08219226  0.69485732  1
  Se  Se237  1  0.92285567  0.40990963  0.19845108  1
  Se  Se238  1  0.91128948  0.42116676  0.69984465  1
  Se  Se239  1  0.90297931  0.75161852  0.18647876  1
  Se  Se240  1  0.91427918  0.75348953  0.70594343  1
  Se  Se241  1  0.08344152  0.24884502  0.20307735  1
  Se  Se242  1  0.07825611  0.25450786  0.69217468  1
  Se  Se243  1  0.09680315  0.57541502  0.19172217  1
  Se  Se244  1  0.07549679  0.58730761  0.69985636  1
  Se  Se245  1  0.07690642  0.90986657  0.19984830  1
  Se  Se246  1  0.10244905  0.89706440  0.70027824  1
  Se  Se247  1  0.42385538  0.24762028  0.19172953  1
  Se  Se248  1  0.41516315  0.24593031  0.69625513  1
  Se  Se249  1  0.42356560  0.59034674  0.19937077  1
  Se  Se250  1  0.41494487  0.58275456  0.69550072  1
  Se  Se251  1  0.40887332  0.92444308  0.19697346  1
  Se  Se252  1  0.42764566  0.91035312  0.69720716  1
  Se  Se253  1  0.76190233  0.23931461  0.18957191  1
  Se  Se254  1  0.75036897  0.24384432  0.68795534  1
  Se  Se255  1  0.76508701  0.58511712  0.18594400  1
  Se  Se256  1  0.74483704  0.58895765  0.70591007  1
  Se  Se257  1  0.74522718  0.92059576  0.19251516  1
  Se  Se258  1  0.75072783  0.92098144  0.69936408  1
