# generated using pymatgen
data_In86Cu29Se144
_symmetry_space_group_name_H-M   'P 1'
_cell_length_a   17.60171751
_cell_length_b   17.60382269
_cell_length_c   23.45925377
_cell_angle_alpha   90.05623968
_cell_angle_beta   90.04910967
_cell_angle_gamma   89.97980012
_symmetry_Int_Tables_number   1
_chemical_formula_structural   In86Cu29Se144
_chemical_formula_sum   'In86 Cu29 Se144'
_cell_volume   7269.01943423
_cell_formula_units_Z   1
loop_
 _symmetry_equiv_pos_site_id
 _symmetry_equiv_pos_as_xyz
  1  'x, y, z'
loop_
 _atom_site_type_symbol
 _atom_site_label
 _atom_site_symmetry_multiplicity
 _atom_site_fract_x
 _atom_site_fract_y
 _atom_site_fract_z
 _atom_site_occupancy
  In  In0  1  0.00474175  0.16708756  0.12395563  1
  In  In1  1  -0.00631260  0.15667345  0.61624078  1
  In  In2  1  -0.00590252  0.48789975  0.12963365  1
  In  In3  1  0.00636847  0.50717702  0.61729751  1
  In  In4  1  0.00384916  0.81993901  0.12235583  1
  In  In5  1  -0.01037772  0.84675308  0.63092657  1
  In  In6  1  0.32602595  0.17166352  0.12956058  1
  In  In7  1  0.32574614  0.15896302  0.62707052  1
  In  In8  1  0.32760483  0.48892411  0.12213719  1
  In  In9  1  0.34455207  0.51078917  0.61756451  1
  In  In10  1  0.34786207  0.84094476  0.11231421  1
  In  In11  1  0.35202117  0.83014992  0.64338938  1
  In  In12  1  0.66429589  0.15184683  0.11630742  1
  In  In13  1  0.68361771  0.14881805  0.64491562  1
  In  In14  1  0.66660474  0.50769129  0.12313466  1
  In  In15  1  0.66736701  0.50327352  0.62638140  1
  In  In16  1  0.65635193  0.84199905  0.11715688  1
  In  In17  1  0.65946056  0.83111449  0.63075466  1
  In  In18  1  0.18407780  0.00166555  0.37436990  1
  In  In19  1  0.16556619  -0.00290749  0.87785160  1
  In  In20  1  0.16599009  0.33162041  0.37527627  1
  In  In21  1  0.15446093  0.32999991  0.88012233  1
  In  In22  1  0.15495578  0.66398761  0.37871563  1
  In  In23  1  0.18883350  0.68865424  0.85760069  1
  In  In24  1  0.49413605  0.00278065  0.38157938  1
  In  In25  1  0.46335486  -0.02894828  0.82624028  1
  In  In26  1  0.49915877  0.34162954  0.37883733  1
  In  In27  1  0.51587897  0.32801172  0.87491274  1
  In  In28  1  0.50498085  0.66492231  0.38655264  1
  In  In29  1  0.49592230  0.66968875  0.87406869  1
  In  In30  1  0.83232388  -0.00093404  0.38519473  1
  In  In31  1  0.83449700  -0.00017318  0.87006432  1
  In  In32  1  0.84447195  0.33250106  0.37662039  1
  In  In33  1  0.81638470  0.32690688  0.87221897  1
  In  In34  1  0.82777496  0.67055624  0.38755755  1
  In  In35  1  0.83324795  0.67176631  0.86159143  1
  In  In36  1  -0.01377630  0.18364211  0.37950317  1
  In  In37  1  0.00754670  0.15407826  0.88546057  1
  In  In38  1  0.00835758  0.49729900  0.38236956  1
  In  In39  1  -0.01184240  0.50115514  0.87206821  1
  In  In40  1  -0.00772012  0.82817115  0.37800753  1
  In  In41  1  0.00907179  0.84229338  0.86670170  1
  In  In42  1  0.32443328  0.15953891  0.37429333  1
  In  In43  1  0.33299286  0.14727689  0.87166745  1
  In  In44  1  0.34351974  0.49164671  0.38301522  1
  In  In45  1  0.34028009  0.52125711  0.87386948  1
  In  In46  1  0.33647751  0.84477063  0.37401639  1
  In  In47  1  0.33431980  0.82653272  0.87785272  1
  In  In48  1  0.67294912  0.16436544  0.38433797  1
  In  In49  1  0.66497846  0.16747418  0.86300239  1
  In  In50  1  0.66663526  0.49564157  0.38959631  1
  In  In51  1  0.65509838  0.49541360  0.86915059  1
  In  In52  1  0.67055506  0.83190055  0.39028049  1
  In  In53  1  0.63910667  0.81968754  0.84627185  1
  In  In54  1  0.17717524  0.00934462  0.11664081  1
  In  In55  1  0.16699154  0.00185453  0.63158234  1
  In  In56  1  0.17359828  0.32461745  0.13214496  1
  In  In57  1  0.16438706  0.32639509  0.61614709  1
  In  In58  1  0.16607410  0.67043200  0.11561241  1
  In  In59  1  0.17638667  0.66680368  0.63025186  1
  In  In60  1  0.49957315  -0.01295012  0.12072099  1
  In  In61  1  0.53220378  -0.02305413  0.66255963  1
  In  In62  1  0.48530861  0.33187037  0.12656541  1
  In  In63  1  0.50499199  0.34730099  0.62176695  1
  In  In64  1  0.49620000  0.66354416  0.10544088  1
  In  In65  1  0.50315235  0.67286183  0.63314326  1
  In  In66  1  0.81740162  0.00301905  0.12356720  1
  In  In67  1  0.83155685  0.00347297  0.61981670  1
  In  In68  1  0.84987935  0.32489342  0.13960141  1
  In  In69  1  0.82425015  0.32387448  0.61522254  1
  In  In70  1  0.83826437  0.65881721  0.12619072  1
  In  In71  1  0.83193473  0.66934028  0.62625786  1
  In  In72  1  0.33256535  0.33716936  0.74818696  1
  In  In73  1  0.50029235  0.16000818  -0.01022029  1
  In  In74  1  0.66513057  0.66697487  0.25402931  1
  In  In75  1  -0.00463752  0.33678849  0.74239660  1
  In  In76  1  0.33084167  0.66056443  0.24571562  1
  In  In77  1  0.66533758  -0.00339641  0.25736844  1
  In  In78  1  0.66959887  0.32846839  0.26062912  1
  In  In79  1  -0.00260085  0.00438341  0.25347964  1
  In  In80  1  0.17011896  0.83265079  0.50097990  1
  In  In81  1  0.82834640  0.83827776  -0.00193004  1
  In  In82  1  0.83137496  0.49491467  0.00412880  1
  In  In83  1  -0.00265535  0.66295025  0.24900545  1
  In  In84  1  0.17069408  0.50456892  -0.00355297  1
  In  In85  1  0.50485882  0.15874658  0.51134476  1
  Cu  Cu86  1  0.84495929  0.16691938  0.74701233  1
  Cu  Cu87  1  0.16272501  0.15835025  0.75456118  1
  Cu  Cu88  1  0.49533546  0.49090433  0.25182126  1
  Cu  Cu89  1  0.01035199  0.67178208  -0.00899036  1
  Cu  Cu90  1  0.66324056  -0.00422626  -0.01340480  1
  Cu  Cu91  1  0.33680571  0.66788430  0.50905971  1
  Cu  Cu92  1  0.66073573  0.66994389  0.51145681  1
  Cu  Cu93  1  0.83028409  0.50650551  0.74700865  1
  Cu  Cu94  1  0.16567706  0.49138151  0.25357826  1
  Cu  Cu95  1  0.66876319  0.33039557  -0.00343597  1
  Cu  Cu96  1  0.16744639  0.50639698  0.74363335  1
  Cu  Cu97  1  0.66518424  0.66637245  -0.01001153  1
  Cu  Cu98  1  0.32935371  0.32794245  0.50064342  1
  Cu  Cu99  1  0.00354378  0.33726524  0.49859244  1
  Cu  Cu100  1  0.66610657  0.33632869  0.50186529  1
  Cu  Cu101  1  0.48849545  0.16111244  0.25308449  1
  Cu  Cu102  1  0.16397419  0.17066734  0.25024186  1
  Cu  Cu103  1  0.33388960  0.33391149  0.00409717  1
  Cu  Cu104  1  0.49462722  0.83223388  0.24557577  1
  Cu  Cu105  1  0.83333964  0.83653398  0.74441576  1
  Cu  Cu106  1  0.50149093  0.50491369  0.74665177  1
  Cu  Cu107  1  -0.00135630  0.32366276  0.00556222  1
  Cu  Cu108  1  0.00397691  0.00425298  0.50417732  1
  Cu  Cu109  1  0.16318815  0.83570616  0.75056863  1
  Cu  Cu110  1  0.33969584  -0.00536762  0.50388267  1
  Cu  Cu111  1  -0.00186450  -0.00003087  -0.00440634  1
  Cu  Cu112  1  0.33359058  -0.00172590  -0.00965208  1
  Cu  Cu113  1  0.17035712  0.84176082  0.24496162  1
  Cu  Cu114  1  -0.00367397  0.66888765  0.50355620  1
  Se  Se115  1  0.08028594  0.08212828  0.05316611  1
  Se  Se116  1  0.09356785  0.08182693  0.55535106  1
  Se  Se117  1  0.08146703  0.41172297  0.05799486  1
  Se  Se118  1  0.08791660  0.41877223  0.55185483  1
  Se  Se119  1  0.08918091  0.75600738  0.04607175  1
  Se  Se120  1  0.07807784  0.75018247  0.56354649  1
  Se  Se121  1  0.40987099  0.07865095  0.05735064  1
  Se  Se122  1  0.41811619  0.06749707  0.56980751  1
  Se  Se123  1  0.41922022  0.41875602  0.05211409  1
  Se  Se124  1  0.41350899  0.41428259  0.55070074  1
  Se  Se125  1  0.42587411  0.75899990  0.04343259  1
  Se  Se126  1  0.41632994  0.75321393  0.56230345  1
  Se  Se127  1  0.74552133  0.07575994  0.04382139  1
  Se  Se128  1  0.75689693  0.10120568  0.55779644  1
  Se  Se129  1  0.74611108  0.40213650  0.06510879  1
  Se  Se130  1  0.74929336  0.42206852  0.55402501  1
  Se  Se131  1  0.74337141  0.73866497  0.05876201  1
  Se  Se132  1  0.74709730  0.75430805  0.56001531  1
  Se  Se133  1  0.24935227  0.25024818  0.05460535  1
  Se  Se134  1  0.25078906  0.24097596  0.55303621  1
  Se  Se135  1  0.26502144  0.59329850  0.05411656  1
  Se  Se136  1  0.24652947  0.58471624  0.55407185  1
  Se  Se137  1  0.25278192  0.91860573  0.04979832  1
  Se  Se138  1  0.26001082  0.91415341  0.56580010  1
  Se  Se139  1  0.58285292  0.25358113  0.05764931  1
  Se  Se140  1  0.59648891  0.25201481  0.56573677  1
  Se  Se141  1  0.58930351  0.57890314  0.04687377  1
  Se  Se142  1  0.57662015  0.58469736  0.56130265  1
  Se  Se143  1  0.57812135  0.91655364  0.04289129  1
  Se  Se144  1  0.57546905  0.92195664  0.56794013  1
  Se  Se145  1  0.91096199  0.24598621  0.05843100  1
  Se  Se146  1  0.92118201  0.25166102  0.55129476  1
  Se  Se147  1  0.93393410  0.58921236  0.05332093  1
  Se  Se148  1  0.91169328  0.58488360  0.55472805  1
  Se  Se149  1  0.92147867  0.92259546  0.06197279  1
  Se  Se150  1  0.91775949  0.91922371  0.55173152  1
  Se  Se151  1  0.08462057  0.24945526  0.44605502  1
  Se  Se152  1  0.08551052  0.24447410  0.95243431  1
  Se  Se153  1  0.08352348  0.58552062  0.45358519  1
  Se  Se154  1  0.08348680  0.58783005  0.93029550  1
  Se  Se155  1  0.08059921  0.92380557  0.43909260  1
  Se  Se156  1  0.08151180  0.91362563  0.94684972  1
  Se  Se157  1  0.41589011  0.24649019  0.44387048  1
  Se  Se158  1  0.40732333  0.25613101  0.93609439  1
  Se  Se159  1  0.41599847  0.58404725  0.45042188  1
  Se  Se160  1  0.42469233  0.58465749  0.94806664  1
  Se  Se161  1  0.42057746  0.91092470  0.44959653  1
  Se  Se162  1  0.41876121  0.93166729  0.92820103  1
  Se  Se163  1  0.75050505  0.25852793  0.44475378  1
  Se  Se164  1  0.74382202  0.24153309  0.94320673  1
  Se  Se165  1  0.74285245  0.58832956  0.45372469  1
  Se  Se166  1  0.75276333  0.58670280  0.93684763  1
  Se  Se167  1  0.75348492  0.91660938  0.45327963  1
  Se  Se168  1  0.73816208  0.90864872  0.92777623  1
  Se  Se169  1  0.25512860  0.07863689  0.45218157  1
  Se  Se170  1  0.24539210  0.08589103  0.94688843  1
  Se  Se171  1  0.24987536  0.41381343  0.44552854  1
  Se  Se172  1  0.25934655  0.41185984  0.93602234  1
  Se  Se173  1  0.26051372  0.74139027  0.43919993  1
  Se  Se174  1  0.24803622  0.74731805  0.94599501  1
  Se  Se175  1  0.59555435  0.06935263  0.44868756  1
  Se  Se176  1  0.58283171  0.07332022  0.92639298  1
  Se  Se177  1  0.57527937  0.41776350  0.45416620  1
  Se  Se178  1  0.58511769  0.41660806  0.94758851  1
  Se  Se179  1  0.57952891  0.75310175  0.45426436  1
  Se  Se180  1  0.58759205  0.75500537  0.93824250  1
  Se  Se181  1  0.92133489  0.08447449  0.44646135  1
  Se  Se182  1  0.90865904  0.07990165  0.94652265  1
  Se  Se183  1  0.91656090  0.42036107  0.44819897  1
  Se  Se184  1  0.92090203  0.40318242  0.94269581  1
  Se  Se185  1  0.91402523  0.75512963  0.45269645  1
  Se  Se186  1  0.91901815  0.74775612  0.93799607  1
  Se  Se187  1  0.25052927  0.24972759  0.30583619  1
  Se  Se188  1  0.24044418  0.24712688  0.80973079  1
  Se  Se189  1  0.24276603  0.57672764  0.31202311  1
  Se  Se190  1  0.25572638  0.58441513  0.79651607  1
  Se  Se191  1  0.25586063  0.91896101  0.29973162  1
  Se  Se192  1  0.24649704  0.91164477  0.81054447  1
  Se  Se193  1  0.57217903  0.23573362  0.31456374  1
  Se  Se194  1  0.59439270  0.26426365  0.79751983  1
  Se  Se195  1  0.57506017  0.57156383  0.31106015  1
  Se  Se196  1  0.58216529  0.58803899  0.80355099  1
  Se  Se197  1  0.57382913  0.90369461  0.31258611  1
  Se  Se198  1  0.60229069  0.94354673  0.79488286  1
  Se  Se199  1  0.91163903  0.25053638  0.29999496  1
  Se  Se200  1  0.91972618  0.24644004  0.81241742  1
  Se  Se201  1  0.91228674  0.58346362  0.31766710  1
  Se  Se202  1  0.91973397  0.58509360  0.79827514  1
  Se  Se203  1  0.90696089  0.91019075  0.30844723  1
  Se  Se204  1  0.91676671  0.91720016  0.80114844  1
  Se  Se205  1  0.08924336  0.09030131  0.31446668  1
  Se  Se206  1  0.07845236  0.07710424  0.80788318  1
  Se  Se207  1  0.07921282  0.41423375  0.30729711  1
  Se  Se208  1  0.09011066  0.42462160  0.80435311  1
  Se  Se209  1  0.09115665  0.76075113  0.30442570  1
  Se  Se210  1  0.07816534  0.74685911  0.79909595  1
  Se  Se211  1  0.41136469  0.07531472  0.30817777  1
  Se  Se212  1  0.43723588  0.11359652  0.80098475  1
  Se  Se213  1  0.41162343  0.41013180  0.30499106  1
  Se  Se214  1  0.42361791  0.42377144  0.81006254  1
  Se  Se215  1  0.42220013  0.74725805  0.30840442  1
  Se  Se216  1  0.42505803  0.76080758  0.80493010  1
  Se  Se217  1  0.75858787  0.08971887  0.30927463  1
  Se  Se218  1  0.75801306  0.08649498  0.79995418  1
  Se  Se219  1  0.75392268  0.42827629  0.31350334  1
  Se  Se220  1  0.75257175  0.42293421  0.80470144  1
  Se  Se221  1  0.75391086  0.75833734  0.31143022  1
  Se  Se222  1  0.74871649  0.74965519  0.79284163  1
  Se  Se223  1  0.24622275  0.08429505  0.19714193  1
  Se  Se224  1  0.25196220  0.07964994  0.70321865  1
  Se  Se225  1  0.25308245  0.41442122  0.19839992  1
  Se  Se226  1  0.24365618  0.42272163  0.68389358  1
  Se  Se227  1  0.24744542  0.75743738  0.18636298  1
  Se  Se228  1  0.25104130  0.75335128  0.70024645  1
  Se  Se229  1  0.57293446  0.08492098  0.19314073  1
  Se  Se230  1  0.56575111  0.10906949  0.70307936  1
  Se  Se231  1  0.58234932  0.41688021  0.19223012  1
  Se  Se232  1  0.58556165  0.41948424  0.69709096  1
  Se  Se233  1  0.57414981  0.75044341  0.18663485  1
  Se  Se234  1  0.57084677  0.76350366  0.70455023  1
  Se  Se235  1  0.90565286  0.08724536  0.18981533  1
  Se  Se236  1  0.92103844  0.07924677  0.69233318  1
  Se  Se237  1  0.91003516  0.42601207  0.20439930  1
  Se  Se238  1  0.90649257  0.42596029  0.68364318  1
  Se  Se239  1  0.90459534  0.75886266  0.19452061  1
  Se  Se240  1  0.91859349  0.74984456  0.69535263  1
  Se  Se241  1  0.07862221  0.25149076  0.19704648  1
  Se  Se242  1  0.08801744  0.24017310  0.69155014  1
  Se  Se243  1  0.09527963  0.57601014  0.18927007  1
  Se  Se244  1  0.08074124  0.58739949  0.69244907  1
  Se  Se245  1  0.08431386  0.91615718  0.18695787  1
  Se  Se246  1  0.08126724  0.92069841  0.69837704  1
  Se  Se247  1  0.41238412  0.24987180  0.19942799  1
  Se  Se248  1  0.41899194  0.25318711  0.68430127  1
  Se  Se249  1  0.42731697  0.57560220  0.18697951  1
  Se  Se250  1  0.41322581  0.58619401  0.69694047  1
  Se  Se251  1  0.41324191  0.91788468  0.19416706  1
  Se  Se252  1  0.40781002  0.93200652  0.71121959  1
  Se  Se253  1  0.74377101  0.23714189  0.19027602  1
  Se  Se254  1  0.75922533  0.25473259  0.69960260  1
  Se  Se255  1  0.75925147  0.57368281  0.19773066  1
  Se  Se256  1  0.74540150  0.59001076  0.69594244  1
  Se  Se257  1  0.75006342  0.90380023  0.19258811  1
  Se  Se258  1  0.75175580  0.92035027  0.69060178  1
