# generated using pymatgen
data_In86Cu29Se144
_symmetry_space_group_name_H-M   'P 1'
_cell_length_a   17.57803199
_cell_length_b   17.58062386
_cell_length_c   23.43724196
_cell_angle_alpha   90.01677170
_cell_angle_beta   89.96614916
_cell_angle_gamma   89.98616290
_symmetry_Int_Tables_number   1
_chemical_formula_structural   In86Cu29Se144
_chemical_formula_sum   'In86 Cu29 Se144'
_cell_volume   7242.87398716
_cell_formula_units_Z   1
loop_
 _symmetry_equiv_pos_site_id
 _symmetry_equiv_pos_as_xyz
  1  'x, y, z'
loop_
 _atom_site_type_symbol
 _atom_site_label
 _atom_site_symmetry_multiplicity
 _atom_site_fract_x
 _atom_site_fract_y
 _atom_site_fract_z
 _atom_site_occupancy
  In  In0  1  -0.00125772  0.17733430  0.12456392  1
  In  In1  1  -0.00741018  0.15397704  0.62908034  1
  In  In2  1  0.00045495  0.50172113  0.11873084  1
  In  In3  1  -0.00900799  0.50622461  0.62783555  1
  In  In4  1  -0.01584605  0.82993637  0.12828058  1
  In  In5  1  0.00890862  0.84470022  0.61304983  1
  In  In6  1  0.34058094  0.15794487  0.12998715  1
  In  In7  1  0.34742274  0.17256241  0.60800324  1
  In  In8  1  0.34386485  0.50599237  0.11875398  1
  In  In9  1  0.34331564  0.48814856  0.63269859  1
  In  In10  1  0.33906063  0.83374955  0.14189540  1
  In  In11  1  0.32015416  0.83479881  0.61621528  1
  In  In12  1  0.66357175  0.16772131  0.11965870  1
  In  In13  1  0.64053718  0.18182451  0.65118473  1
  In  In14  1  0.65618314  0.49241697  0.10871665  1
  In  In15  1  0.66201573  0.51197973  0.63833301  1
  In  In16  1  0.67792877  0.83237633  0.12601595  1
  In  In17  1  0.67427050  0.82721212  0.62915980  1
  In  In18  1  0.19650680  -0.03022183  0.40446616  1
  In  In19  1  0.16735175  0.01863600  0.86876741  1
  In  In20  1  0.16723542  0.32304499  0.38177543  1
  In  In21  1  0.18059881  0.33570522  0.87240954  1
  In  In22  1  0.17273769  0.67448589  0.37142675  1
  In  In23  1  0.16512884  0.65371949  0.87263269  1
  In  In24  1  0.51392251  0.00197092  0.36741531  1
  In  In25  1  0.51667227  0.00561051  0.86625105  1
  In  In26  1  0.50375072  0.32380747  0.37972854  1
  In  In27  1  0.51260870  0.33451016  0.87923986  1
  In  In28  1  0.46732549  0.67240059  0.38242095  1
  In  In29  1  0.48976673  0.65616943  0.86598653  1
  In  In30  1  0.81551211  -0.00426985  0.37273493  1
  In  In31  1  0.83134334  -0.00078419  0.87854601  1
  In  In32  1  0.82421942  0.34354871  0.36955606  1
  In  In33  1  0.79795629  0.35799338  0.89941359  1
  In  In34  1  0.84316915  0.66304285  0.37236959  1
  In  In35  1  0.83137513  0.67076024  0.87580989  1
  In  In36  1  0.01015268  0.17072939  0.37670816  1
  In  In37  1  -0.00612861  0.15235849  0.86952064  1
  In  In38  1  -0.00862635  0.50449689  0.36892100  1
  In  In39  1  -0.00233715  0.50676257  0.88258558  1
  In  In40  1  0.00910789  0.81519420  0.38911204  1
  In  In41  1  -0.01565388  0.83315837  0.87443915  1
  In  In42  1  0.35453929  0.14157955  0.39685649  1
  In  In43  1  0.34155718  0.18321358  0.86885899  1
  In  In44  1  0.34041063  0.52259724  0.37680683  1
  In  In45  1  0.33700222  0.49895303  0.87711248  1
  In  In46  1  0.33437401  0.81714330  0.36602564  1
  In  In47  1  0.34956865  0.83230318  0.86910978  1
  In  In48  1  0.65792791  0.15958779  0.36752372  1
  In  In49  1  0.66418214  0.17370023  0.87975940  1
  In  In50  1  0.66082191  0.48516159  0.36860890  1
  In  In51  1  0.66158036  0.49711427  0.87547678  1
  In  In52  1  0.65890763  0.84965401  0.37948411  1
  In  In53  1  0.67948049  0.84032597  0.86863336  1
  In  In54  1  0.18045569  0.00720568  0.13137810  1
  In  In55  1  0.16413833  -0.00741926  0.61300348  1
  In  In56  1  0.15559210  0.33585717  0.12498975  1
  In  In57  1  0.18758425  0.34046283  0.62584853  1
  In  In58  1  0.17511287  0.65861672  0.13359556  1
  In  In59  1  0.16928334  0.68289933  0.61758597  1
  In  In60  1  0.49190851  0.00997815  0.13281188  1
  In  In61  1  0.49584770  0.02519571  0.62412842  1
  In  In62  1  0.51843302  0.34099015  0.10777309  1
  In  In63  1  0.49951493  0.32991724  0.62870397  1
  In  In64  1  0.49891824  0.66185380  0.12677811  1
  In  In65  1  0.50544540  0.65521392  0.62722214  1
  In  In66  1  0.82683008  -0.01213527  0.11846484  1
  In  In67  1  0.83303648  0.00218667  0.63356275  1
  In  In68  1  0.80838192  0.31622399  0.09780139  1
  In  In69  1  0.82286501  0.32419836  0.63424100  1
  In  In70  1  0.83304501  0.67299482  0.11780347  1
  In  In71  1  0.82496568  0.66843101  0.62219112  1
  In  In72  1  0.33673235  0.33194356  0.25040545  1
  In  In73  1  0.50775348  0.83021846  0.00217099  1
  In  In74  1  -0.00014110  0.66899217  0.74938265  1
  In  In75  1  0.33192447  -0.00325582  0.73882890  1
  In  In76  1  -0.00850977  0.32747247  0.75594712  1
  In  In77  1  0.16652923  0.83382280  0.00150572  1
  In  In78  1  -0.00639720  0.33822931  0.24852990  1
  In  In79  1  -0.00070125  -0.00378911  0.25339123  1
  In  In80  1  0.16900928  0.17114136  0.00316466  1
  In  In81  1  0.17176227  0.50237020  0.49574975  1
  In  In82  1  0.82560972  0.15828050  0.50362983  1
  In  In83  1  0.49902341  0.83384160  0.50052470  1
  In  In84  1  0.82869466  0.50500045  0.50734489  1
  In  In85  1  0.66028284  0.66857188  0.24684355  1
  Cu  Cu86  1  0.83228804  0.83031402  0.24970149  1
  Cu  Cu87  1  -0.00579167  0.00069256  0.50357259  1
  Cu  Cu88  1  0.66485785  0.00524240  0.50377238  1
  Cu  Cu89  1  0.00142934  0.33525527  0.50388305  1
  Cu  Cu90  1  0.16219667  0.83215669  0.25955358  1
  Cu  Cu91  1  0.50067043  0.49326734  0.75445360  1
  Cu  Cu92  1  0.17676161  0.15722523  0.25995391  1
  Cu  Cu93  1  0.82941185  0.49644754  0.24049630  1
  Cu  Cu94  1  0.34567307  0.00579204  0.00474324  1
  Cu  Cu95  1  0.34128784  0.33172762  0.50388835  1
  Cu  Cu96  1  0.82085167  0.16765493  0.76078807  1
  Cu  Cu97  1  0.50302033  0.82268997  0.74406289  1
  Cu  Cu98  1  0.66444621  0.66239824  0.50411834  1
  Cu  Cu99  1  0.17628408  0.49979078  0.75072640  1
  Cu  Cu100  1  0.50901784  0.17216068  0.25158377  1
  Cu  Cu101  1  0.00086640  0.33347331  -0.00229197  1
  Cu  Cu102  1  0.16616041  0.50643354  0.24902732  1
  Cu  Cu103  1  0.32794170  0.66183959  -0.00041998  1
  Cu  Cu104  1  0.66483402  0.66568955  -0.00488890  1
  Cu  Cu105  1  -0.00255313  -0.00402274  -0.00128068  1
  Cu  Cu106  1  0.82568915  0.16837560  0.24186419  1
  Cu  Cu107  1  0.16317547  0.83916858  0.74075839  1
  Cu  Cu108  1  0.49890719  0.50386652  0.24410206  1
  Cu  Cu109  1  0.66868631  0.00329074  -0.00425634  1
  Cu  Cu110  1  0.16417371  0.16660411  0.74324260  1
  Cu  Cu111  1  0.83614378  0.83802902  0.75023653  1
  Cu  Cu112  1  0.33628205  0.33804339  -0.00511801  1
  Cu  Cu113  1  0.65950076  0.32794302  0.50350004  1
  Cu  Cu114  1  -0.00091800  0.66715596  -0.00117177  1
  Se  Se115  1  0.07906913  0.07344558  0.06092906  1
  Se  Se116  1  0.07666060  0.08657217  0.55442399  1
  Se  Se117  1  0.08474617  0.41637613  0.05065756  1
  Se  Se118  1  0.07968342  0.41677370  0.56276603  1
  Se  Se119  1  0.07850713  0.74474890  0.06266722  1
  Se  Se120  1  0.07843169  0.74784534  0.54857257  1
  Se  Se121  1  0.42647897  0.09323552  0.05398564  1
  Se  Se122  1  0.40276905  0.06442037  0.54571565  1
  Se  Se123  1  0.41981090  0.42032180  0.04967933  1
  Se  Se124  1  0.42288543  0.41612686  0.55662390  1
  Se  Se125  1  0.40443359  0.74828950  0.05878077  1
  Se  Se126  1  0.41397048  0.74028504  0.56024405  1
  Se  Se127  1  0.75255236  0.08155075  0.05449145  1
  Se  Se128  1  0.73344024  0.08664040  0.57176777  1
  Se  Se129  1  0.76159000  0.43488319  0.04530822  1
  Se  Se130  1  0.74129995  0.40787886  0.56205075  1
  Se  Se131  1  0.74568301  0.75166244  0.04897768  1
  Se  Se132  1  0.74786908  0.75068476  0.55031002  1
  Se  Se133  1  0.26145068  0.26021047  0.06341434  1
  Se  Se134  1  0.24751627  0.25277546  0.55015157  1
  Se  Se135  1  0.24571628  0.58077399  0.05545700  1
  Se  Se136  1  0.25769109  0.58139842  0.56441811  1
  Se  Se137  1  0.26294501  0.92246122  0.05922902  1
  Se  Se138  1  0.25419337  0.92190978  0.54314875  1
  Se  Se139  1  0.59914538  0.25474984  0.04349946  1
  Se  Se140  1  0.58262900  0.24227578  0.55995223  1
  Se  Se141  1  0.57602301  0.59070626  0.04996169  1
  Se  Se142  1  0.58636052  0.57412361  0.55513723  1
  Se  Se143  1  0.58988439  0.92640327  0.06189069  1
  Se  Se144  1  0.58655640  0.92192412  0.56415416  1
  Se  Se145  1  0.92032499  0.24414911  0.04719207  1
  Se  Se146  1  0.91700171  0.25574839  0.56033613  1
  Se  Se147  1  0.91485720  0.58466495  0.05229469  1
  Se  Se148  1  0.92814569  0.59832241  0.55316423  1
  Se  Se149  1  0.91645011  0.91004435  0.05100077  1
  Se  Se150  1  0.90611085  0.92292400  0.55711231  1
  Se  Se151  1  0.08273640  0.24875726  0.45340595  1
  Se  Se152  1  0.08028492  0.25250489  0.93559274  1
  Se  Se153  1  0.07622428  0.58690079  0.43738177  1
  Se  Se154  1  0.08698476  0.58442653  0.94989075  1
  Se  Se155  1  0.07748518  0.91340331  0.45403018  1
  Se  Se156  1  0.08381944  0.92630540  0.93704342  1
  Se  Se157  1  0.42603084  0.24566817  0.45378562  1
  Se  Se158  1  0.41927539  0.25169607  0.94585466  1
  Se  Se159  1  0.42792840  0.57249261  0.45619037  1
  Se  Se160  1  0.41764260  0.58513616  0.94671433  1
  Se  Se161  1  0.41823841  0.91673841  0.43055580  1
  Se  Se162  1  0.41924632  0.92454618  0.94146321  1
  Se  Se163  1  0.74482387  0.25498595  0.44072596  1
  Se  Se164  1  0.75195099  0.24063577  0.95448939  1
  Se  Se165  1  0.74018519  0.58348594  0.43679414  1
  Se  Se166  1  0.74914412  0.58448164  0.94141058  1
  Se  Se167  1  0.74713017  0.91916142  0.45260396  1
  Se  Se168  1  0.75139453  0.91291752  0.94864809  1
  Se  Se169  1  0.22739798  0.10305027  0.44227208  1
  Se  Se170  1  0.26249429  0.08266374  0.94266782  1
  Se  Se171  1  0.26566699  0.41038634  0.43785617  1
  Se  Se172  1  0.24749920  0.42033835  0.94716784  1
  Se  Se173  1  0.26123815  0.74111097  0.44312223  1
  Se  Se174  1  0.25773736  0.74839403  0.93803963  1
  Se  Se175  1  0.58406499  0.08464308  0.44532830  1
  Se  Se176  1  0.58004836  0.08310771  0.94638039  1
  Se  Se177  1  0.58323292  0.41415957  0.44643280  1
  Se  Se178  1  0.58278231  0.42196156  0.95096869  1
  Se  Se179  1  0.58724175  0.74018828  0.43865945  1
  Se  Se180  1  0.58693193  0.74515787  0.93210551  1
  Se  Se181  1  0.91838464  0.07754414  0.43700539  1
  Se  Se182  1  0.91648772  0.08255085  0.94759541  1
  Se  Se183  1  0.92007240  0.41101761  0.44346203  1
  Se  Se184  1  0.91725570  0.41940382  0.94822750  1
  Se  Se185  1  0.89863247  0.75517958  0.44579457  1
  Se  Se186  1  0.91408010  0.75098903  0.94808076  1
  Se  Se187  1  0.25730220  0.24082153  0.31652778  1
  Se  Se188  1  0.24650374  0.24714600  0.79884236  1
  Se  Se189  1  0.25152767  0.58611452  0.30250357  1
  Se  Se190  1  0.25726779  0.58469135  0.80476413  1
  Se  Se191  1  0.24825703  0.91496802  0.31001476  1
  Se  Se192  1  0.24374926  0.91177290  0.80891231  1
  Se  Se193  1  0.58955887  0.25996690  0.30285524  1
  Se  Se194  1  0.57966803  0.24504370  0.80637800  1
  Se  Se195  1  0.57291273  0.58209334  0.31104482  1
  Se  Se196  1  0.58492207  0.58231305  0.80210611  1
  Se  Se197  1  0.59520746  0.92112020  0.29811983  1
  Se  Se198  1  0.58121340  0.90625114  0.80122709  1
  Se  Se199  1  0.90654415  0.24054440  0.30838800  1
  Se  Se200  1  0.90034272  0.24991287  0.82132966  1
  Se  Se201  1  0.91131893  0.57908263  0.29537658  1
  Se  Se202  1  0.91172762  0.57621647  0.80658168  1
  Se  Se203  1  0.91201778  0.90622068  0.31452618  1
  Se  Se204  1  0.91733665  0.92314054  0.80401480  1
  Se  Se205  1  0.09282058  0.07713667  0.31558298  1
  Se  Se206  1  0.07983479  0.08317490  0.79464529  1
  Se  Se207  1  0.09331357  0.41988126  0.31024301  1
  Se  Se208  1  0.08693024  0.42476831  0.80860372  1
  Se  Se209  1  0.07551893  0.74582092  0.30498947  1
  Se  Se210  1  0.09072188  0.76085818  0.80993042  1
  Se  Se211  1  0.42402251  0.09152897  0.30659833  1
  Se  Se212  1  0.41764718  0.08493126  0.80343468  1
  Se  Se213  1  0.42347479  0.42463221  0.31030103  1
  Se  Se214  1  0.41895056  0.41209459  0.81141645  1
  Se  Se215  1  0.43086562  0.75345751  0.29685762  1
  Se  Se216  1  0.41329289  0.74470278  0.79563597  1
  Se  Se217  1  0.74866808  0.08380484  0.29974573  1
  Se  Se218  1  0.74193768  0.07897094  0.81299543  1
  Se  Se219  1  0.74508383  0.41433354  0.29361969  1
  Se  Se220  1  0.74235347  0.41008013  0.80729360  1
  Se  Se221  1  0.74918638  0.75397817  0.31165255  1
  Se  Se222  1  0.75490090  0.74938139  0.80076912  1
  Se  Se223  1  0.26218345  0.08020210  0.20442097  1
  Se  Se224  1  0.24380273  0.08919247  0.68071275  1
  Se  Se225  1  0.24398332  0.42160985  0.19061153  1
  Se  Se226  1  0.26004629  0.41008177  0.70551268  1
  Se  Se227  1  0.24574405  0.75150170  0.20161797  1
  Se  Se228  1  0.24949996  0.75393462  0.69401183  1
  Se  Se229  1  0.58798917  0.08724317  0.19469617  1
  Se  Se230  1  0.58814310  0.06419525  0.70328540  1
  Se  Se231  1  0.58105000  0.42184057  0.18890592  1
  Se  Se232  1  0.58381947  0.41409418  0.69709284  1
  Se  Se233  1  0.57248823  0.76391072  0.18929313  1
  Se  Se234  1  0.58999487  0.74003391  0.69356548  1
  Se  Se235  1  0.91342251  0.08769645  0.18904902  1
  Se  Se236  1  0.90793230  0.09010016  0.70510580  1
  Se  Se237  1  0.90466736  0.41210283  0.17935883  1
  Se  Se238  1  0.90628310  0.42296224  0.69546683  1
  Se  Se239  1  0.91173894  0.74216012  0.19823003  1
  Se  Se240  1  0.91629289  0.76091474  0.68677860  1
  Se  Se241  1  0.09462524  0.23886628  0.20155909  1
  Se  Se242  1  0.08504769  0.25282758  0.68624392  1
  Se  Se243  1  0.07682895  0.58078257  0.19424180  1
  Se  Se244  1  0.09528949  0.57917903  0.69029242  1
  Se  Se245  1  0.09109958  0.90820857  0.18889427  1
  Se  Se246  1  0.08087055  0.92371098  0.69040405  1
  Se  Se247  1  0.43219306  0.25226744  0.18753841  1
  Se  Se248  1  0.41406898  0.24011281  0.69012540  1
  Se  Se249  1  0.41044275  0.58758376  0.19696437  1
  Se  Se250  1  0.42014955  0.57900793  0.69921863  1
  Se  Se251  1  0.41184891  0.92936110  0.20232874  1
  Se  Se252  1  0.42531439  0.90545542  0.68225080  1
  Se  Se253  1  0.74865336  0.25454825  0.18761528  1
  Se  Se254  1  0.74140054  0.25661002  0.71017357  1
  Se  Se255  1  0.74666877  0.57907904  0.18339836  1
  Se  Se256  1  0.76618660  0.57989380  0.69618646  1
  Se  Se257  1  0.75185592  0.91774659  0.19842814  1
  Se  Se258  1  0.74712528  0.91762636  0.69881761  1
