# generated using pymatgen
data_In86Cu29Se144
_symmetry_space_group_name_H-M   'P 1'
_cell_length_a   17.57792293
_cell_length_b   17.57224726
_cell_length_c   23.43290501
_cell_angle_alpha   90.01416337
_cell_angle_beta   90.01354114
_cell_angle_gamma   90.01381584
_symmetry_Int_Tables_number   1
_chemical_formula_structural   In86Cu29Se144
_chemical_formula_sum   'In86 Cu29 Se144'
_cell_volume   7238.03961304
_cell_formula_units_Z   1
loop_
 _symmetry_equiv_pos_site_id
 _symmetry_equiv_pos_as_xyz
  1  'x, y, z'
loop_
 _atom_site_type_symbol
 _atom_site_label
 _atom_site_symmetry_multiplicity
 _atom_site_fract_x
 _atom_site_fract_y
 _atom_site_fract_z
 _atom_site_occupancy
  In  In0  1  -0.00485274  0.15048402  0.13083699  1
  In  In1  1  0.00798023  0.15786258  0.62643223  1
  In  In2  1  0.00149824  0.49250237  0.11175539  1
  In  In3  1  0.00125987  0.49685731  0.61348996  1
  In  In4  1  0.00333166  0.83880630  0.12245045  1
  In  In5  1  0.00594960  0.82182018  0.62406614  1
  In  In6  1  0.33266476  0.17044453  0.12472966  1
  In  In7  1  0.33537058  0.18289763  0.62467103  1
  In  In8  1  0.33566173  0.50009643  0.12611644  1
  In  In9  1  0.33399182  0.50124566  0.62400602  1
  In  In10  1  0.32633702  0.83770028  0.13105361  1
  In  In11  1  0.32106938  0.82935772  0.62105791  1
  In  In12  1  0.66334576  0.18063687  0.13754707  1
  In  In13  1  0.67063126  0.16485503  0.62378438  1
  In  In14  1  0.66030960  0.50066134  0.12393691  1
  In  In15  1  0.67170501  0.51794426  0.61095346  1
  In  In16  1  0.67591210  0.81771372  0.12555856  1
  In  In17  1  0.65683320  0.82609465  0.62258097  1
  In  In18  1  0.16866360  0.00109405  0.37032199  1
  In  In19  1  0.16365056  0.00325166  0.88549831  1
  In  In20  1  0.16843929  0.32411245  0.38047863  1
  In  In21  1  0.17298007  0.32638543  0.88503540  1
  In  In22  1  0.17575750  0.65425840  0.37912213  1
  In  In23  1  0.17560963  0.65704220  0.88130103  1
  In  In24  1  0.50332837  0.00204625  0.36080119  1
  In  In25  1  0.50891532  0.00272377  0.88528014  1
  In  In26  1  0.50774392  0.34375939  0.36755077  1
  In  In27  1  0.48818660  0.34860367  0.88450013  1
  In  In28  1  0.49773681  0.66080416  0.36927171  1
  In  In29  1  0.49040269  0.65942286  0.86815703  1
  In  In30  1  0.83974062  0.00620022  0.35145218  1
  In  In31  1  0.82319146  -0.00575419  0.88095051  1
  In  In32  1  0.83538650  0.35020212  0.37373286  1
  In  In33  1  0.84222100  0.34770150  0.87942999  1
  In  In34  1  0.82141109  0.65386686  0.37097400  1
  In  In35  1  0.81910842  0.67679385  0.88850305  1
  In  In36  1  0.01354747  0.17053049  0.37166830  1
  In  In37  1  0.00523275  0.18384617  0.88193540  1
  In  In38  1  0.00089308  0.48802929  0.38905287  1
  In  In39  1  -0.00558930  0.50082147  0.89078470  1
  In  In40  1  0.00199075  0.84428451  0.37290774  1
  In  In41  1  -0.00405754  0.83792415  0.88274887  1
  In  In42  1  0.32756197  0.16280593  0.36607461  1
  In  In43  1  0.32419036  0.17762806  0.88510619  1
  In  In44  1  0.33381212  0.49987265  0.37064440  1
  In  In45  1  0.33352055  0.50157896  0.87305293  1
  In  In46  1  0.32429859  0.82379496  0.36644382  1
  In  In47  1  0.33634851  0.81570192  0.87737644  1
  In  In48  1  0.67496904  0.17127634  0.35541275  1
  In  In49  1  0.66404056  0.15561528  0.88362976  1
  In  In50  1  0.66725746  0.50399284  0.37460509  1
  In  In51  1  0.65180674  0.51888510  0.89477604  1
  In  In52  1  0.66587900  0.82738143  0.36261113  1
  In  In53  1  0.68251004  0.82253746  0.88352620  1
  In  In54  1  0.16681168  0.00052054  0.12680021  1
  In  In55  1  0.16442175  -0.00061172  0.61438105  1
  In  In56  1  0.17603697  0.34548584  0.11756222  1
  In  In57  1  0.17776086  0.34742844  0.61185736  1
  In  In58  1  0.17136974  0.67069263  0.12058383  1
  In  In59  1  0.16983950  0.66849571  0.61969262  1
  In  In60  1  0.48554726  0.00871966  0.13247331  1
  In  In61  1  0.51407140  -0.00038579  0.62081984  1
  In  In62  1  0.49813468  0.33603226  0.12544645  1
  In  In63  1  0.48253533  0.33926479  0.62893030  1
  In  In64  1  0.51300547  0.65107076  0.12715259  1
  In  In65  1  0.51214669  0.65090742  0.63357665  1
  In  In66  1  0.84404617  -0.00334610  0.13558121  1
  In  In67  1  0.83298789  0.00418438  0.62527321  1
  In  In68  1  0.81873793  0.32619718  0.13006256  1
  In  In69  1  0.82112763  0.34124369  0.62691846  1
  In  In70  1  0.80973543  0.65234531  0.10893605  1
  In  In71  1  0.83235285  0.66232201  0.62860390  1
  In  In72  1  0.49188693  0.82320868  0.48439377  1
  In  In73  1  -0.00121156  0.66553600  0.74850860  1
  In  In74  1  -0.00226314  0.32682446  0.25209052  1
  In  In75  1  0.00449812  0.33431598  0.75873106  1
  In  In76  1  0.33448007  -0.00465927  0.74920926  1
  In  In77  1  0.83381427  0.16756653  0.00467363  1
  In  In78  1  0.84383990  0.18055506  0.49285281  1
  In  In79  1  0.66411442  0.33486927  0.75165242  1
  In  In80  1  0.49698216  0.16786170  0.50048209  1
  In  In81  1  -0.00012936  0.66821115  0.24386026  1
  In  In82  1  0.83807015  0.83301503  0.50060145  1
  In  In83  1  0.66538549  -0.00775794  0.75871479  1
  In  In84  1  -0.00151621  -0.00054730  0.76004892  1
  In  In85  1  0.49750198  0.83109318  0.00465051  1
  Cu  Cu86  1  0.00463665  0.66924719  0.49887171  1
  Cu  Cu87  1  0.67197496  -0.00168255  0.48487144  1
  Cu  Cu88  1  0.49784250  0.82329518  0.74994859  1
  Cu  Cu89  1  0.16907971  0.82688365  0.74977828  1
  Cu  Cu90  1  0.33289769  0.66205558  0.49793822  1
  Cu  Cu91  1  0.50007858  0.49829193  0.24830439  1
  Cu  Cu92  1  0.49415238  0.17218832  0.75801271  1
  Cu  Cu93  1  0.32441794  0.00439773  0.49315771  1
  Cu  Cu94  1  0.16616714  0.83551263  0.24618363  1
  Cu  Cu95  1  0.50096142  0.49964037  0.75263226  1
  Cu  Cu96  1  0.00244780  0.67381217  0.00315536  1
  Cu  Cu97  1  0.17591047  0.17754016  0.75134730  1
  Cu  Cu98  1  0.17016628  0.16615934  0.24787487  1
  Cu  Cu99  1  0.01152394  0.00534762  0.49434537  1
  Cu  Cu100  1  0.32793497  0.00333919  0.00879363  1
  Cu  Cu101  1  0.49998128  0.83091289  0.24384203  1
  Cu  Cu102  1  0.17494529  0.49631143  0.75018569  1
  Cu  Cu103  1  0.66443338  0.33538729  0.00822607  1
  Cu  Cu104  1  0.33873709  0.33772836  0.00312207  1
  Cu  Cu105  1  0.82900156  0.50285696  0.75216896  1
  Cu  Cu106  1  0.83273362  0.82677873  0.24428732  1
  Cu  Cu107  1  0.66313522  0.00183241  0.00876874  1
  Cu  Cu108  1  0.82799391  0.50265563  0.24810172  1
  Cu  Cu109  1  0.17407353  0.49881616  0.24880819  1
  Cu  Cu110  1  0.49375117  0.17318261  0.24593690  1
  Cu  Cu111  1  0.00205694  -0.00241010  0.00649658  1
  Cu  Cu112  1  0.33307717  0.33908376  0.49697744  1
  Cu  Cu113  1  0.66038351  0.34437662  0.49748197  1
  Cu  Cu114  1  0.33088561  0.66186281  0.00130016  1
  Se  Se115  1  0.08345172  0.08443125  0.05697168  1
  Se  Se116  1  0.08947525  0.09224444  0.54870021  1
  Se  Se117  1  0.08786959  0.41492992  0.04582033  1
  Se  Se118  1  0.08182577  0.41459778  0.54695216  1
  Se  Se119  1  0.08740363  0.75605629  0.05506736  1
  Se  Se120  1  0.08902515  0.75382520  0.54991850  1
  Se  Se121  1  0.41669618  0.08720728  0.05433227  1
  Se  Se122  1  0.40744484  0.07255193  0.56018553  1
  Se  Se123  1  0.42159303  0.42300737  0.05490976  1
  Se  Se124  1  0.41720780  0.41999402  0.55158237  1
  Se  Se125  1  0.40943886  0.74068068  0.06473712  1
  Se  Se126  1  0.41359498  0.74266134  0.55888639  1
  Se  Se127  1  0.74570633  0.08103629  0.06810225  1
  Se  Se128  1  0.74801490  0.07918061  0.54780843  1
  Se  Se129  1  0.75143694  0.41640930  0.05909983  1
  Se  Se130  1  0.75041914  0.41995376  0.55150026  1
  Se  Se131  1  0.74363106  0.75000702  0.04272538  1
  Se  Se132  1  0.74327222  0.74314762  0.55456820  1
  Se  Se133  1  0.25319852  0.25217426  0.05269151  1
  Se  Se134  1  0.25309160  0.24924445  0.54860207  1
  Se  Se135  1  0.24792936  0.57816841  0.05541501  1
  Se  Se136  1  0.24882937  0.58016181  0.55340815  1
  Se  Se137  1  0.24676114  0.91400203  0.05667463  1
  Se  Se138  1  0.24960189  0.91564414  0.54926619  1
  Se  Se139  1  0.58341786  0.24816943  0.05925310  1
  Se  Se140  1  0.58834816  0.25985927  0.56098834  1
  Se  Se141  1  0.59034582  0.58529738  0.04881467  1
  Se  Se142  1  0.57307644  0.58581775  0.54765196  1
  Se  Se143  1  0.58253556  0.92090208  0.06814580  1
  Se  Se144  1  0.58990057  0.91902838  0.54433847  1
  Se  Se145  1  0.92274477  0.25402875  0.06651952  1
  Se  Se146  1  0.92185415  0.25755801  0.56839071  1
  Se  Se147  1  0.91922984  0.58680078  0.05283109  1
  Se  Se148  1  0.91885398  0.59268367  0.55609738  1
  Se  Se149  1  0.91202881  0.91812836  0.05609757  1
  Se  Se150  1  0.93108190  0.92841576  0.55868095  1
  Se  Se151  1  0.06795884  0.26103685  0.44635512  1
  Se  Se152  1  0.08704299  0.25106762  0.95529090  1
  Se  Se153  1  0.08533176  0.58123660  0.44769114  1
  Se  Se154  1  0.08409281  0.58725790  0.95058357  1
  Se  Se155  1  0.09011461  0.91617169  0.44303862  1
  Se  Se156  1  0.08427228  0.91462056  0.95044008  1
  Se  Se157  1  0.41268277  0.25604382  0.43651612  1
  Se  Se158  1  0.42054697  0.24965160  0.95009271  1
  Se  Se159  1  0.41610484  0.58289830  0.44159921  1
  Se  Se160  1  0.41557327  0.58319724  0.94470923  1
  Se  Se161  1  0.40854396  0.92757607  0.43351906  1
  Se  Se162  1  0.40489199  0.92299909  0.94365334  1
  Se  Se163  1  0.73677378  0.25755426  0.43887801  1
  Se  Se164  1  0.74375274  0.25932766  0.94265245  1
  Se  Se165  1  0.75823620  0.57205241  0.44699308  1
  Se  Se166  1  0.77728229  0.55676612  0.94289733  1
  Se  Se167  1  0.75580159  0.91878107  0.42990374  1
  Se  Se168  1  0.74539432  0.91829358  0.95471528  1
  Se  Se169  1  0.24506291  0.09079507  0.44090598  1
  Se  Se170  1  0.24745625  0.08679895  0.95116844  1
  Se  Se171  1  0.24921643  0.41933847  0.44114361  1
  Se  Se172  1  0.25582981  0.41896409  0.94564363  1
  Se  Se173  1  0.25139842  0.74893567  0.44509915  1
  Se  Se174  1  0.24865270  0.75000125  0.95055656  1
  Se  Se175  1  0.58844569  0.08499366  0.43446716  1
  Se  Se176  1  0.57963462  0.08737740  0.95865971  1
  Se  Se177  1  0.57679335  0.42484580  0.44378908  1
  Se  Se178  1  0.58010677  0.41798838  0.95422015  1
  Se  Se179  1  0.59676745  0.73847408  0.43819196  1
  Se  Se180  1  0.58027437  0.74209457  0.94005303  1
  Se  Se181  1  0.92014116  0.07386366  0.43605527  1
  Se  Se182  1  0.92428523  0.07663475  0.94118882  1
  Se  Se183  1  0.91073510  0.41237044  0.45439759  1
  Se  Se184  1  0.93069429  0.40037327  0.95595281  1
  Se  Se185  1  0.92261451  0.74246829  0.43519628  1
  Se  Se186  1  0.91475518  0.75444113  0.95042393  1
  Se  Se187  1  0.24743835  0.25492081  0.30209781  1
  Se  Se188  1  0.25627341  0.25865489  0.80719496  1
  Se  Se189  1  0.25423167  0.58714752  0.30016051  1
  Se  Se190  1  0.25204896  0.58671226  0.80260471  1
  Se  Se191  1  0.25087079  0.91811880  0.30074082  1
  Se  Se192  1  0.24288814  0.91092136  0.81228581  1
  Se  Se193  1  0.58110654  0.25468809  0.29788120  1
  Se  Se194  1  0.57861058  0.24692513  0.81757972  1
  Se  Se195  1  0.58509909  0.58187870  0.30147476  1
  Se  Se196  1  0.58693533  0.58056728  0.80635712  1
  Se  Se197  1  0.58533903  0.91411237  0.29660436  1
  Se  Se198  1  0.57280046  0.90126368  0.81578794  1
  Se  Se199  1  0.90452259  0.24144017  0.31253313  1
  Se  Se200  1  0.90564221  0.24339918  0.80993409  1
  Se  Se201  1  0.92038724  0.57156352  0.30774923  1
  Se  Se202  1  0.91430244  0.57724123  0.81262869  1
  Se  Se203  1  0.92091424  0.90856175  0.29436478  1
  Se  Se204  1  0.90134491  0.90618993  0.80820282  1
  Se  Se205  1  0.08480332  0.08347383  0.30032892  1
  Se  Se206  1  0.09386510  0.09772349  0.80979996  1
  Se  Se207  1  0.08806684  0.42285704  0.30830967  1
  Se  Se208  1  0.09215488  0.42811966  0.81606268  1
  Se  Se209  1  0.09022043  0.75164916  0.30883156  1
  Se  Se210  1  0.08602385  0.75420777  0.81250204  1
  Se  Se211  1  0.41390952  0.08440641  0.29802411  1
  Se  Se212  1  0.41922659  0.08395176  0.81492464  1
  Se  Se213  1  0.41393473  0.41566823  0.30043578  1
  Se  Se214  1  0.41564528  0.41629979  0.80305794  1
  Se  Se215  1  0.41894738  0.74967019  0.30233071  1
  Se  Se216  1  0.40816860  0.74323223  0.79861279  1
  Se  Se217  1  0.73211790  0.06572609  0.29394035  1
  Se  Se218  1  0.75768851  0.09145063  0.80845899  1
  Se  Se219  1  0.74634386  0.41839037  0.30245013  1
  Se  Se220  1  0.74816039  0.42639046  0.81425349  1
  Se  Se221  1  0.75282564  0.74221651  0.29898357  1
  Se  Se222  1  0.74902538  0.74420143  0.80617056  1
  Se  Se223  1  0.25315103  0.08267861  0.19387614  1
  Se  Se224  1  0.24484395  0.08811777  0.68964834  1
  Se  Se225  1  0.25508995  0.41335941  0.19596117  1
  Se  Se226  1  0.25327267  0.41285641  0.69316619  1
  Se  Se227  1  0.24787397  0.74615392  0.19741783  1
  Se  Se228  1  0.25027816  0.74504196  0.69497975  1
  Se  Se229  1  0.57844684  0.08673878  0.19672781  1
  Se  Se230  1  0.57641278  0.09277564  0.69820049  1
  Se  Se231  1  0.58490408  0.41479383  0.19548063  1
  Se  Se232  1  0.58065102  0.42480911  0.68738049  1
  Se  Se233  1  0.58502150  0.74545387  0.19481981  1
  Se  Se234  1  0.58774520  0.74558435  0.69858259  1
  Se  Se235  1  0.91317553  0.08587788  0.20673085  1
  Se  Se236  1  0.91024214  0.09099748  0.69724952  1
  Se  Se237  1  0.91369077  0.42385346  0.19110957  1
  Se  Se238  1  0.91357135  0.42451245  0.69483871  1
  Se  Se239  1  0.90656053  0.74611152  0.17977363  1
  Se  Se240  1  0.90684288  0.76249055  0.69471739  1
  Se  Se241  1  0.09131143  0.24789063  0.18700170  1
  Se  Se242  1  0.09207711  0.25208099  0.69004179  1
  Se  Se243  1  0.08807966  0.57200787  0.18788821  1
  Se  Se244  1  0.08905923  0.57264472  0.69060668  1
  Se  Se245  1  0.08047781  0.91892584  0.19605711  1
  Se  Se246  1  0.08972578  0.91294038  0.69364229  1
  Se  Se247  1  0.41020958  0.25749369  0.19445319  1
  Se  Se248  1  0.41281457  0.25298925  0.70247746  1
  Se  Se249  1  0.41740236  0.58415728  0.19586020  1
  Se  Se250  1  0.41474984  0.58095080  0.69771422  1
  Se  Se251  1  0.41148108  0.91721860  0.19984012  1
  Se  Se252  1  0.42852781  0.90932607  0.68676166  1
  Se  Se253  1  0.75690945  0.24562692  0.20781641  1
  Se  Se254  1  0.75749164  0.23950895  0.69652800  1
  Se  Se255  1  0.74486014  0.58493323  0.19425047  1
  Se  Se256  1  0.74580911  0.58139585  0.69532892  1
  Se  Se257  1  0.74836242  0.91128366  0.19296877  1
  Se  Se258  1  0.75153753  0.91077888  0.68827760  1
