# generated using pymatgen
data_In86Cu29Se144
_symmetry_space_group_name_H-M   'P 1'
_cell_length_a   17.57960375
_cell_length_b   17.58271751
_cell_length_c   23.44053514
_cell_angle_alpha   90.02546207
_cell_angle_beta   90.03119808
_cell_angle_gamma   89.98598156
_symmetry_Int_Tables_number   1
_chemical_formula_structural   In86Cu29Se144
_chemical_formula_sum   'In86 Cu29 Se144'
_cell_volume   7245.40193110
_cell_formula_units_Z   1
loop_
 _symmetry_equiv_pos_site_id
 _symmetry_equiv_pos_as_xyz
  1  'x, y, z'
loop_
 _atom_site_type_symbol
 _atom_site_label
 _atom_site_symmetry_multiplicity
 _atom_site_fract_x
 _atom_site_fract_y
 _atom_site_fract_z
 _atom_site_occupancy
  In  In0  1  -0.01495675  0.15560124  0.11639943  1
  In  In1  1  -0.00392279  0.18248133  0.63261587  1
  In  In2  1  0.00792637  0.48628016  0.12302393  1
  In  In3  1  -0.00245802  0.49793645  0.62383394  1
  In  In4  1  -0.00077651  0.84738647  0.12476210  1
  In  In5  1  -0.01684265  0.82565376  0.63280857  1
  In  In6  1  0.34597334  0.18133029  0.11851226  1
  In  In7  1  0.34152986  0.15630232  0.62447102  1
  In  In8  1  0.33177833  0.49637835  0.13074156  1
  In  In9  1  0.34791334  0.52454403  0.60058508  1
  In  In10  1  0.32581124  0.82528428  0.12948862  1
  In  In11  1  0.34526919  0.82556692  0.62438443  1
  In  In12  1  0.67575034  0.16840614  0.13011547  1
  In  In13  1  0.67323982  0.17423916  0.61708493  1
  In  In14  1  0.66079018  0.49853703  0.13045986  1
  In  In15  1  0.66881269  0.49286786  0.62628254  1
  In  In16  1  0.68257789  0.83175152  0.11829529  1
  In  In17  1  0.65357951  0.83798092  0.62577503  1
  In  In18  1  0.16476443  0.01394437  0.36963680  1
  In  In19  1  0.18149685  -0.00274969  0.87520326  1
  In  In20  1  0.17558803  0.33264292  0.37292121  1
  In  In21  1  0.16177748  0.34151629  0.88281201  1
  In  In22  1  0.16976879  0.64852450  0.38501911  1
  In  In23  1  0.15957399  0.65796534  0.86623757  1
  In  In24  1  0.50245165  -0.00238103  0.37766053  1
  In  In25  1  0.50697411  0.01598598  0.87518900  1
  In  In26  1  0.50457658  0.33174888  0.37699433  1
  In  In27  1  0.50445856  0.31932787  0.87300530  1
  In  In28  1  0.48721767  0.66918382  0.39077306  1
  In  In29  1  0.49990465  0.66538761  0.86056783  1
  In  In30  1  0.83398902  0.01894132  0.35812665  1
  In  In31  1  0.83139454  0.00425767  0.88314470  1
  In  In32  1  0.81789391  0.33799465  0.37522518  1
  In  In33  1  0.82839021  0.31743587  0.86336366  1
  In  In34  1  0.82088982  0.65978988  0.38080791  1
  In  In35  1  0.84627281  0.67567343  0.86047856  1
  In  In36  1  -0.00408817  0.15886908  0.36776497  1
  In  In37  1  -0.00865123  0.17883042  0.88058679  1
  In  In38  1  -0.01156745  0.49867875  0.38321770  1
  In  In39  1  0.00810146  0.50174584  0.87028547  1
  In  In40  1  -0.01050028  0.84642481  0.37549004  1
  In  In41  1  0.00091261  0.82460913  0.87108259  1
  In  In42  1  0.33590739  0.17409218  0.37184132  1
  In  In43  1  0.34279230  0.16104728  0.88043611  1
  In  In44  1  0.33358570  0.49868602  0.38310022  1
  In  In45  1  0.32206405  0.50129899  0.87189485  1
  In  In46  1  0.35314884  0.83199942  0.38199516  1
  In  In47  1  0.33087894  0.83153666  0.86438307  1
  In  In48  1  0.66264407  0.17337703  0.37001911  1
  In  In49  1  0.66636562  0.16820710  0.87899445  1
  In  In50  1  0.67384863  0.48570610  0.38459206  1
  In  In51  1  0.66797296  0.49773697  0.86344369  1
  In  In52  1  0.65242212  0.83373190  0.37844152  1
  In  In53  1  0.68198211  0.83668324  0.86958700  1
  In  In54  1  0.15214536  -0.00005986  0.12687627  1
  In  In55  1  0.17537508  0.01240761  0.62655437  1
  In  In56  1  0.17410572  0.33991058  0.11831576  1
  In  In57  1  0.15383625  0.34120093  0.62770894  1
  In  In58  1  0.18127516  0.66450021  0.12675340  1
  In  In59  1  0.17745568  0.65306138  0.63017708  1
  In  In60  1  0.50326588  0.02875326  0.13750325  1
  In  In61  1  0.49101335  -0.00705860  0.60707813  1
  In  In62  1  0.52089988  0.30726413  0.15033633  1
  In  In63  1  0.51101470  0.34155051  0.61557912  1
  In  In64  1  0.49566375  0.65332777  0.13034833  1
  In  In65  1  0.49938650  0.66664850  0.62124635  1
  In  In66  1  0.83348834  0.00465046  0.12722301  1
  In  In67  1  0.82050324  0.00091993  0.62477716  1
  In  In68  1  0.83466991  0.32100579  0.13272795  1
  In  In69  1  0.82906887  0.32774388  0.62677063  1
  In  In70  1  0.82337617  0.67307036  0.12004977  1
  In  In71  1  0.84486107  0.65590991  0.63894925  1
  In  In72  1  0.33116466  0.33953614  0.74700400  1
  In  In73  1  0.49725247  0.49318917  0.00726519  1
  In  In74  1  0.83755361  0.49690266  -0.00194385  1
  In  In75  1  0.50344782  0.83970109  0.00029327  1
  In  In76  1  0.00089594  0.00136431  0.75414479  1
  In  In77  1  0.82330214  0.83106331  0.50513782  1
  In  In78  1  0.33751803  0.00494099  0.25529213  1
  In  In79  1  0.17087151  0.17062888  0.49483491  1
  In  In80  1  0.16396955  0.83419753  0.00083197  1
  In  In81  1  0.00273159  0.66832898  0.26296168  1
  In  In82  1  0.65800399  0.66421279  0.25621813  1
  In  In83  1  0.66250813  -0.00049869  0.74829381  1
  In  In84  1  -0.00542417  0.32870272  0.24830227  1
  In  In85  1  0.17031086  0.83113243  0.51025837  1
  Cu  Cu86  1  0.16992632  0.83507307  0.74726495  1
  Cu  Cu87  1  0.66699086  0.00877441  0.00419550  1
  Cu  Cu88  1  0.66586889  0.32734981  0.49983392  1
  Cu  Cu89  1  0.33760164  0.00842733  0.00053161  1
  Cu  Cu90  1  0.17193258  0.49943915  0.25293869  1
  Cu  Cu91  1  0.48495894  0.50308949  0.26074267  1
  Cu  Cu92  1  0.50491177  0.16422348  0.74931258  1
  Cu  Cu93  1  0.83538908  0.83946507  0.24825882  1
  Cu  Cu94  1  -0.00437061  0.66085659  0.50573264  1
  Cu  Cu95  1  -0.00501430  0.00613363  0.00262232  1
  Cu  Cu96  1  0.49258957  0.83068897  0.74264437  1
  Cu  Cu97  1  0.83541745  0.48949140  0.74751634  1
  Cu  Cu98  1  0.17001623  0.82858921  0.25060943  1
  Cu  Cu99  1  0.00185354  0.66533308  -0.00845734  1
  Cu  Cu100  1  0.32986731  0.65923200  -0.00072294  1
  Cu  Cu101  1  0.66511474  0.32703151  0.00243796  1
  Cu  Cu102  1  0.00371076  0.32929810  0.00011667  1
  Cu  Cu103  1  0.17219215  0.16931884  0.75012298  1
  Cu  Cu104  1  0.49744206  0.83036903  0.25424697  1
  Cu  Cu105  1  0.33607535  0.33159046  0.00059407  1
  Cu  Cu106  1  0.66885279  0.00641795  0.49483963  1
  Cu  Cu107  1  0.16290646  0.16713673  0.24301923  1
  Cu  Cu108  1  0.16856248  0.50353671  0.74512811  1
  Cu  Cu109  1  0.67473179  0.67148568  -0.00856848  1
  Cu  Cu110  1  -0.00302177  0.00873285  0.49552619  1
  Cu  Cu111  1  0.33145653  0.33232519  0.49649972  1
  Cu  Cu112  1  -0.00781950  0.33312776  0.50428662  1
  Cu  Cu113  1  0.66444473  0.65658128  0.50511348  1
  Cu  Cu114  1  0.49864703  0.49869179  0.73845587  1
  Se  Se115  1  0.08545071  0.08538387  0.05226899  1
  Se  Se116  1  0.07672473  0.08560318  0.55871742  1
  Se  Se117  1  0.08782378  0.41795888  0.04703805  1
  Se  Se118  1  0.08014429  0.41734994  0.55111280  1
  Se  Se119  1  0.07683876  0.74119515  0.06161854  1
  Se  Se120  1  0.07176982  0.74400366  0.56497166  1
  Se  Se121  1  0.42348725  0.08632679  0.05509302  1
  Se  Se122  1  0.42168913  0.09483504  0.54606484  1
  Se  Se123  1  0.41718793  0.39988261  0.06883527  1
  Se  Se124  1  0.41725560  0.41420049  0.54900150  1
  Se  Se125  1  0.41204738  0.74132402  0.05696323  1
  Se  Se126  1  0.42014883  0.74914664  0.55029911  1
  Se  Se127  1  0.75456023  0.08917043  0.05621347  1
  Se  Se128  1  0.75402610  0.08457771  0.54984114  1
  Se  Se129  1  0.74310079  0.41320145  0.05971368  1
  Se  Se130  1  0.74914687  0.41021356  0.55523018  1
  Se  Se131  1  0.75869413  0.75518655  0.04233383  1
  Se  Se132  1  0.74288278  0.73774455  0.56753918  1
  Se  Se133  1  0.24908883  0.24768446  0.05105288  1
  Se  Se134  1  0.25335082  0.25744525  0.56342113  1
  Se  Se135  1  0.25174797  0.57612731  0.05589902  1
  Se  Se136  1  0.23623248  0.58375927  0.54477284  1
  Se  Se137  1  0.25883459  0.92456867  0.05938015  1
  Se  Se138  1  0.26070253  0.92852379  0.55980490  1
  Se  Se139  1  0.58440766  0.24784054  0.06133760  1
  Se  Se140  1  0.57825705  0.24350230  0.54926780  1
  Se  Se141  1  0.59459682  0.59447041  0.05437771  1
  Se  Se142  1  0.58157242  0.57370144  0.55823928  1
  Se  Se143  1  0.58642534  0.92877966  0.06530869  1
  Se  Se144  1  0.58947267  0.91630832  0.54583903  1
  Se  Se145  1  0.91263559  0.25451476  0.05308668  1
  Se  Se146  1  0.91307258  0.24493657  0.55493375  1
  Se  Se147  1  0.92609767  0.58933827  0.05998863  1
  Se  Se148  1  0.90847094  0.57994157  0.55679396  1
  Se  Se149  1  0.91335017  0.91912240  0.05421299  1
  Se  Se150  1  0.92314290  0.92420702  0.55773232  1
  Se  Se151  1  0.07160898  0.25692823  0.43783909  1
  Se  Se152  1  0.08880690  0.24621564  0.94794796  1
  Se  Se153  1  0.07575830  0.57744848  0.45051243  1
  Se  Se154  1  0.08817784  0.58090594  0.94440946  1
  Se  Se155  1  0.08286480  0.92569795  0.44382665  1
  Se  Se156  1  0.07420583  0.92562825  0.94005044  1
  Se  Se157  1  0.41620601  0.24969187  0.44501955  1
  Se  Se158  1  0.42197608  0.24984090  0.94778678  1
  Se  Se159  1  0.41088894  0.57970363  0.45583173  1
  Se  Se160  1  0.41729942  0.58650057  0.94000688  1
  Se  Se161  1  0.42297831  0.91950696  0.45059953  1
  Se  Se162  1  0.40934920  0.92269453  0.93817822  1
  Se  Se163  1  0.74918592  0.24539199  0.44467488  1
  Se  Se164  1  0.75258448  0.25200325  0.94558700  1
  Se  Se165  1  0.75158189  0.57589313  0.45363470  1
  Se  Se166  1  0.75042722  0.58476938  0.93431950  1
  Se  Se167  1  0.75072987  0.92310840  0.43557847  1
  Se  Se168  1  0.74333107  0.92149431  0.94794481  1
  Se  Se169  1  0.26184530  0.07510448  0.44131298  1
  Se  Se170  1  0.24945620  0.08596812  0.94742200  1
  Se  Se171  1  0.24253032  0.41507897  0.44867263  1
  Se  Se172  1  0.25580368  0.41846513  0.94810062  1
  Se  Se173  1  0.25487617  0.74684315  0.44341354  1
  Se  Se174  1  0.25405305  0.74469044  0.93999070  1
  Se  Se175  1  0.58437719  0.08763610  0.44140751  1
  Se  Se176  1  0.58196724  0.09053476  0.95103487  1
  Se  Se177  1  0.58033556  0.41487098  0.45161305  1
  Se  Se178  1  0.59042191  0.41198639  0.94197928  1
  Se  Se179  1  0.58718262  0.74514506  0.45109234  1
  Se  Se180  1  0.58448045  0.74573309  0.93640967  1
  Se  Se181  1  0.91142581  0.08490770  0.44023746  1
  Se  Se182  1  0.91340265  0.09041651  0.94839877  1
  Se  Se183  1  0.90690501  0.41171170  0.44718844  1
  Se  Se184  1  0.92321484  0.40725964  0.93604837  1
  Se  Se185  1  0.92079918  0.74453038  0.44359560  1
  Se  Se186  1  0.91657714  0.74887989  0.94246736  1
  Se  Se187  1  0.24495608  0.24468999  0.30141212  1
  Se  Se188  1  0.25039534  0.24899809  0.81325574  1
  Se  Se189  1  0.25214298  0.58126003  0.30934149  1
  Se  Se190  1  0.25364928  0.58677909  0.79814855  1
  Se  Se191  1  0.24884337  0.90982755  0.31365716  1
  Se  Se192  1  0.25329860  0.92097028  0.79756670  1
  Se  Se193  1  0.59787276  0.27260298  0.30278160  1
  Se  Se194  1  0.58951101  0.24613297  0.80194084  1
  Se  Se195  1  0.57310469  0.57733591  0.32065163  1
  Se  Se196  1  0.58254440  0.57893234  0.79639691  1
  Se  Se197  1  0.58072160  0.91524634  0.30399200  1
  Se  Se198  1  0.57062639  0.90785908  0.80925104  1
  Se  Se199  1  0.90153617  0.24307839  0.30631434  1
  Se  Se200  1  0.92794124  0.25121693  0.79876707  1
  Se  Se201  1  0.90281098  0.57610235  0.30803563  1
  Se  Se202  1  0.91881789  0.57497583  0.80088484  1
  Se  Se203  1  0.91903683  0.92445816  0.29935286  1
  Se  Se204  1  0.90667041  0.91277122  0.81062115  1
  Se  Se205  1  0.08030732  0.08282561  0.29577602  1
  Se  Se206  1  0.09287170  0.09013352  0.81294099  1
  Se  Se207  1  0.08313432  0.42331340  0.30940253  1
  Se  Se208  1  0.09302145  0.41782569  0.80291765  1
  Se  Se209  1  0.09362027  0.75940911  0.32123352  1
  Se  Se210  1  0.08604073  0.75151815  0.79994399  1
  Se  Se211  1  0.43297862  0.09649238  0.30576151  1
  Se  Se212  1  0.41844492  0.08434980  0.80284987  1
  Se  Se213  1  0.40972533  0.41191159  0.31289205  1
  Se  Se214  1  0.42656819  0.42388279  0.81018379  1
  Se  Se215  1  0.41946075  0.74475033  0.30775301  1
  Se  Se216  1  0.41048835  0.74618993  0.79676673  1
  Se  Se217  1  0.72413646  0.07426075  0.29791960  1
  Se  Se218  1  0.75505549  0.08727091  0.80730538  1
  Se  Se219  1  0.74841969  0.42481586  0.30238920  1
  Se  Se220  1  0.74844314  0.40868479  0.79961703  1
  Se  Se221  1  0.75584562  0.75937818  0.30941742  1
  Se  Se222  1  0.73484305  0.73432915  0.80358849  1
  Se  Se223  1  0.24857235  0.08592598  0.18676196  1
  Se  Se224  1  0.25714694  0.08642183  0.69999517  1
  Se  Se225  1  0.24823332  0.41145280  0.19815936  1
  Se  Se226  1  0.25288903  0.43116500  0.68176896  1
  Se  Se227  1  0.25445606  0.74277020  0.20354891  1
  Se  Se228  1  0.25086476  0.75248161  0.69109967  1
  Se  Se229  1  0.60753787  0.07704156  0.20468449  1
  Se  Se230  1  0.57604546  0.08362292  0.68236231  1
  Se  Se231  1  0.56973563  0.43102331  0.19947928  1
  Se  Se232  1  0.58483262  0.40922702  0.69655717  1
  Se  Se233  1  0.57826202  0.75664596  0.18722716  1
  Se  Se234  1  0.58059949  0.74820635  0.69416612  1
  Se  Se235  1  0.91576678  0.08670157  0.19655076  1
  Se  Se236  1  0.90915755  0.08594549  0.69229562  1
  Se  Se237  1  0.90782648  0.42886787  0.19290016  1
  Se  Se238  1  0.91998954  0.40973029  0.69233455  1
  Se  Se239  1  0.91447910  0.75206640  0.19260729  1
  Se  Se240  1  0.91167065  0.75005055  0.70800886  1
  Se  Se241  1  0.08411620  0.24684825  0.18224770  1
  Se  Se242  1  0.08684033  0.25396522  0.70169967  1
  Se  Se243  1  0.08789359  0.57909412  0.19439305  1
  Se  Se244  1  0.07837158  0.58380617  0.69414862  1
  Se  Se245  1  0.08498251  0.91225122  0.20059655  1
  Se  Se246  1  0.08860173  0.91420202  0.68716220  1
  Se  Se247  1  0.40779555  0.24790645  0.20387648  1
  Se  Se248  1  0.42531771  0.24925038  0.69081212  1
  Se  Se249  1  0.40779817  0.58532504  0.20138539  1
  Se  Se250  1  0.41265298  0.58298158  0.68979573  1
  Se  Se251  1  0.42278265  0.91221979  0.18928087  1
  Se  Se252  1  0.41932780  0.92253052  0.68924850  1
  Se  Se253  1  0.73098284  0.27222603  0.19965290  1
  Se  Se254  1  0.74688277  0.24419415  0.69534582  1
  Se  Se255  1  0.75543279  0.58277389  0.19354885  1
  Se  Se256  1  0.74955104  0.57490068  0.69809129  1
  Se  Se257  1  0.74910925  0.91569440  0.19283119  1
  Se  Se258  1  0.75627851  0.90364299  0.69523140  1
