# generated using pymatgen
data_In86Cu29Se144
_symmetry_space_group_name_H-M   'P 1'
_cell_length_a   17.54866519
_cell_length_b   17.55052741
_cell_length_c   23.39671331
_cell_angle_alpha   89.99170151
_cell_angle_beta   90.00595585
_cell_angle_gamma   90.00526875
_symmetry_Int_Tables_number   1
_chemical_formula_structural   In86Cu29Se144
_chemical_formula_sum   'In86 Cu29 Se144'
_cell_volume   7205.91450317
_cell_formula_units_Z   1
loop_
 _symmetry_equiv_pos_site_id
 _symmetry_equiv_pos_as_xyz
  1  'x, y, z'
loop_
 _atom_site_type_symbol
 _atom_site_label
 _atom_site_symmetry_multiplicity
 _atom_site_fract_x
 _atom_site_fract_y
 _atom_site_fract_z
 _atom_site_occupancy
  In  In0  1  0.00627490  0.14806247  0.11869994  1
  In  In1  1  -0.02263281  0.16508525  0.63318075  1
  In  In2  1  0.01389067  0.52531671  0.10444203  1
  In  In3  1  -0.00138922  0.51457940  0.63149973  1
  In  In4  1  -0.00920734  0.83034837  0.11644728  1
  In  In5  1  0.00033957  0.83274193  0.63489715  1
  In  In6  1  0.32660532  0.15699221  0.11374421  1
  In  In7  1  0.35361682  0.16111831  0.61928869  1
  In  In8  1  0.34524388  0.50952889  0.11990898  1
  In  In9  1  0.33479307  0.48762736  0.62656396  1
  In  In10  1  0.32448575  0.83936575  0.13214976  1
  In  In11  1  0.32274472  0.84111048  0.62241863  1
  In  In12  1  0.66180375  0.17400282  0.13343786  1
  In  In13  1  0.67455992  0.17455404  0.61784294  1
  In  In14  1  0.66532774  0.50076022  0.12238199  1
  In  In15  1  0.66876232  0.49982237  0.62308586  1
  In  In16  1  0.68810222  0.81813431  0.13927715  1
  In  In17  1  0.66260700  0.82319232  0.62474662  1
  In  In18  1  0.15884281  -0.00419277  0.36041467  1
  In  In19  1  0.14029388  0.00452912  0.90011451  1
  In  In20  1  0.17140383  0.33205238  0.37016735  1
  In  In21  1  0.16621655  0.33662312  0.89465676  1
  In  In22  1  0.16718070  0.67393127  0.36320245  1
  In  In23  1  0.13448687  0.69272384  0.91248850  1
  In  In24  1  0.50388566  0.00315333  0.36634607  1
  In  In25  1  0.50883974  0.01873560  0.88109095  1
  In  In26  1  0.50986218  0.33093688  0.37481140  1
  In  In27  1  0.50536068  0.32827081  0.88185942  1
  In  In28  1  0.50178690  0.66033303  0.36136877  1
  In  In29  1  0.50095319  0.65143340  0.87807891  1
  In  In30  1  0.83757020  0.00338940  0.36770751  1
  In  In31  1  0.83690896  -0.01592130  0.88422500  1
  In  In32  1  0.81854985  0.34929787  0.38074787  1
  In  In33  1  0.83603190  0.34526103  0.87312567  1
  In  In34  1  0.81669282  0.65729728  0.35322264  1
  In  In35  1  0.83398499  0.66547614  0.87772073  1
  In  In36  1  -0.00379291  0.14893155  0.36880645  1
  In  In37  1  0.00129032  0.16591827  0.87630330  1
  In  In38  1  -0.01588426  0.49671065  0.37179272  1
  In  In39  1  -0.02325845  0.52160852  0.90198866  1
  In  In40  1  -0.00845563  0.83323462  0.35713851  1
  In  In41  1  -0.00850756  0.82841915  0.88289482  1
  In  In42  1  0.34396969  0.16610089  0.37226630  1
  In  In43  1  0.33514727  0.17500480  0.88879585  1
  In  In44  1  0.34291086  0.51728173  0.36639133  1
  In  In45  1  0.33179138  0.49990023  0.89363238  1
  In  In46  1  0.33747510  0.83485600  0.36096699  1
  In  In47  1  0.32195483  0.82557919  0.87761104  1
  In  In48  1  0.66289479  0.16925048  0.37214233  1
  In  In49  1  0.65500606  0.16502138  0.87910024  1
  In  In50  1  0.66883662  0.50016441  0.36732271  1
  In  In51  1  0.66645663  0.50139462  0.87407760  1
  In  In52  1  0.67728735  0.81683041  0.35004764  1
  In  In53  1  0.68929837  0.83011901  0.88538803  1
  In  In54  1  0.16263102  -0.00384910  0.11463954  1
  In  In55  1  0.16340166  -0.00922349  0.62697244  1
  In  In56  1  0.18272768  0.33193292  0.10820370  1
  In  In57  1  0.17358610  0.33921106  0.63079224  1
  In  In58  1  0.15755784  0.68109187  0.12000926  1
  In  In59  1  0.16275862  0.65880375  0.63300220  1
  In  In60  1  0.49492170  0.00523994  0.13367421  1
  In  In61  1  0.49209753  0.01778559  0.61690133  1
  In  In62  1  0.51023207  0.34751529  0.11522953  1
  In  In63  1  0.51356864  0.34611664  0.61353404  1
  In  In64  1  0.51158401  0.64170730  0.13883376  1
  In  In65  1  0.52112763  0.66861067  0.62224610  1
  In  In66  1  0.85674589  -0.02656744  0.15053622  1
  In  In67  1  0.83446065  0.01338192  0.62758617  1
  In  In68  1  0.81456096  0.34002684  0.12869486  1
  In  In69  1  0.81647065  0.31969583  0.62268530  1
  In  In70  1  0.83785415  0.66746542  0.11526443  1
  In  In71  1  0.83941909  0.66125072  0.62848919  1
  In  In72  1  0.33175056  0.33410242  0.76197887  1
  In  In73  1  0.16362933  0.16923152  0.49454842  1
  In  In74  1  0.33260075  -0.00349385  0.74600907  1
  In  In75  1  0.16799644  0.50047467  0.50585622  1
  In  In76  1  0.83430506  0.83539389  0.48575988  1
  In  In77  1  0.34042622  0.33338476  0.24721685  1
  In  In78  1  0.83010007  0.16156537  0.00303009  1
  In  In79  1  0.50494614  0.83682337  0.48622421  1
  In  In80  1  -0.00395002  0.33632687  0.75780850  1
  In  In81  1  0.67581892  -0.00555132  0.75274503  1
  In  In82  1  0.32783756  0.65825607  0.75774170  1
  In  In83  1  0.16778244  0.83857249  0.50303680  1
  In  In84  1  0.49467390  0.83471281  0.01214880  1
  In  In85  1  -0.00387859  0.33365255  0.24321066  1
  Cu  Cu86  1  0.66227627  0.00485772  0.49253076  1
  Cu  Cu87  1  -0.00605781  0.00282978  0.49776638  1
  Cu  Cu88  1  0.33598246  0.66012373  0.01330472  1
  Cu  Cu89  1  0.16081527  0.50951611  0.23728211  1
  Cu  Cu90  1  0.67256153  0.65660349  0.49313302  1
  Cu  Cu91  1  0.66449151  0.66565340  0.00426858  1
  Cu  Cu92  1  -0.01463779  0.33125374  0.50108284  1
  Cu  Cu93  1  0.66342761  0.34032568  0.00160555  1
  Cu  Cu94  1  0.15676819  0.15693247  0.75655962  1
  Cu  Cu95  1  0.82984293  0.17099103  0.24933322  1
  Cu  Cu96  1  0.51153351  0.83155931  0.75196116  1
  Cu  Cu97  1  0.33843247  -0.00517331  0.00454699  1
  Cu  Cu98  1  0.66911419  0.00407446  0.01509030  1
  Cu  Cu99  1  0.66568132  0.33254852  0.49642553  1
  Cu  Cu100  1  0.50986922  0.50089968  0.74954218  1
  Cu  Cu101  1  0.16409051  0.15609207  0.23640650  1
  Cu  Cu102  1  0.84048657  0.82370480  0.75620247  1
  Cu  Cu103  1  0.16273674  0.83143355  0.23865697  1
  Cu  Cu104  1  0.34377655  0.33687899  0.49639770  1
  Cu  Cu105  1  0.34793279  0.66984865  0.49323927  1
  Cu  Cu106  1  0.49629385  0.16691217  0.24798995  1
  Cu  Cu107  1  0.49524370  0.82786177  0.24374673  1
  Cu  Cu108  1  0.83610481  0.50605479  0.24270704  1
  Cu  Cu109  1  -0.00700000  0.32938120  0.00436482  1
  Cu  Cu110  1  0.15499424  0.51249369  0.77211395  1
  Cu  Cu111  1  0.50667512  0.17602711  0.75028084  1
  Cu  Cu112  1  0.83012861  0.50235787  0.75279044  1
  Cu  Cu113  1  0.15419712  0.83423523  0.76419774  1
  Cu  Cu114  1  -0.00611016  0.66041165  0.49731905  1
  Se  Se115  1  0.09375613  0.08763604  0.04352722  1
  Se  Se116  1  0.07516379  0.08035927  0.55993875  1
  Se  Se117  1  0.08131645  0.41202310  0.05359163  1
  Se  Se118  1  0.07239935  0.40737322  0.56169530  1
  Se  Se119  1  0.08012547  0.75720596  0.04383030  1
  Se  Se120  1  0.07612671  0.74029863  0.55782138  1
  Se  Se121  1  0.42523655  0.07874514  0.05245759  1
  Se  Se122  1  0.41090145  0.08106978  0.53909561  1
  Se  Se123  1  0.40274791  0.40658061  0.05341101  1
  Se  Se124  1  0.42068971  0.42609207  0.55000832  1
  Se  Se125  1  0.41710684  0.73852098  0.07490045  1
  Se  Se126  1  0.41757213  0.75329412  0.55940859  1
  Se  Se127  1  0.75331193  0.07949922  0.07544767  1
  Se  Se128  1  0.74822503  0.07840950  0.55219979  1
  Se  Se129  1  0.75109516  0.42252968  0.05038220  1
  Se  Se130  1  0.74880921  0.41394405  0.55382619  1
  Se  Se131  1  0.74900507  0.75399597  0.05046580  1
  Se  Se132  1  0.74864652  0.74409967  0.55166240  1
  Se  Se133  1  0.24836651  0.23666078  0.04189137  1
  Se  Se134  1  0.25817281  0.25928365  0.55680463  1
  Se  Se135  1  0.24192694  0.58267895  0.06128137  1
  Se  Se136  1  0.26426162  0.59675831  0.56008331  1
  Se  Se137  1  0.25271564  0.90929193  0.05141904  1
  Se  Se138  1  0.26243829  0.93877753  0.54924822  1
  Se  Se139  1  0.58848953  0.24924534  0.05445789  1
  Se  Se140  1  0.58175084  0.24649447  0.54957860  1
  Se  Se141  1  0.57870145  0.58026520  0.05175638  1
  Se  Se142  1  0.58617696  0.58046643  0.54952173  1
  Se  Se143  1  0.59036911  0.91685920  0.07115555  1
  Se  Se144  1  0.59023119  0.92343894  0.55784424  1
  Se  Se145  1  0.91545578  0.25330362  0.06781946  1
  Se  Se146  1  0.90923687  0.24332718  0.55515847  1
  Se  Se147  1  0.91431352  0.58901497  0.03980990  1
  Se  Se148  1  0.91413863  0.57866758  0.55418512  1
  Se  Se149  1  0.90720118  0.92356062  0.05541980  1
  Se  Se150  1  0.92015843  0.91566907  0.55778638  1
  Se  Se151  1  0.06987654  0.26074879  0.43632112  1
  Se  Se152  1  0.07542032  0.24642082  0.95047120  1
  Se  Se153  1  0.08290953  0.58686909  0.43824556  1
  Se  Se154  1  0.10095574  0.56052161  0.95228168  1
  Se  Se155  1  0.07198001  0.91883487  0.43798953  1
  Se  Se156  1  0.09338397  0.88605906  0.95493753  1
  Se  Se157  1  0.42063515  0.25043092  0.44173772  1
  Se  Se158  1  0.42650600  0.24815826  0.95308261  1
  Se  Se159  1  0.42891295  0.58531402  0.44163898  1
  Se  Se160  1  0.42207937  0.58402462  0.95613956  1
  Se  Se161  1  0.40567029  0.92456743  0.43606072  1
  Se  Se162  1  0.41669032  0.92055109  0.93724266  1
  Se  Se163  1  0.74924584  0.24824819  0.44299533  1
  Se  Se164  1  0.74483809  0.25728792  0.94234888  1
  Se  Se165  1  0.75913039  0.58020132  0.43680241  1
  Se  Se166  1  0.74505507  0.58428097  0.94529644  1
  Se  Se167  1  0.73417680  0.91908429  0.43047591  1
  Se  Se168  1  0.75000542  0.92002911  0.96008619  1
  Se  Se169  1  0.24681650  0.07702688  0.43243311  1
  Se  Se170  1  0.25636059  0.07425955  0.94498317  1
  Se  Se171  1  0.25922562  0.41585796  0.43806381  1
  Se  Se172  1  0.26309039  0.40423521  0.95928904  1
  Se  Se173  1  0.25698531  0.74734058  0.44035604  1
  Se  Se174  1  0.25923674  0.74816216  0.95784238  1
  Se  Se175  1  0.57680393  0.08626825  0.44068150  1
  Se  Se176  1  0.58781777  0.08685885  0.95934765  1
  Se  Se177  1  0.58835425  0.42066047  0.44107891  1
  Se  Se178  1  0.58178251  0.42279233  0.94533692  1
  Se  Se179  1  0.59943904  0.74467252  0.43350468  1
  Se  Se180  1  0.58340397  0.74893878  0.94426478  1
  Se  Se181  1  0.90999575  0.08557709  0.44508049  1
  Se  Se182  1  0.92661181  0.07317230  0.94815511  1
  Se  Se183  1  0.91018429  0.42356720  0.44977367  1
  Se  Se184  1  0.90535873  0.41279798  0.95553222  1
  Se  Se185  1  0.92117839  0.73831188  0.43026037  1
  Se  Se186  1  0.90617511  0.74915336  0.95082286  1
  Se  Se187  1  0.24121304  0.23735761  0.29983758  1
  Se  Se188  1  0.23588271  0.24086433  0.81484217  1
  Se  Se189  1  0.24582206  0.58207859  0.29928850  1
  Se  Se190  1  0.24086294  0.58754632  0.83008237  1
  Se  Se191  1  0.24552243  0.91261822  0.29617920  1
  Se  Se192  1  0.24060826  0.92014583  0.81436633  1
  Se  Se193  1  0.58191671  0.25031014  0.29947787  1
  Se  Se194  1  0.58877645  0.25609240  0.80635445  1
  Se  Se195  1  0.61180644  0.60566875  0.30158391  1
  Se  Se196  1  0.58829099  0.58902707  0.80255203  1
  Se  Se197  1  0.57807729  0.90626812  0.30259156  1
  Se  Se198  1  0.58245597  0.91174828  0.81816931  1
  Se  Se199  1  0.91031920  0.25145642  0.31243849  1
  Se  Se200  1  0.90434686  0.23920857  0.80894941  1
  Se  Se201  1  0.92351391  0.58451007  0.29659272  1
  Se  Se202  1  0.91732482  0.57852383  0.80983115  1
  Se  Se203  1  0.91932128  0.92867177  0.29473759  1
  Se  Se204  1  0.91785646  0.91288474  0.80812451  1
  Se  Se205  1  0.07699334  0.07953554  0.29216252  1
  Se  Se206  1  0.07924747  0.07266361  0.81139854  1
  Se  Se207  1  0.09069362  0.42513967  0.30363053  1
  Se  Se208  1  0.07938379  0.42171108  0.82587992  1
  Se  Se209  1  0.07924369  0.74854318  0.29464246  1
  Se  Se210  1  0.07944618  0.74275592  0.81609714  1
  Se  Se211  1  0.41229240  0.08088940  0.29820899  1
  Se  Se212  1  0.42060399  0.09303796  0.80585761  1
  Se  Se213  1  0.42994793  0.42483751  0.30502538  1
  Se  Se214  1  0.42307728  0.43053966  0.81305700  1
  Se  Se215  1  0.41205679  0.74160295  0.29655864  1
  Se  Se216  1  0.42307021  0.75502015  0.80943136  1
  Se  Se217  1  0.74776218  0.08606014  0.30422778  1
  Se  Se218  1  0.75620042  0.08310404  0.81962207  1
  Se  Se219  1  0.75440977  0.41933018  0.29645306  1
  Se  Se220  1  0.74661067  0.41619921  0.80306857  1
  Se  Se221  1  0.79007118  0.77257700  0.28613336  1
  Se  Se222  1  0.74900216  0.74671103  0.80632514  1
  Se  Se223  1  0.25066662  0.07369387  0.18638294  1
  Se  Se224  1  0.24474474  0.09582934  0.68790775  1
  Se  Se225  1  0.24367478  0.41934649  0.18858506  1
  Se  Se226  1  0.23671339  0.43405343  0.70779277  1
  Se  Se227  1  0.25027291  0.74227373  0.19540072  1
  Se  Se228  1  0.24084236  0.76108080  0.69967972  1
  Se  Se229  1  0.58522122  0.08229489  0.20095079  1
  Se  Se230  1  0.58056885  0.08452212  0.69365392  1
  Se  Se231  1  0.58731029  0.41607890  0.19272576  1
  Se  Se232  1  0.58714636  0.41463024  0.69398335  1
  Se  Se233  1  0.58519539  0.74445546  0.19769979  1
  Se  Se234  1  0.59197522  0.74386638  0.70154542  1
  Se  Se235  1  0.91910383  0.09275596  0.19808810  1
  Se  Se236  1  0.92208507  0.06951486  0.70405651  1
  Se  Se237  1  0.91839117  0.42932994  0.18007575  1
  Se  Se238  1  0.90818726  0.42016077  0.69029528  1
  Se  Se239  1  0.90281531  0.75879665  0.19004063  1
  Se  Se240  1  0.92259719  0.74163485  0.69874293  1
  Se  Se241  1  0.09075622  0.24837377  0.18240499  1
  Se  Se242  1  0.08810676  0.24719871  0.69438881  1
  Se  Se243  1  0.07494825  0.59443720  0.19039332  1
  Se  Se244  1  0.07887223  0.58852008  0.70711188  1
  Se  Se245  1  0.08026762  0.91288621  0.18373849  1
  Se  Se246  1  0.08188814  0.91910270  0.70161665  1
  Se  Se247  1  0.42090940  0.24327825  0.18104740  1
  Se  Se248  1  0.42255766  0.25488253  0.69135535  1
  Se  Se249  1  0.41439712  0.57275700  0.20367413  1
  Se  Se250  1  0.42312191  0.57969031  0.69046159  1
  Se  Se251  1  0.41154947  0.91886073  0.19955858  1
  Se  Se252  1  0.43138782  0.90789152  0.68765076  1
  Se  Se253  1  0.74427473  0.25767209  0.20332793  1
  Se  Se254  1  0.75397324  0.23386112  0.69848678  1
  Se  Se255  1  0.75269473  0.58735732  0.18618890  1
  Se  Se256  1  0.74887509  0.58352102  0.69398863  1
  Se  Se257  1  0.72936419  0.93692635  0.19664224  1
  Se  Se258  1  0.76261624  0.90082905  0.68923908  1
