# generated using pymatgen
data_In86Cu29Se144
_symmetry_space_group_name_H-M   'P 1'
_cell_length_a   17.57624622
_cell_length_b   17.57481984
_cell_length_c   23.43308791
_cell_angle_alpha   90.00003210
_cell_angle_beta   90.00570610
_cell_angle_gamma   89.99824423
_symmetry_Int_Tables_number   1
_chemical_formula_structural   In86Cu29Se144
_chemical_formula_sum   'In86 Cu29 Se144'
_cell_volume   7238.46583620
_cell_formula_units_Z   1
loop_
 _symmetry_equiv_pos_site_id
 _symmetry_equiv_pos_as_xyz
  1  'x, y, z'
loop_
 _atom_site_type_symbol
 _atom_site_label
 _atom_site_symmetry_multiplicity
 _atom_site_fract_x
 _atom_site_fract_y
 _atom_site_fract_z
 _atom_site_occupancy
  In  In0  1  -0.01391123  0.16767924  0.12464905  1
  In  In1  1  -0.00227945  0.17602635  0.63492896  1
  In  In2  1  0.01294810  0.50051160  0.12382777  1
  In  In3  1  -0.00137244  0.48521254  0.62422890  1
  In  In4  1  -0.00227588  0.83648705  0.13375983  1
  In  In5  1  0.01257374  0.83509417  0.61987971  1
  In  In6  1  0.34791123  0.16205903  0.11455572  1
  In  In7  1  0.33948490  0.16090089  0.63630110  1
  In  In8  1  0.34619265  0.51576461  0.10727678  1
  In  In9  1  0.33461869  0.50138864  0.62681542  1
  In  In10  1  0.32254581  0.82844710  0.12272819  1
  In  In11  1  0.32588526  0.83998905  0.63090272  1
  In  In12  1  0.67071365  0.17394203  0.11653694  1
  In  In13  1  0.66699280  0.17315629  0.62768229  1
  In  In14  1  0.65821942  0.50634521  0.13437487  1
  In  In15  1  0.65540570  0.51169546  0.63590745  1
  In  In16  1  0.65859256  0.81939376  0.12640705  1
  In  In17  1  0.66840107  0.82949620  0.62935066  1
  In  In18  1  0.14771602  -0.00371114  0.38230675  1
  In  In19  1  0.17424380  0.01629421  0.85189187  1
  In  In20  1  0.18030771  0.33592167  0.38322200  1
  In  In21  1  0.18515062  0.33716065  0.85103811  1
  In  In22  1  0.16837493  0.66712390  0.37864495  1
  In  In23  1  0.17686794  0.65266762  0.88126789  1
  In  In24  1  0.50835756  0.00467797  0.38184394  1
  In  In25  1  0.50823399  0.00500305  0.86783297  1
  In  In26  1  0.51134911  0.32765035  0.38419737  1
  In  In27  1  0.49803240  0.33334398  0.87312166  1
  In  In28  1  0.49333069  0.65831876  0.37246092  1
  In  In29  1  0.48532614  0.65426831  0.87084361  1
  In  In30  1  0.85038689  -0.00012592  0.38447637  1
  In  In31  1  0.84399838  0.01234119  0.86548883  1
  In  In32  1  0.81870421  0.33759932  0.37815681  1
  In  In33  1  0.81557561  0.32750064  0.86241674  1
  In  In34  1  0.83090501  0.64887106  0.35956155  1
  In  In35  1  0.82785435  0.67473685  0.87415200  1
  In  In36  1  -0.00231618  0.14999825  0.37881984  1
  In  In37  1  -0.00482163  0.16569521  0.86738718  1
  In  In38  1  -0.00140719  0.51211246  0.37542317  1
  In  In39  1  0.01486133  0.49908606  0.87420219  1
  In  In40  1  0.00794877  0.83660436  0.37452159  1
  In  In41  1  -0.00535649  0.84212230  0.86998670  1
  In  In42  1  0.34123324  0.17477430  0.38110038  1
  In  In43  1  0.33750054  0.17319274  0.86397821  1
  In  In44  1  0.32673987  0.51072663  0.38538863  1
  In  In45  1  0.33745571  0.49978661  0.87547426  1
  In  In46  1  0.33504262  0.81597497  0.37553151  1
  In  In47  1  0.33267469  0.83111981  0.86861722  1
  In  In48  1  0.66309731  0.17474875  0.38623594  1
  In  In49  1  0.66622089  0.16960394  0.87357005  1
  In  In50  1  0.66483182  0.48942501  0.36920747  1
  In  In51  1  0.64731052  0.48380538  0.86071561  1
  In  In52  1  0.67582509  0.82669949  0.37631236  1
  In  In53  1  0.65654617  0.82724383  0.86321132  1
  In  In54  1  0.16497347  -0.01185609  0.12239102  1
  In  In55  1  0.17066840  0.00163339  0.63678049  1
  In  In56  1  0.15965189  0.34530579  0.12242031  1
  In  In57  1  0.16006989  0.33895470  0.63494507  1
  In  In58  1  0.17772456  0.65903959  0.13464153  1
  In  In59  1  0.17368306  0.67741815  0.61780419  1
  In  In60  1  0.49745937  0.01287435  0.11679320  1
  In  In61  1  0.49198047  0.01332564  0.63266340  1
  In  In62  1  0.50480061  0.34157003  0.11583287  1
  In  In63  1  0.49969190  0.33700694  0.62880522  1
  In  In64  1  0.50359715  0.65552129  0.13070027  1
  In  In65  1  0.51086069  0.65104751  0.62835412  1
  In  In66  1  0.83291166  0.01231895  0.12404619  1
  In  In67  1  0.82546193  0.00714011  0.62859864  1
  In  In68  1  0.82902557  0.31694852  0.12217850  1
  In  In69  1  0.84472814  0.33256363  0.63649435  1
  In  In70  1  0.83309582  0.66041768  0.14032625  1
  In  In71  1  0.81699823  0.65510621  0.62617386  1
  In  In72  1  0.33179114  -0.00516962  0.24298500  1
  In  In73  1  0.49505301  0.83489850  0.49931821  1
  In  In74  1  0.17055200  0.17183592  -0.01420577  1
  In  In75  1  0.50101582  0.83543053  0.00143759  1
  In  In76  1  -0.00081791  0.67110221  0.74566435  1
  In  In77  1  0.82936817  0.83984779  -0.00110809  1
  In  In78  1  0.16888603  0.83584408  -0.00664273  1
  In  In79  1  -0.00955286  0.34004035  0.25154441  1
  In  In80  1  0.17030930  0.16884102  0.51549113  1
  In  In81  1  0.33496418  0.33632379  0.24949054  1
  In  In82  1  0.83074918  0.49531797  -0.00181779  1
  In  In83  1  0.83614978  0.83015089  0.50206909  1
  In  In84  1  0.67334147  -0.00878026  0.25184513  1
  In  In85  1  0.83174786  0.49675190  0.49799885  1
  Cu  Cu86  1  0.49513448  0.49302307  0.24903409  1
  Cu  Cu87  1  0.00446277  0.32718647  0.50882142  1
  Cu  Cu88  1  0.32666082  0.00316514  0.51040817  1
  Cu  Cu89  1  0.00839456  0.66705552  0.00451768  1
  Cu  Cu90  1  0.00247067  0.66637572  0.49505894  1
  Cu  Cu91  1  0.16825573  0.50659914  0.25234391  1
  Cu  Cu92  1  0.33360923  0.66579293  0.50304388  1
  Cu  Cu93  1  0.49647276  0.83471368  0.74470685  1
  Cu  Cu94  1  0.67214253  0.00826819  -0.00872598  1
  Cu  Cu95  1  0.83856094  0.82882747  0.25673453  1
  Cu  Cu96  1  0.32875940  0.33368063  -0.01145388  1
  Cu  Cu97  1  0.15920367  0.16049312  0.24976626  1
  Cu  Cu98  1  0.49747337  0.82134953  0.24847177  1
  Cu  Cu99  1  0.66107309  0.33175466  -0.00703012  1
  Cu  Cu100  1  -0.00040271  0.33194016  -0.00218970  1
  Cu  Cu101  1  0.66323443  0.00987655  0.50748305  1
  Cu  Cu102  1  0.16791757  0.82939470  0.74784527  1
  Cu  Cu103  1  0.66104035  0.65557331  0.00274009  1
  Cu  Cu104  1  0.34511144  0.34110205  0.50430034  1
  Cu  Cu105  1  0.82715163  0.83589930  0.74702035  1
  Cu  Cu106  1  0.16230212  0.83130879  0.25305605  1
  Cu  Cu107  1  0.00129250  0.01285811  -0.00783832  1
  Cu  Cu108  1  0.50769481  0.17273989  0.75052248  1
  Cu  Cu109  1  0.82757219  0.16786302  0.74924349  1
  Cu  Cu110  1  0.49370816  0.49777130  0.75115675  1
  Cu  Cu111  1  0.17277299  0.50503638  0.74949998  1
  Cu  Cu112  1  0.83169501  0.16032751  0.24941201  1
  Cu  Cu113  1  0.66713996  0.33612567  0.50765679  1
  Cu  Cu114  1  0.50893370  0.17026755  0.25576446  1
  Se  Se115  1  0.08375541  0.08553436  0.05681483  1
  Se  Se116  1  0.07578009  0.07843684  0.56670654  1
  Se  Se117  1  0.08222788  0.41920128  0.04672831  1
  Se  Se118  1  0.08949626  0.41488143  0.55438028  1
  Se  Se119  1  0.08306997  0.75239104  0.06300437  1
  Se  Se120  1  0.08475233  0.75115072  0.54738993  1
  Se  Se121  1  0.41814045  0.08086528  0.04135864  1
  Se  Se122  1  0.41371308  0.08814412  0.55632632  1
  Se  Se123  1  0.41251866  0.41191698  0.04717276  1
  Se  Se124  1  0.42573616  0.42640255  0.55767832  1
  Se  Se125  1  0.41451096  0.74261863  0.06119901  1
  Se  Se126  1  0.41232081  0.74640344  0.56479030  1
  Se  Se127  1  0.75415546  0.08693493  0.05027726  1
  Se  Se128  1  0.75061519  0.09155225  0.55653684  1
  Se  Se129  1  0.73875954  0.40901088  0.05950310  1
  Se  Se130  1  0.74919663  0.41428160  0.56751462  1
  Se  Se131  1  0.74766642  0.73684538  0.05712383  1
  Se  Se132  1  0.73792851  0.73959563  0.55281536  1
  Se  Se133  1  0.25365996  0.25830431  0.05823068  1
  Se  Se134  1  0.26394618  0.26248194  0.56667147  1
  Se  Se135  1  0.23422755  0.57766951  0.05423557  1
  Se  Se136  1  0.24991239  0.58134194  0.55556108  1
  Se  Se137  1  0.26368605  0.92890193  0.05058866  1
  Se  Se138  1  0.24326361  0.91956256  0.56016057  1
  Se  Se139  1  0.57872088  0.24742097  0.04961069  1
  Se  Se140  1  0.58068967  0.25257416  0.55838838  1
  Se  Se141  1  0.57790371  0.57390699  0.05576036  1
  Se  Se142  1  0.58998855  0.58064650  0.55263277  1
  Se  Se143  1  0.60042636  0.92618989  0.05790229  1
  Se  Se144  1  0.58399142  0.92341637  0.56249052  1
  Se  Se145  1  0.91579410  0.24795612  0.04846547  1
  Se  Se146  1  0.91556923  0.25037978  0.56006977  1
  Se  Se147  1  0.91855209  0.59052897  0.05912699  1
  Se  Se148  1  0.92304417  0.58963884  0.55884781  1
  Se  Se149  1  0.92786251  0.92773715  0.05521531  1
  Se  Se150  1  0.91952816  0.92463591  0.56019993  1
  Se  Se151  1  0.08274803  0.25074660  0.44283697  1
  Se  Se152  1  0.08043952  0.26318654  0.92985833  1
  Se  Se153  1  0.08769866  0.57889504  0.44738984  1
  Se  Se154  1  0.08578517  0.58115099  0.95006558  1
  Se  Se155  1  0.07530853  0.91388491  0.45340962  1
  Se  Se156  1  0.08185994  0.93095645  0.93511722  1
  Se  Se157  1  0.42213479  0.25005729  0.45261212  1
  Se  Se158  1  0.41390272  0.24784665  0.94067416  1
  Se  Se159  1  0.42069685  0.58389321  0.45173341  1
  Se  Se160  1  0.41600130  0.57950099  0.94869176  1
  Se  Se161  1  0.40223524  0.92758338  0.44091221  1
  Se  Se162  1  0.41595034  0.92073446  0.93610173  1
  Se  Se163  1  0.75171659  0.25341249  0.45360212  1
  Se  Se164  1  0.75076583  0.25158293  0.94404575  1
  Se  Se165  1  0.74371334  0.58757559  0.43868485  1
  Se  Se166  1  0.74138433  0.58393965  0.93719483  1
  Se  Se167  1  0.74008345  0.92667322  0.44620587  1
  Se  Se168  1  0.74314793  0.92096855  0.93128321  1
  Se  Se169  1  0.25186385  0.08157601  0.44185036  1
  Se  Se170  1  0.25898317  0.07495755  0.93402780  1
  Se  Se171  1  0.25320087  0.41929556  0.45451838  1
  Se  Se172  1  0.24306052  0.41293530  0.93553915  1
  Se  Se173  1  0.24997967  0.75071081  0.45034082  1
  Se  Se174  1  0.26537414  0.74115023  0.94644492  1
  Se  Se175  1  0.57788923  0.09070403  0.45336903  1
  Se  Se176  1  0.58138939  0.08706328  0.94276846  1
  Se  Se177  1  0.58872867  0.41941960  0.44930748  1
  Se  Se178  1  0.57787319  0.41871680  0.94442503  1
  Se  Se179  1  0.58537238  0.74476770  0.44102241  1
  Se  Se180  1  0.58755479  0.74162418  0.94166481  1
  Se  Se181  1  0.91205893  0.09183173  0.45546709  1
  Se  Se182  1  0.91200018  0.09274049  0.94375911  1
  Se  Se183  1  0.92869978  0.40611243  0.44167564  1
  Se  Se184  1  0.91920134  0.40990267  0.93469994  1
  Se  Se185  1  0.91429216  0.73727645  0.43483090  1
  Se  Se186  1  0.92748856  0.74638359  0.94498162  1
  Se  Se187  1  0.24304919  0.23898441  0.30695064  1
  Se  Se188  1  0.23092890  0.21991666  0.79362588  1
  Se  Se189  1  0.25326522  0.58604370  0.30783123  1
  Se  Se190  1  0.25662876  0.58598405  0.80395045  1
  Se  Se191  1  0.24614941  0.91310850  0.31239258  1
  Se  Se192  1  0.25344029  0.91453845  0.79821596  1
  Se  Se193  1  0.59111997  0.25310210  0.30824668  1
  Se  Se194  1  0.58869797  0.25764027  0.80454273  1
  Se  Se195  1  0.57799064  0.57584127  0.30510315  1
  Se  Se196  1  0.57835244  0.58723189  0.80062076  1
  Se  Se197  1  0.57293507  0.90491063  0.30968416  1
  Se  Se198  1  0.58280377  0.91802802  0.79648568  1
  Se  Se199  1  0.91000612  0.24164475  0.31187503  1
  Se  Se200  1  0.91318894  0.25248451  0.80074128  1
  Se  Se201  1  0.92247839  0.57346944  0.29516785  1
  Se  Se202  1  0.91771954  0.58475390  0.81320829  1
  Se  Se203  1  0.91757173  0.91701831  0.30816554  1
  Se  Se204  1  0.91452814  0.91730427  0.79748267  1
  Se  Se205  1  0.08026624  0.07730976  0.30432564  1
  Se  Se206  1  0.05636717  0.06469609  0.80080919  1
  Se  Se207  1  0.09517089  0.41762912  0.31063246  1
  Se  Se208  1  0.08476764  0.41994960  0.79678289  1
  Se  Se209  1  0.08282398  0.74557391  0.30761634  1
  Se  Se210  1  0.09178417  0.75150597  0.81359936  1
  Se  Se211  1  0.42210767  0.08631119  0.30718508  1
  Se  Se212  1  0.42224094  0.08588931  0.79982328  1
  Se  Se213  1  0.41992277  0.41902455  0.31753503  1
  Se  Se214  1  0.41108155  0.41218108  0.80375524  1
  Se  Se215  1  0.41214770  0.74081649  0.30095807  1
  Se  Se216  1  0.41790627  0.74993326  0.80181654  1
  Se  Se217  1  0.75388346  0.08407039  0.31560909  1
  Se  Se218  1  0.74486751  0.08334822  0.80313937  1
  Se  Se219  1  0.76055640  0.42183615  0.30144473  1
  Se  Se220  1  0.75899486  0.43510810  0.80053133  1
  Se  Se221  1  0.74765519  0.74665682  0.30194877  1
  Se  Se222  1  0.74817512  0.74744472  0.79906649  1
  Se  Se223  1  0.24472528  0.09320373  0.18481372  1
  Se  Se224  1  0.24004146  0.09742361  0.70343117  1
  Se  Se225  1  0.24744622  0.42758715  0.18986291  1
  Se  Se226  1  0.25460553  0.41737897  0.69783876  1
  Se  Se227  1  0.25215701  0.75282579  0.20091375  1
  Se  Se228  1  0.25183598  0.74483355  0.69719691  1
  Se  Se229  1  0.58326945  0.08522175  0.19393363  1
  Se  Se230  1  0.58784517  0.08550060  0.69715680  1
  Se  Se231  1  0.57911165  0.40966542  0.19644463  1
  Se  Se232  1  0.58236302  0.41620489  0.70078562  1
  Se  Se233  1  0.58646316  0.73885793  0.20022623  1
  Se  Se234  1  0.58132019  0.74846896  0.69481025  1
  Se  Se235  1  0.91936270  0.07924628  0.19879539  1
  Se  Se236  1  0.91255752  0.08527945  0.69708190  1
  Se  Se237  1  0.90780347  0.42108769  0.18149843  1
  Se  Se238  1  0.91903261  0.42493772  0.70282208  1
  Se  Se239  1  0.92156356  0.74753487  0.20067931  1
  Se  Se240  1  0.90647575  0.75764597  0.68310212  1
  Se  Se241  1  0.08497884  0.24763451  0.19160710  1
  Se  Se242  1  0.09041055  0.24664077  0.70223743  1
  Se  Se243  1  0.08069307  0.58553016  0.19885808  1
  Se  Se244  1  0.09021761  0.58113692  0.68649673  1
  Se  Se245  1  0.08482008  0.92018127  0.19926279  1
  Se  Se246  1  0.08129790  0.91266493  0.69836442  1
  Se  Se247  1  0.42538783  0.24273627  0.19207691  1
  Se  Se248  1  0.41873269  0.25356301  0.69954703  1
  Se  Se249  1  0.41119648  0.57631483  0.19568113  1
  Se  Se250  1  0.41513377  0.58569800  0.69732394  1
  Se  Se251  1  0.42929719  0.90748921  0.18473438  1
  Se  Se252  1  0.41184418  0.92249547  0.69693033  1
  Se  Se253  1  0.74730273  0.24297840  0.19674091  1
  Se  Se254  1  0.74708868  0.25626074  0.69831122  1
  Se  Se255  1  0.74599316  0.57968717  0.20260707  1
  Se  Se256  1  0.75569024  0.57440335  0.70359349  1
  Se  Se257  1  0.76181074  0.90261641  0.18699376  1
  Se  Se258  1  0.74332954  0.92079628  0.69566736  1
