# generated using pymatgen
data_In86Cu29Se144
_symmetry_space_group_name_H-M   'P 1'
_cell_length_a   17.55632180
_cell_length_b   17.55473314
_cell_length_c   23.41514897
_cell_angle_alpha   90.00731479
_cell_angle_beta   90.00115453
_cell_angle_gamma   90.02889127
_symmetry_Int_Tables_number   1
_chemical_formula_structural   In86Cu29Se144
_chemical_formula_sum   'In86 Cu29 Se144'
_cell_volume   7216.46701229
_cell_formula_units_Z   1
loop_
 _symmetry_equiv_pos_site_id
 _symmetry_equiv_pos_as_xyz
  1  'x, y, z'
loop_
 _atom_site_type_symbol
 _atom_site_label
 _atom_site_symmetry_multiplicity
 _atom_site_fract_x
 _atom_site_fract_y
 _atom_site_fract_z
 _atom_site_occupancy
  In  In0  1  -0.00593183  0.17297357  0.13360115  1
  In  In1  1  0.00686102  0.15353681  0.62620030  1
  In  In2  1  -0.00547154  0.50657919  0.13098275  1
  In  In3  1  0.00691143  0.50069436  0.61397109  1
  In  In4  1  0.00353680  0.82955047  0.13509684  1
  In  In5  1  0.00263287  0.83657098  0.62506567  1
  In  In6  1  0.34648938  0.15480792  0.14115698  1
  In  In7  1  0.31070352  0.17718496  0.64874964  1
  In  In8  1  0.32366279  0.49449242  0.12477734  1
  In  In9  1  0.31723775  0.51317321  0.63473622  1
  In  In10  1  0.34573396  0.84199119  0.11638293  1
  In  In11  1  0.30701744  0.84858433  0.64477827  1
  In  In12  1  0.67358878  0.17046378  0.11557397  1
  In  In13  1  0.65706161  0.16637864  0.62949480  1
  In  In14  1  0.66853595  0.48275871  0.12326559  1
  In  In15  1  0.68043089  0.51982047  0.61835063  1
  In  In16  1  0.65950313  0.84763330  0.12178268  1
  In  In17  1  0.68620193  0.81697285  0.63836999  1
  In  In18  1  0.16743013  0.00062665  0.37662375  1
  In  In19  1  0.17559248  0.01100493  0.84159812  1
  In  In20  1  0.15952086  0.33200913  0.38669679  1
  In  In21  1  0.18014952  0.31757895  0.86980273  1
  In  In22  1  0.15268326  0.68008009  0.38913966  1
  In  In23  1  0.16952874  0.68069104  0.84866738  1
  In  In24  1  0.49068262  0.01743834  0.37132629  1
  In  In25  1  0.49684573  -0.00343559  0.88019353  1
  In  In26  1  0.49221741  0.31719536  0.35472487  1
  In  In27  1  0.48635857  0.32971123  0.87611372  1
  In  In28  1  0.49608704  0.67507867  0.37658249  1
  In  In29  1  0.51254431  0.67816340  0.86863331  1
  In  In30  1  0.83861039  -0.01815764  0.38157562  1
  In  In31  1  0.83903759  0.00921950  0.87012728  1
  In  In32  1  0.84830957  0.34668113  0.36660902  1
  In  In33  1  0.82962071  0.34071895  0.88416791  1
  In  In34  1  0.85057876  0.64000270  0.39758845  1
  In  In35  1  0.83503091  0.66118070  0.86214939  1
  In  In36  1  0.01782575  0.18047425  0.37088649  1
  In  In37  1  -0.00186349  0.15781011  0.87370871  1
  In  In38  1  -0.00447808  0.49877400  0.38394906  1
  In  In39  1  -0.00946459  0.50206697  0.87356043  1
  In  In40  1  0.00387703  0.83043493  0.37648776  1
  In  In41  1  0.01077367  0.83633637  0.85556761  1
  In  In42  1  0.32569579  0.15803644  0.36572411  1
  In  In43  1  0.33385970  0.16862822  0.87135234  1
  In  In44  1  0.32925784  0.48592446  0.37880953  1
  In  In45  1  0.32972282  0.49220529  0.86357906  1
  In  In46  1  0.32101317  0.83587406  0.37768910  1
  In  In47  1  0.34809495  0.85530291  0.85374088  1
  In  In48  1  0.65480742  0.17250063  0.36970409  1
  In  In49  1  0.67325897  0.15888163  0.88175505  1
  In  In50  1  0.69430460  0.49219994  0.38156484  1
  In  In51  1  0.67617317  0.51305070  0.87196630  1
  In  In52  1  0.67556580  0.83693147  0.38394739  1
  In  In53  1  0.66128019  0.82548971  0.87097944  1
  In  In54  1  0.16491380  0.00203167  0.13206313  1
  In  In55  1  0.16580001  -0.00224036  0.62597745  1
  In  In56  1  0.17699982  0.32438981  0.14081930  1
  In  In57  1  0.16747711  0.33970778  0.61229980  1
  In  In58  1  0.16032710  0.65793242  0.12736410  1
  In  In59  1  0.16283198  0.66850293  0.62497346  1
  In  In60  1  0.48781156  0.00015991  0.11367582  1
  In  In61  1  0.49262067  0.00221822  0.63512133  1
  In  In62  1  0.51477697  0.31311516  0.14322789  1
  In  In63  1  0.49427864  0.31867521  0.62425823  1
  In  In64  1  0.49285684  0.67770516  0.11949295  1
  In  In65  1  0.49538293  0.66948168  0.63510757  1
  In  In66  1  0.82991627  0.00661828  0.12501997  1
  In  In67  1  0.85241917  -0.01342799  0.63788622  1
  In  In68  1  0.83204445  0.33106743  0.12450021  1
  In  In69  1  0.83759944  0.34956184  0.61506458  1
  In  In70  1  0.85202850  0.66541225  0.12315190  1
  In  In71  1  0.82855784  0.66821621  0.62563778  1
  In  In72  1  0.16037266  0.50053188  0.00142556  1
  In  In73  1  0.83134822  0.83240668  -0.00677403  1
  In  In74  1  0.50117007  0.83210031  0.50658687  1
  In  In75  1  0.50657582  0.49704788  -0.00341166  1
  In  In76  1  0.49448437  0.16248217  0.49524643  1
  In  In77  1  0.16526859  0.16131063  -0.00946202  1
  In  In78  1  0.83977719  0.16461252  0.50135079  1
  In  In79  1  0.32286979  0.66481802  0.24352215  1
  In  In80  1  0.00494906  0.33918168  0.74091053  1
  In  In81  1  0.67008065  0.00101370  0.25040542  1
  In  In82  1  0.67210916  0.66047542  0.25965653  1
  In  In83  1  0.49808742  0.49553134  0.49864908  1
  In  In84  1  0.66533473  0.34066174  0.74936468  1
  In  In85  1  0.16841823  0.83896081  -0.01114156  1
  Cu  Cu86  1  0.67245460  0.34137701  0.49034117  1
  Cu  Cu87  1  0.16534144  0.49462505  0.74093979  1
  Cu  Cu88  1  0.67759656  -0.00841635  0.51097477  1
  Cu  Cu89  1  0.00751963  -0.00506923  0.50164515  1
  Cu  Cu90  1  0.16738787  0.84235944  0.25594869  1
  Cu  Cu91  1  0.32573818  -0.00003858  0.50593584  1
  Cu  Cu92  1  0.50086902  0.49448736  0.25391636  1
  Cu  Cu93  1  0.83177030  0.17365422  0.75166877  1
  Cu  Cu94  1  0.50142825  0.83448467  0.75240153  1
  Cu  Cu95  1  0.16192262  0.16950448  0.25601637  1
  Cu  Cu96  1  0.34190014  0.67448548  -0.01215818  1
  Cu  Cu97  1  0.83241368  0.83715501  0.74899899  1
  Cu  Cu98  1  -0.00353431  0.67085646  0.50641617  1
  Cu  Cu99  1  -0.00711949  0.33684869  0.00548156  1
  Cu  Cu100  1  0.33797524  0.32522700  0.00401746  1
  Cu  Cu101  1  0.67361517  0.66738287  -0.00646612  1
  Cu  Cu102  1  0.83376118  0.16499307  0.24800936  1
  Cu  Cu103  1  -0.00434246  -0.00027052  -0.00396640  1
  Cu  Cu104  1  0.15535414  0.50322892  0.26008779  1
  Cu  Cu105  1  0.49841175  0.84302859  0.24357083  1
  Cu  Cu106  1  0.84508914  0.82171662  0.25668012  1
  Cu  Cu107  1  -0.00074320  0.66455410  -0.00451168  1
  Cu  Cu108  1  0.65728611  0.00232113  -0.00011176  1
  Cu  Cu109  1  0.32509903  0.66786538  0.51073960  1
  Cu  Cu110  1  0.83555668  0.49460846  0.25286651  1
  Cu  Cu111  1  0.66947197  0.32838367  0.00196662  1
  Cu  Cu112  1  0.50279491  0.49228005  0.75081259  1
  Cu  Cu113  1  0.49992991  0.15819741  0.75424457  1
  Cu  Cu114  1  0.32404217  0.33130875  0.50451974  1
  Se  Se115  1  0.07512889  0.07951553  0.05835500  1
  Se  Se116  1  0.08983364  0.08169406  0.55196690  1
  Se  Se117  1  0.08234730  0.40617364  0.06660885  1
  Se  Se118  1  0.07549907  0.40818502  0.54510379  1
  Se  Se119  1  0.07999868  0.74637143  0.05484293  1
  Se  Se120  1  0.08493309  0.75363588  0.55483187  1
  Se  Se121  1  0.40617851  0.09266883  0.05331309  1
  Se  Se122  1  0.40718652  0.08334989  0.56377415  1
  Se  Se123  1  0.41643563  0.41224757  0.06049938  1
  Se  Se124  1  0.40743210  0.41130447  0.56350531  1
  Se  Se125  1  0.42121263  0.75738497  0.04422713  1
  Se  Se126  1  0.40447079  0.75204669  0.56815581  1
  Se  Se127  1  0.75083024  0.07865756  0.04950735  1
  Se  Se128  1  0.75101761  0.08037111  0.56820374  1
  Se  Se129  1  0.75461139  0.41528072  0.05022110  1
  Se  Se130  1  0.74729691  0.42491184  0.54834751  1
  Se  Se131  1  0.74590205  0.74627970  0.06210933  1
  Se  Se132  1  0.74919607  0.75208070  0.55372613  1
  Se  Se133  1  0.24807975  0.24817353  0.05923092  1
  Se  Se134  1  0.25176495  0.23810096  0.55817122  1
  Se  Se135  1  0.26096261  0.59707557  0.05229972  1
  Se  Se136  1  0.24035776  0.57719336  0.55425857  1
  Se  Se137  1  0.25119273  0.92868278  0.05535964  1
  Se  Se138  1  0.24581007  0.90963673  0.55537918  1
  Se  Se139  1  0.57839126  0.25256653  0.05455769  1
  Se  Se140  1  0.59323761  0.25719727  0.54946482  1
  Se  Se141  1  0.59307890  0.59035108  0.05937651  1
  Se  Se142  1  0.57795642  0.59492748  0.55643162  1
  Se  Se143  1  0.57446057  0.91430550  0.04835463  1
  Se  Se144  1  0.58769471  0.92071918  0.56983015  1
  Se  Se145  1  0.91547470  0.24511443  0.05641151  1
  Se  Se146  1  0.92881870  0.25466524  0.56079552  1
  Se  Se147  1  0.91994604  0.57870582  0.04986861  1
  Se  Se148  1  0.91184415  0.58446359  0.55549211  1
  Se  Se149  1  0.92314834  0.91528007  0.05877077  1
  Se  Se150  1  0.91724561  0.91788316  0.55386879  1
  Se  Se151  1  0.08479108  0.24226910  0.45551319  1
  Se  Se152  1  0.07293654  0.26231606  0.94016944  1
  Se  Se153  1  0.07881317  0.58476079  0.45227598  1
  Se  Se154  1  0.08781836  0.59491673  0.93379736  1
  Se  Se155  1  0.08963612  0.91201082  0.44493754  1
  Se  Se156  1  0.07683363  0.93012718  0.93124423  1
  Se  Se157  1  0.40714936  0.25857259  0.43944066  1
  Se  Se158  1  0.41640181  0.24148873  0.94750950  1
  Se  Se159  1  0.40385172  0.59380844  0.44390879  1
  Se  Se160  1  0.41463944  0.58177798  0.93287593  1
  Se  Se161  1  0.41417807  0.92707406  0.44416895  1
  Se  Se162  1  0.41061847  0.90895011  0.94330072  1
  Se  Se163  1  0.74908980  0.25096850  0.43603939  1
  Se  Se164  1  0.75478459  0.24683207  0.94805302  1
  Se  Se165  1  0.73183084  0.59455648  0.45275976  1
  Se  Se166  1  0.76169371  0.58801459  0.94335964  1
  Se  Se167  1  0.75916226  0.90843085  0.45771668  1
  Se  Se168  1  0.74144192  0.92612063  0.93783975  1
  Se  Se169  1  0.25230854  0.08503969  0.44472358  1
  Se  Se170  1  0.24964774  0.06670642  0.93170313  1
  Se  Se171  1  0.24409246  0.42009252  0.45370444  1
  Se  Se172  1  0.25613930  0.40735825  0.94506629  1
  Se  Se173  1  0.24982211  0.75531097  0.45234355  1
  Se  Se174  1  0.25461822  0.74630391  0.92885315  1
  Se  Se175  1  0.59800888  0.06971259  0.44543091  1
  Se  Se176  1  0.57668477  0.08839399  0.94650458  1
  Se  Se177  1  0.58037116  0.40671101  0.42946996  1
  Se  Se178  1  0.59579164  0.40727013  0.93391967  1
  Se  Se179  1  0.59195323  0.74089703  0.44696754  1
  Se  Se180  1  0.58424650  0.75135078  0.94867754  1
  Se  Se181  1  0.92839915  0.07645055  0.43922990  1
  Se  Se182  1  0.91222502  0.08814154  0.94769616  1
  Se  Se183  1  0.90214065  0.42265216  0.44975622  1
  Se  Se184  1  0.91682119  0.42386974  0.94996105  1
  Se  Se185  1  0.91678340  0.75377507  0.44812239  1
  Se  Se186  1  0.92809041  0.75115825  0.93308312  1
  Se  Se187  1  0.24144770  0.25556704  0.31133717  1
  Se  Se188  1  0.25333106  0.24135829  0.79582474  1
  Se  Se189  1  0.24180373  0.58452762  0.31711541  1
  Se  Se190  1  0.24985409  0.57721126  0.79620369  1
  Se  Se191  1  0.25656568  0.92386687  0.30444625  1
  Se  Se192  1  0.21845896  0.88016773  0.80484279  1
  Se  Se193  1  0.58112143  0.23971229  0.28975293  1
  Se  Se194  1  0.58137741  0.24485363  0.81019304  1
  Se  Se195  1  0.57625558  0.57296513  0.31800131  1
  Se  Se196  1  0.58323255  0.57999179  0.80322435  1
  Se  Se197  1  0.57808069  0.91159769  0.31336610  1
  Se  Se198  1  0.58293136  0.91862760  0.80831166  1
  Se  Se199  1  0.91761155  0.24627540  0.30451828  1
  Se  Se200  1  0.91212254  0.25704179  0.80898685  1
  Se  Se201  1  0.91422318  0.57984910  0.30956753  1
  Se  Se202  1  0.93697351  0.59528773  0.80007585  1
  Se  Se203  1  0.92195261  0.91487791  0.30568306  1
  Se  Se204  1  0.91587611  0.92377822  0.80050823  1
  Se  Se205  1  0.08208481  0.07897689  0.30603773  1
  Se  Se206  1  0.08009260  0.10014349  0.79461933  1
  Se  Se207  1  0.07819599  0.41539127  0.31497186  1
  Se  Se208  1  0.09426763  0.41933190  0.81270233  1
  Se  Se209  1  0.08811859  0.75034130  0.30463919  1
  Se  Se210  1  0.07062595  0.74330170  0.78318870  1
  Se  Se211  1  0.42829294  0.10251535  0.29702855  1
  Se  Se212  1  0.41554317  0.07739682  0.80778028  1
  Se  Se213  1  0.40784920  0.41612933  0.30130353  1
  Se  Se214  1  0.41585167  0.40738227  0.79861646  1
  Se  Se215  1  0.41766249  0.75793511  0.30169023  1
  Se  Se216  1  0.41653812  0.74437071  0.80038721  1
  Se  Se217  1  0.76059225  0.08607213  0.31555794  1
  Se  Se218  1  0.74901190  0.08798396  0.80291131  1
  Se  Se219  1  0.74653304  0.41008212  0.29928853  1
  Se  Se220  1  0.76405912  0.42669092  0.80406501  1
  Se  Se221  1  0.76232943  0.74886482  0.31906553  1
  Se  Se222  1  0.74952124  0.75115218  0.80176543  1
  Se  Se223  1  0.24497105  0.08504385  0.20183603  1
  Se  Se224  1  0.26604818  0.05537213  0.69751623  1
  Se  Se225  1  0.24344504  0.42850291  0.20339400  1
  Se  Se226  1  0.24837309  0.40633009  0.69227501  1
  Se  Se227  1  0.24039898  0.76414780  0.18508393  1
  Se  Se228  1  0.26803498  0.72281733  0.69189724  1
  Se  Se229  1  0.58480869  0.07983216  0.18159283  1
  Se  Se230  1  0.58651138  0.07931985  0.70065734  1
  Se  Se231  1  0.58872865  0.41583157  0.20098536  1
  Se  Se232  1  0.57932930  0.42294458  0.68020212  1
  Se  Se233  1  0.58295312  0.75409380  0.19445036  1
  Se  Se234  1  0.58462793  0.74874674  0.70104584  1
  Se  Se235  1  0.91581272  0.07771236  0.19691441  1
  Se  Se236  1  0.91742523  0.08997771  0.70062385  1
  Se  Se237  1  0.91664033  0.41330218  0.19421141  1
  Se  Se238  1  0.90880526  0.43201167  0.69144224  1
  Se  Se239  1  0.92530412  0.73883105  0.20105887  1
  Se  Se240  1  0.91263880  0.75564350  0.69140087  1
  Se  Se241  1  0.07762256  0.25353740  0.20279293  1
  Se  Se242  1  0.09550563  0.24509890  0.68817898  1
  Se  Se243  1  0.07788380  0.58770217  0.20183886  1
  Se  Se244  1  0.08104690  0.57771877  0.69035128  1
  Se  Se245  1  0.08011913  0.92072110  0.19998411  1
  Se  Se246  1  0.07447326  0.92569087  0.69502845  1
  Se  Se247  1  0.38494750  0.28173789  0.18731434  1
  Se  Se248  1  0.42026860  0.24725739  0.70244895  1
  Se  Se249  1  0.42595677  0.57615447  0.18960295  1
  Se  Se250  1  0.41791270  0.57755941  0.69970325  1
  Se  Se251  1  0.41262928  0.92446828  0.19318200  1
  Se  Se252  1  0.41250413  0.91737222  0.70384786  1
  Se  Se253  1  0.74972856  0.24530485  0.19296536  1
  Se  Se254  1  0.75867817  0.25358064  0.68637490  1
  Se  Se255  1  0.75758160  0.57707496  0.18926345  1
  Se  Se256  1  0.74626353  0.59014446  0.69918934  1
  Se  Se257  1  0.76196806  0.90179663  0.19551937  1
  Se  Se258  1  0.74648670  0.92466171  0.70031617  1
