# generated using pymatgen
data_In86Cu29Se144
_symmetry_space_group_name_H-M   'P 1'
_cell_length_a   17.57850714
_cell_length_b   17.57881388
_cell_length_c   23.43824407
_cell_angle_alpha   90.00997833
_cell_angle_beta   89.99562063
_cell_angle_gamma   89.99634834
_symmetry_Int_Tables_number   1
_chemical_formula_structural   In86Cu29Se144
_chemical_formula_sum   'In86 Cu29 Se144'
_cell_volume   7242.63536799
_cell_formula_units_Z   1
loop_
 _symmetry_equiv_pos_site_id
 _symmetry_equiv_pos_as_xyz
  1  'x, y, z'
loop_
 _atom_site_type_symbol
 _atom_site_label
 _atom_site_symmetry_multiplicity
 _atom_site_fract_x
 _atom_site_fract_y
 _atom_site_fract_z
 _atom_site_occupancy
  In  In0  1  -0.01659227  0.16893249  0.12249238  1
  In  In1  1  -0.00383818  0.16291473  0.62774828  1
  In  In2  1  0.01078564  0.50750510  0.11481612  1
  In  In3  1  -0.00109519  0.50096619  0.61043694  1
  In  In4  1  -0.00097898  0.83497516  0.12385446  1
  In  In5  1  0.00625997  0.83228165  0.63186725  1
  In  In6  1  0.33410031  0.15254597  0.11369392  1
  In  In7  1  0.34309224  0.15584063  0.63894304  1
  In  In8  1  0.32845537  0.50701753  0.11898939  1
  In  In9  1  0.33566336  0.49998845  0.62494998  1
  In  In10  1  0.33159074  0.83417276  0.10538093  1
  In  In11  1  0.34253374  0.82142316  0.63801743  1
  In  In12  1  0.66713244  0.16841591  0.11825089  1
  In  In13  1  0.65664009  0.16557771  0.62846036  1
  In  In14  1  0.67398526  0.49288377  0.13376220  1
  In  In15  1  0.66854554  0.50972772  0.62157787  1
  In  In16  1  0.65802137  0.82419981  0.11981998  1
  In  In17  1  0.65768417  0.84587293  0.63984676  1
  In  In18  1  0.16391090  0.00004835  0.37109617  1
  In  In19  1  0.15653367  -0.00455050  0.87156396  1
  In  In20  1  0.16742160  0.33928988  0.37844412  1
  In  In21  1  0.18897217  0.33614940  0.88029026  1
  In  In22  1  0.15489812  0.66088705  0.36910680  1
  In  In23  1  0.17911203  0.66124571  0.87889329  1
  In  In24  1  0.49611727  0.00287082  0.38850630  1
  In  In25  1  0.49935738  -0.00604220  0.87699753  1
  In  In26  1  0.50666832  0.32628086  0.38252306  1
  In  In27  1  0.48021168  0.32897570  0.87203511  1
  In  In28  1  0.50372904  0.65769186  0.38323469  1
  In  In29  1  0.51077386  0.67921674  0.86461176  1
  In  In30  1  0.83628176  -0.01269596  0.37147036  1
  In  In31  1  0.83471644  -0.00552867  0.87384587  1
  In  In32  1  0.83332363  0.35612793  0.37469756  1
  In  In33  1  0.84028229  0.33140577  0.89269504  1
  In  In34  1  0.82853145  0.66066642  0.36416527  1
  In  In35  1  0.82452266  0.67533513  0.88564093  1
  In  In36  1  0.00499239  0.16195112  0.36885213  1
  In  In37  1  0.00119811  0.15445564  0.87823670  1
  In  In38  1  -0.01454448  0.50512845  0.38258877  1
  In  In39  1  0.00267151  0.49608770  0.89045279  1
  In  In40  1  0.00546895  0.82617557  0.35490768  1
  In  In41  1  -0.01105859  0.84685751  0.88546574  1
  In  In42  1  0.34260778  0.17636390  0.38143073  1
  In  In43  1  0.34460182  0.17396629  0.87190558  1
  In  In44  1  0.33081720  0.49236108  0.39196240  1
  In  In45  1  0.32643065  0.49574934  0.86546627  1
  In  In46  1  0.33813396  0.84294367  0.37930842  1
  In  In47  1  0.33634614  0.83632173  0.87679475  1
  In  In48  1  0.64919527  0.16704104  0.37745276  1
  In  In49  1  0.67840046  0.15601251  0.88026914  1
  In  In50  1  0.67004564  0.50554877  0.37309664  1
  In  In51  1  0.66884358  0.51249934  0.87205259  1
  In  In52  1  0.66721079  0.82125520  0.37490450  1
  In  In53  1  0.66823853  0.82855112  0.87314630  1
  In  In54  1  0.15988251  -0.03448585  0.11014937  1
  In  In55  1  0.16884608  0.00415562  0.63790083  1
  In  In56  1  0.14910932  0.33851502  0.11554716  1
  In  In57  1  0.17434069  0.35110636  0.61882550  1
  In  In58  1  0.16113292  0.66705920  0.12125869  1
  In  In59  1  0.17307373  0.66188102  0.62837449  1
  In  In60  1  0.49232132  0.00014902  0.10624789  1
  In  In61  1  0.50018299  -0.00331147  0.63222175  1
  In  In62  1  0.51072801  0.33794340  0.12502201  1
  In  In63  1  0.48569679  0.32283655  0.61248326  1
  In  In64  1  0.50164006  0.67659701  0.12485283  1
  In  In65  1  0.49909487  0.66793343  0.62454820  1
  In  In66  1  0.84159080  0.00877126  0.11713544  1
  In  In67  1  0.83636242  -0.00834664  0.64411260  1
  In  In68  1  0.82574757  0.32325686  0.11402544  1
  In  In69  1  0.82711839  0.34091624  0.62156906  1
  In  In70  1  0.83327314  0.66878287  0.12363823  1
  In  In71  1  0.83262527  0.65751614  0.62821055  1
  In  In72  1  0.33324272  0.33121524  0.25486040  1
  In  In73  1  0.82932737  0.82685187  0.49953499  1
  In  In74  1  0.49776220  0.49866001  -0.00549089  1
  In  In75  1  0.33260553  0.66871234  0.24389394  1
  In  In76  1  0.17192492  0.82880871  0.50095621  1
  In  In77  1  0.16616084  0.17069348  -0.00428044  1
  In  In78  1  -0.00916808  0.33679593  0.24617459  1
  In  In79  1  0.00823800  0.33187990  0.74819837  1
  In  In80  1  0.66280551  0.33625874  0.74601958  1
  In  In81  1  0.66811433  0.00006706  0.24620938  1
  In  In82  1  -0.00689781  0.67295013  0.75775868  1
  In  In83  1  0.17156426  0.17092132  0.49447002  1
  In  In84  1  0.82867001  0.17246564  0.50762529  1
  In  In85  1  0.32981988  -0.00505919  0.24690469  1
  Cu  Cu86  1  0.50253291  0.83425785  0.24755578  1
  Cu  Cu87  1  0.66255386  0.66740358  0.49902958  1
  Cu  Cu88  1  0.66899945  0.66419394  -0.00108115  1
  Cu  Cu89  1  0.17432556  0.16953643  0.75763661  1
  Cu  Cu90  1  -0.00282624  0.65983417  0.49236314  1
  Cu  Cu91  1  0.51050927  0.50043536  0.25641046  1
  Cu  Cu92  1  0.83501619  0.50800043  0.24664045  1
  Cu  Cu93  1  0.49585452  0.50565631  0.74617725  1
  Cu  Cu94  1  0.50221481  0.17089108  0.24984965  1
  Cu  Cu95  1  0.83724981  0.15887389  0.75554949  1
  Cu  Cu96  1  0.16868265  0.50345959  0.74852848  1
  Cu  Cu97  1  0.82480458  0.16949155  0.24236622  1
  Cu  Cu98  1  0.34136566  -0.00192473  0.51109684  1
  Cu  Cu99  1  0.83042108  0.50243944  0.75274163  1
  Cu  Cu100  1  0.49757037  0.83360739  0.75449586  1
  Cu  Cu101  1  0.33437683  0.66749526  -0.00486658  1
  Cu  Cu102  1  0.66779772  0.34427417  0.50000370  1
  Cu  Cu103  1  0.66017722  0.32972204  -0.00057180  1
  Cu  Cu104  1  0.33208608  0.66298868  0.50857222  1
  Cu  Cu105  1  0.00281178  0.67381353  0.00166459  1
  Cu  Cu106  1  0.50539733  0.16142571  0.75225572  1
  Cu  Cu107  1  0.16197773  0.15401106  0.24816674  1
  Cu  Cu108  1  0.16501041  0.50256821  0.24599776  1
  Cu  Cu109  1  0.16373613  0.83636188  0.75592661  1
  Cu  Cu110  1  -0.00129842  -0.00209573  0.49953502  1
  Cu  Cu111  1  0.66816200  -0.00469736  -0.00446208  1
  Cu  Cu112  1  0.83769354  0.83202833  0.24468682  1
  Cu  Cu113  1  0.65700855  0.00157870  0.50896658  1
  Cu  Cu114  1  -0.00381408  -0.00196245  -0.00160194  1
  Se  Se115  1  0.07787853  0.07990283  0.05918656  1
  Se  Se116  1  0.08259449  0.07619341  0.55677899  1
  Se  Se117  1  0.08323559  0.42268601  0.04257026  1
  Se  Se118  1  0.08149493  0.41341450  0.54944898  1
  Se  Se119  1  0.08765895  0.75840691  0.05319272  1
  Se  Se120  1  0.07343117  0.73926841  0.55707909  1
  Se  Se121  1  0.42635610  0.09659793  0.04043492  1
  Se  Se122  1  0.42252861  0.08470081  0.56167226  1
  Se  Se123  1  0.41021367  0.41050931  0.05824565  1
  Se  Se124  1  0.42183270  0.42681119  0.55352648  1
  Se  Se125  1  0.42252891  0.74637316  0.04819212  1
  Se  Se126  1  0.41367753  0.75266931  0.55613440  1
  Se  Se127  1  0.74762462  0.08206235  0.05142995  1
  Se  Se128  1  0.74940460  0.07062043  0.56637998  1
  Se  Se129  1  0.74046232  0.41565837  0.05363337  1
  Se  Se130  1  0.75245076  0.42620055  0.55225207  1
  Se  Se131  1  0.75002766  0.75014691  0.05286888  1
  Se  Se132  1  0.73939897  0.74579238  0.56407284  1
  Se  Se133  1  0.25363076  0.25940033  0.05995825  1
  Se  Se134  1  0.25685881  0.24377618  0.56707300  1
  Se  Se135  1  0.24859573  0.58879619  0.05111215  1
  Se  Se136  1  0.24415511  0.57870828  0.55544090  1
  Se  Se137  1  0.27771201  0.94705106  0.04828604  1
  Se  Se138  1  0.25414596  0.91950735  0.56612793  1
  Se  Se139  1  0.57643287  0.24804378  0.05267812  1
  Se  Se140  1  0.59285523  0.25386727  0.55465673  1
  Se  Se141  1  0.58737907  0.58352058  0.05978323  1
  Se  Se142  1  0.57933657  0.58465087  0.55295638  1
  Se  Se143  1  0.58447715  0.91304396  0.05013728  1
  Se  Se144  1  0.57925675  0.91187594  0.56019278  1
  Se  Se145  1  0.92478010  0.25779587  0.04886637  1
  Se  Se146  1  0.92825126  0.26109239  0.55952178  1
  Se  Se147  1  0.91796323  0.58918478  0.05349444  1
  Se  Se148  1  0.90921109  0.58680170  0.54975759  1
  Se  Se149  1  0.91359265  0.91341818  0.05211264  1
  Se  Se150  1  0.91979058  0.91887525  0.56042136  1
  Se  Se151  1  0.06907919  0.25584716  0.44093675  1
  Se  Se152  1  0.07764628  0.26120937  0.93505417  1
  Se  Se153  1  0.08722507  0.57801954  0.44440501  1
  Se  Se154  1  0.08590924  0.59086013  0.94773716  1
  Se  Se155  1  0.07547499  0.91450518  0.44001833  1
  Se  Se156  1  0.08770078  0.91689161  0.95093006  1
  Se  Se157  1  0.41921813  0.25272031  0.45270358  1
  Se  Se158  1  0.41117705  0.25505659  0.95031094  1
  Se  Se159  1  0.41584518  0.58238402  0.45192092  1
  Se  Se160  1  0.41544722  0.59152760  0.93220520  1
  Se  Se161  1  0.41969723  0.91194900  0.45494482  1
  Se  Se162  1  0.42924887  0.90302942  0.94690165  1
  Se  Se163  1  0.74360947  0.25681309  0.43950672  1
  Se  Se164  1  0.74896720  0.24593308  0.95110269  1
  Se  Se165  1  0.75086092  0.59157908  0.44296201  1
  Se  Se166  1  0.75160904  0.57633231  0.94988576  1
  Se  Se167  1  0.73729488  0.92569712  0.44457569  1
  Se  Se168  1  0.75191776  0.91172061  0.94302666  1
  Se  Se169  1  0.26239774  0.06863255  0.44199732  1
  Se  Se170  1  0.25161766  0.08280040  0.93318923  1
  Se  Se171  1  0.25929674  0.39330658  0.45214572  1
  Se  Se172  1  0.25311679  0.43149010  0.94759897  1
  Se  Se173  1  0.25774284  0.73738972  0.43800324  1
  Se  Se174  1  0.24959787  0.75541060  0.94681293  1
  Se  Se175  1  0.57882260  0.08845186  0.45467420  1
  Se  Se176  1  0.58441263  0.08046482  0.94419405  1
  Se  Se177  1  0.58600657  0.42332771  0.44216455  1
  Se  Se178  1  0.58794258  0.40884617  0.93270802  1
  Se  Se179  1  0.58004440  0.75378470  0.44744420  1
  Se  Se180  1  0.58513331  0.74697735  0.94551311  1
  Se  Se181  1  0.91665628  0.07881496  0.44270782  1
  Se  Se182  1  0.91168337  0.08194645  0.94666821  1
  Se  Se183  1  0.91587791  0.41518237  0.45191789  1
  Se  Se184  1  0.90993760  0.42589107  0.95677564  1
  Se  Se185  1  0.92433227  0.74820517  0.43411925  1
  Se  Se186  1  0.91407351  0.75402224  0.95115641  1
  Se  Se187  1  0.23843277  0.23513569  0.30941929  1
  Se  Se188  1  0.25891829  0.25725288  0.80338055  1
  Se  Se189  1  0.25371012  0.57082982  0.30818536  1
  Se  Se190  1  0.25217180  0.58968007  0.79847967  1
  Se  Se191  1  0.24044816  0.90180613  0.30568874  1
  Se  Se192  1  0.25019972  0.91768416  0.80746998  1
  Se  Se193  1  0.58403611  0.25427660  0.30293862  1
  Se  Se194  1  0.58330486  0.24505689  0.81232235  1
  Se  Se195  1  0.58686885  0.59276981  0.30556885  1
  Se  Se196  1  0.58446649  0.58308878  0.79890201  1
  Se  Se197  1  0.57463192  0.91793251  0.31125812  1
  Se  Se198  1  0.58461307  0.91492097  0.80615641  1
  Se  Se199  1  0.90318368  0.24570632  0.30958212  1
  Se  Se200  1  0.91248393  0.24876333  0.81060811  1
  Se  Se201  1  0.92433090  0.58420778  0.30092034  1
  Se  Se202  1  0.91225401  0.57456076  0.81704907  1
  Se  Se203  1  0.91856796  0.91842691  0.29717795  1
  Se  Se204  1  0.92359637  0.91893302  0.80478104  1
  Se  Se205  1  0.07652729  0.07246532  0.29978788  1
  Se  Se206  1  0.08264715  0.08672219  0.80208928  1
  Se  Se207  1  0.08464518  0.42225956  0.30718335  1
  Se  Se208  1  0.09088353  0.42410497  0.81152957  1
  Se  Se209  1  0.09354521  0.74463081  0.29336543  1
  Se  Se210  1  0.08617227  0.75676779  0.81831903  1
  Se  Se211  1  0.42182255  0.08793033  0.30813929  1
  Se  Se212  1  0.42023325  0.08110675  0.80646711  1
  Se  Se213  1  0.42186752  0.42411677  0.31286999  1
  Se  Se214  1  0.41627873  0.41808651  0.79821792  1
  Se  Se215  1  0.42155376  0.75551532  0.30914377  1
  Se  Se216  1  0.40966332  0.74916299  0.80278790  1
  Se  Se217  1  0.75357336  0.09046586  0.31165967  1
  Se  Se218  1  0.74907614  0.07704357  0.80371622  1
  Se  Se219  1  0.75090425  0.42371136  0.29973933  1
  Se  Se220  1  0.75894516  0.41315738  0.81193413  1
  Se  Se221  1  0.75085168  0.75440207  0.29992132  1
  Se  Se222  1  0.74422576  0.73573913  0.80679444  1
  Se  Se223  1  0.24070310  0.08097348  0.18417061  1
  Se  Se224  1  0.25544222  0.07920690  0.70742088  1
  Se  Se225  1  0.24325775  0.41791393  0.18923875  1
  Se  Se226  1  0.25249720  0.41832207  0.69720053  1
  Se  Se227  1  0.24903099  0.76244593  0.18434484  1
  Se  Se228  1  0.24093760  0.75081992  0.69939446  1
  Se  Se229  1  0.57161995  0.08374490  0.18724706  1
  Se  Se230  1  0.58892476  0.07761454  0.70041205  1
  Se  Se231  1  0.58603726  0.41238999  0.20123342  1
  Se  Se232  1  0.57380852  0.42235212  0.68464553  1
  Se  Se233  1  0.58604472  0.74751787  0.19898677  1
  Se  Se234  1  0.57818111  0.74867060  0.69822573  1
  Se  Se235  1  0.91277320  0.08477281  0.19685866  1
  Se  Se236  1  0.92597493  0.08117678  0.70195690  1
  Se  Se237  1  0.90826651  0.42581621  0.18178838  1
  Se  Se238  1  0.91344813  0.42549081  0.69247000  1
  Se  Se239  1  0.92062236  0.74694381  0.19319503  1
  Se  Se240  1  0.90408225  0.75925204  0.69429745  1
  Se  Se241  1  0.08652643  0.24327443  0.19163380  1
  Se  Se242  1  0.09898528  0.24310541  0.68776809  1
  Se  Se243  1  0.08224992  0.58510803  0.19329210  1
  Se  Se244  1  0.07696597  0.57754101  0.69315813  1
  Se  Se245  1  0.07731614  0.92365716  0.19248845  1
  Se  Se246  1  0.08120416  0.91846930  0.70069211  1
  Se  Se247  1  0.41603874  0.24219849  0.18842684  1
  Se  Se248  1  0.42634299  0.25050786  0.69896513  1
  Se  Se249  1  0.42775660  0.57203049  0.19160628  1
  Se  Se250  1  0.41141341  0.58956173  0.69393686  1
  Se  Se251  1  0.42315959  0.91005049  0.18514937  1
  Se  Se252  1  0.41324820  0.91885798  0.70201342  1
  Se  Se253  1  0.74334085  0.25289882  0.19073956  1
  Se  Se254  1  0.76150151  0.24179118  0.69313305  1
  Se  Se255  1  0.74783866  0.59056130  0.19576369  1
  Se  Se256  1  0.74650225  0.58313944  0.69952925  1
  Se  Se257  1  0.75569661  0.91156141  0.18465205  1
  Se  Se258  1  0.75049523  0.91267677  0.70820329  1
