# generated using pymatgen
data_In86Cu29Se144
_symmetry_space_group_name_H-M   'P 1'
_cell_length_a   17.57708756
_cell_length_b   17.57448467
_cell_length_c   23.43654248
_cell_angle_alpha   89.99247029
_cell_angle_beta   89.98047613
_cell_angle_gamma   90.01997703
_symmetry_Int_Tables_number   1
_chemical_formula_structural   In86Cu29Se144
_chemical_formula_sum   'In86 Cu29 Se144'
_cell_volume   7239.74053817
_cell_formula_units_Z   1
loop_
 _symmetry_equiv_pos_site_id
 _symmetry_equiv_pos_as_xyz
  1  'x, y, z'
loop_
 _atom_site_type_symbol
 _atom_site_label
 _atom_site_symmetry_multiplicity
 _atom_site_fract_x
 _atom_site_fract_y
 _atom_site_fract_z
 _atom_site_occupancy
  In  In0  1  0.00854456  0.15725919  0.13377304  1
  In  In1  1  -0.01879846  0.17691013  0.63631837  1
  In  In2  1  0.00534207  0.49602456  0.13592576  1
  In  In3  1  -0.00699357  0.48162482  0.62441206  1
  In  In4  1  -0.00957711  0.84468861  0.13344372  1
  In  In5  1  -0.00105409  0.85169880  0.62459002  1
  In  In6  1  0.32692728  0.18032966  0.11739918  1
  In  In7  1  0.34427296  0.15981924  0.63210233  1
  In  In8  1  0.34958272  0.49441632  0.12093628  1
  In  In9  1  0.33366997  0.49894553  0.62522894  1
  In  In10  1  0.32801117  0.82021555  0.12686513  1
  In  In11  1  0.34343514  0.82464931  0.63331859  1
  In  In12  1  0.65557636  0.15872452  0.12976784  1
  In  In13  1  0.68183087  0.18753626  0.60835596  1
  In  In14  1  0.65864872  0.50753668  0.11402073  1
  In  In15  1  0.66430938  0.51387701  0.63734180  1
  In  In16  1  0.67768456  0.83345918  0.11558289  1
  In  In17  1  0.65654502  0.82444451  0.61910648  1
  In  In18  1  0.15107958  0.01044911  0.37130095  1
  In  In19  1  0.17473990  0.01125939  0.87255361  1
  In  In20  1  0.17205821  0.34024561  0.37474151  1
  In  In21  1  0.16400483  0.32332782  0.86739794  1
  In  In22  1  0.16328834  0.65872740  0.37228632  1
  In  In23  1  0.17073718  0.65645549  0.87301861  1
  In  In24  1  0.50891367  -0.01264816  0.38192695  1
  In  In25  1  0.49249670  -0.00066928  0.87204363  1
  In  In26  1  0.50628640  0.33408684  0.39489796  1
  In  In27  1  0.50674912  0.34815030  0.86544913  1
  In  In28  1  0.49625083  0.66606348  0.37895188  1
  In  In29  1  0.50164226  0.66968100  0.87322219  1
  In  In30  1  0.83019806  0.00097860  0.37760873  1
  In  In31  1  0.82629045  -0.00791311  0.87069383  1
  In  In32  1  0.83099178  0.30841094  0.38299201  1
  In  In33  1  0.82572318  0.33049525  0.85278901  1
  In  In34  1  0.84733075  0.66776770  0.37806846  1
  In  In35  1  0.83010849  0.67824087  0.87651150  1
  In  In36  1  -0.00521813  0.15337611  0.36229073  1
  In  In37  1  0.00467571  0.17853071  0.86400036  1
  In  In38  1  0.00700858  0.50622452  0.37250650  1
  In  In39  1  0.00735285  0.49069236  0.87211893  1
  In  In40  1  -0.00615184  0.82999891  0.37357354  1
  In  In41  1  -0.01705887  0.83362428  0.87903054  1
  In  In42  1  0.33034081  0.17851548  0.37687745  1
  In  In43  1  0.33176950  0.15749260  0.86600870  1
  In  In44  1  0.33029361  0.49818533  0.38314959  1
  In  In45  1  0.34203708  0.51071389  0.86347432  1
  In  In46  1  0.35036783  0.82927554  0.37490207  1
  In  In47  1  0.34801770  0.84259354  0.86980250  1
  In  In48  1  0.67485294  0.16172200  0.38782898  1
  In  In49  1  0.66331793  0.17438527  0.86588395  1
  In  In50  1  0.65675071  0.48490165  0.38241690  1
  In  In51  1  0.65426500  0.49030416  0.86641825  1
  In  In52  1  0.66014758  0.83908991  0.38202088  1
  In  In53  1  0.67444406  0.82298803  0.88461093  1
  In  In54  1  0.15559963  0.00394472  0.12751263  1
  In  In55  1  0.15831557  0.01064185  0.63375186  1
  In  In56  1  0.16743328  0.31594141  0.12040993  1
  In  In57  1  0.15693129  0.34162855  0.62629938  1
  In  In58  1  0.17107123  0.66274985  0.13534870  1
  In  In59  1  0.18445176  0.66516551  0.62718111  1
  In  In60  1  0.51732345  0.00130549  0.12874660  1
  In  In61  1  0.49854250  -0.00293865  0.62270330  1
  In  In62  1  0.49221194  0.34106030  0.11457795  1
  In  In63  1  0.50234308  0.33383657  0.62621667  1
  In  In64  1  0.49199250  0.65675968  0.11774386  1
  In  In65  1  0.49998652  0.66682355  0.62677463  1
  In  In66  1  0.83441189  -0.00508605  0.12893794  1
  In  In67  1  0.83704125  0.01041172  0.61817692  1
  In  In68  1  0.84246485  0.34234675  0.12470689  1
  In  In69  1  0.83426746  0.33287907  0.63960461  1
  In  In70  1  0.83107847  0.67981194  0.12497826  1
  In  In71  1  0.81526436  0.66188296  0.62743677  1
  In  In72  1  0.33091664  0.33677835  0.24877469  1
  In  In73  1  0.16450602  0.17016036  0.49718557  1
  In  In74  1  0.67030634  0.32821273  0.25325350  1
  In  In75  1  0.83197560  0.16841773  -0.01396202  1
  In  In76  1  0.82639380  0.49862155  -0.00766411  1
  In  In77  1  0.67217945  0.66624294  0.24351695  1
  In  In78  1  0.82908758  0.50068330  0.50428764  1
  In  In79  1  0.66723979  0.00720381  0.74512111  1
  In  In80  1  0.17133728  0.49462077  -0.00619341  1
  In  In81  1  0.49988978  0.17057822  -0.00521148  1
  In  In82  1  0.17147912  0.82968848  0.50377960  1
  In  In83  1  0.00246067  0.66928121  0.75207085  1
  In  In84  1  0.16513509  0.83416128  0.00443565  1
  In  In85  1  0.32878755  -0.00534380  0.25104762  1
  Cu  Cu86  1  -0.00882995  0.67019289  0.00675719  1
  Cu  Cu87  1  0.16808561  0.50324479  0.25436075  1
  Cu  Cu88  1  0.16943966  0.16316225  0.74702201  1
  Cu  Cu89  1  0.33879551  0.66973950  -0.00309329  1
  Cu  Cu90  1  0.84107212  0.49696311  0.25350466  1
  Cu  Cu91  1  0.66143368  0.66812024  0.50289356  1
  Cu  Cu92  1  0.50100993  0.17448583  0.74708685  1
  Cu  Cu93  1  0.33462896  -0.00603994  0.50424364  1
  Cu  Cu94  1  0.83530885  0.16020063  0.25396156  1
  Cu  Cu95  1  -0.00501466  0.33092865  0.50335559  1
  Cu  Cu96  1  0.83030644  0.83589186  0.75041377  1
  Cu  Cu97  1  0.00347915  0.66784359  0.49643182  1
  Cu  Cu98  1  -0.00158668  0.00212502  0.00607896  1
  Cu  Cu99  1  0.49971730  0.16211903  0.25517214  1
  Cu  Cu100  1  0.34257243  0.66050617  0.50433905  1
  Cu  Cu101  1  0.49720573  0.50031175  0.24795454  1
  Cu  Cu102  1  0.16836474  0.49588258  0.74896406  1
  Cu  Cu103  1  0.17122597  0.84131504  0.75150048  1
  Cu  Cu104  1  0.16413292  0.82819333  0.25087205  1
  Cu  Cu105  1  0.50541081  0.82921739  0.74882928  1
  Cu  Cu106  1  0.67060932  -0.00595534  -0.00007620  1
  Cu  Cu107  1  -0.01012417  0.00607588  0.49881873  1
  Cu  Cu108  1  0.00199657  0.32373896  -0.00488153  1
  Cu  Cu109  1  0.50551713  0.82891795  0.25425593  1
  Cu  Cu110  1  0.83311013  0.83810270  0.25156579  1
  Cu  Cu111  1  0.33568462  0.33317455  0.50519499  1
  Cu  Cu112  1  0.33561985  0.00394509  -0.00518974  1
  Cu  Cu113  1  0.66638939  -0.00045420  0.50305065  1
  Cu  Cu114  1  0.49432290  0.50430989  0.74560373  1
  Se  Se115  1  0.08451644  0.08756866  0.05309960  1
  Se  Se116  1  0.07192363  0.08525987  0.55892577  1
  Se  Se117  1  0.07423684  0.41218798  0.05462463  1
  Se  Se118  1  0.08132470  0.41789419  0.54914376  1
  Se  Se119  1  0.07728957  0.74382342  0.06639157  1
  Se  Se120  1  0.07847507  0.74368860  0.56485683  1
  Se  Se121  1  0.41572374  0.07885677  0.06173541  1
  Se  Se122  1  0.41557698  0.08195672  0.55423856  1
  Se  Se123  1  0.41459382  0.41744539  0.04250756  1
  Se  Se124  1  0.41871049  0.41828885  0.55673649  1
  Se  Se125  1  0.41587812  0.75429990  0.05401775  1
  Se  Se126  1  0.41935862  0.75169099  0.55566427  1
  Se  Se127  1  0.74696421  0.08205016  0.05680748  1
  Se  Se128  1  0.75395798  0.08747576  0.54694829  1
  Se  Se129  1  0.74230689  0.40517576  0.05649039  1
  Se  Se130  1  0.74518389  0.41727512  0.57021085  1
  Se  Se131  1  0.74000921  0.73252669  0.05047883  1
  Se  Se132  1  0.75064236  0.74883913  0.55240390  1
  Se  Se133  1  0.26302236  0.26868443  0.04570013  1
  Se  Se134  1  0.25381835  0.25125402  0.56361458  1
  Se  Se135  1  0.25439725  0.59068517  0.05612741  1
  Se  Se136  1  0.25096285  0.58055217  0.55228961  1
  Se  Se137  1  0.25774463  0.92718458  0.06129407  1
  Se  Se138  1  0.25204408  0.92266134  0.56724775  1
  Se  Se139  1  0.59350251  0.25471181  0.05771958  1
  Se  Se140  1  0.56287403  0.23548324  0.55646008  1
  Se  Se141  1  0.57456801  0.58159981  0.04587229  1
  Se  Se142  1  0.58445928  0.58284276  0.55882841  1
  Se  Se143  1  0.58366044  0.91636838  0.05414720  1
  Se  Se144  1  0.58045430  0.91499962  0.55270017  1
  Se  Se145  1  0.91970811  0.24781978  0.05671794  1
  Se  Se146  1  0.90905934  0.25543964  0.55969808  1
  Se  Se147  1  0.91878058  0.57818224  0.06223611  1
  Se  Se148  1  0.92363395  0.59122901  0.56206083  1
  Se  Se149  1  0.91415972  0.91626504  0.05497952  1
  Se  Se150  1  0.91165568  0.91633811  0.55018685  1
  Se  Se151  1  0.07203490  0.25544619  0.43658552  1
  Se  Se152  1  0.08724970  0.24336841  0.94267444  1
  Se  Se153  1  0.08660057  0.58141831  0.44802610  1
  Se  Se154  1  0.07139377  0.59200296  0.94524822  1
  Se  Se155  1  0.07886588  0.92359656  0.44649262  1
  Se  Se156  1  0.07794171  0.92246054  0.94150992  1
  Se  Se157  1  0.41396460  0.24550007  0.45150413  1
  Se  Se158  1  0.41598317  0.25372696  0.92907917  1
  Se  Se159  1  0.42227942  0.57632986  0.44795951  1
  Se  Se160  1  0.41630628  0.58442760  0.94139130  1
  Se  Se161  1  0.41837857  0.91157629  0.45041279  1
  Se  Se162  1  0.42110060  0.91835465  0.94838084  1
  Se  Se163  1  0.72548820  0.27116506  0.45158960  1
  Se  Se164  1  0.74106588  0.26567606  0.93610578  1
  Se  Se165  1  0.74168359  0.59062795  0.43893451  1
  Se  Se166  1  0.73753662  0.58854640  0.93535959  1
  Se  Se167  1  0.75040095  0.91664691  0.44780901  1
  Se  Se168  1  0.75760561  0.91335660  0.94839372  1
  Se  Se169  1  0.25534518  0.07204379  0.44151191  1
  Se  Se170  1  0.25231919  0.08959611  0.94667268  1
  Se  Se171  1  0.24890767  0.41286360  0.45132968  1
  Se  Se172  1  0.25770585  0.41363745  0.92837032  1
  Se  Se173  1  0.26120539  0.74104526  0.44247317  1
  Se  Se174  1  0.25376833  0.74831575  0.93939661  1
  Se  Se175  1  0.58031624  0.08102810  0.44883744  1
  Se  Se176  1  0.59472599  0.07651539  0.93809381  1
  Se  Se177  1  0.58089350  0.42266548  0.46202894  1
  Se  Se178  1  0.58280122  0.41597595  0.94500098  1
  Se  Se179  1  0.57898826  0.74992496  0.44642489  1
  Se  Se180  1  0.56386769  0.76818642  0.94203000  1
  Se  Se181  1  0.91344156  0.09210958  0.44262478  1
  Se  Se182  1  0.92632315  0.07511710  0.93460955  1
  Se  Se183  1  0.91775362  0.41353513  0.43977344  1
  Se  Se184  1  0.91884255  0.40257784  0.93687570  1
  Se  Se185  1  0.91740584  0.75443216  0.45093147  1
  Se  Se186  1  0.90938158  0.75257422  0.95304702  1
  Se  Se187  1  0.23809657  0.24113137  0.30209650  1
  Se  Se188  1  0.25314834  0.24703308  0.79930358  1
  Se  Se189  1  0.25682849  0.57986844  0.30826492  1
  Se  Se190  1  0.24906395  0.58722719  0.79640812  1
  Se  Se191  1  0.24111507  0.90638935  0.31636119  1
  Se  Se192  1  0.25512594  0.92211456  0.80693168  1
  Se  Se193  1  0.57566122  0.24644289  0.31519625  1
  Se  Se194  1  0.58582209  0.25833602  0.79748931  1
  Se  Se195  1  0.58439559  0.57511409  0.30680110  1
  Se  Se196  1  0.57837635  0.58485080  0.80162633  1
  Se  Se197  1  0.58684457  0.91581453  0.30393628  1
  Se  Se198  1  0.58492633  0.91323400  0.80813979  1
  Se  Se199  1  0.91407068  0.25139785  0.30311628  1
  Se  Se200  1  0.91891062  0.25137085  0.79373306  1
  Se  Se201  1  0.91994264  0.58629169  0.30419572  1
  Se  Se202  1  0.91525127  0.58172632  0.81426702  1
  Se  Se203  1  0.91575688  0.92001607  0.30759170  1
  Se  Se204  1  0.91650932  0.91665539  0.80222595  1
  Se  Se205  1  0.08677519  0.08583796  0.29267484  1
  Se  Se206  1  0.08474723  0.08272094  0.80287514  1
  Se  Se207  1  0.08595029  0.41694294  0.30555255  1
  Se  Se208  1  0.08390887  0.41167687  0.79960102  1
  Se  Se209  1  0.08113722  0.74768856  0.30818084  1
  Se  Se210  1  0.09087967  0.76164415  0.81435143  1
  Se  Se211  1  0.41702663  0.08428985  0.31407241  1
  Se  Se212  1  0.42272216  0.08239776  0.79744890  1
  Se  Se213  1  0.42723791  0.41549883  0.31250278  1
  Se  Se214  1  0.41243372  0.41606676  0.79597599  1
  Se  Se215  1  0.42041924  0.74293959  0.30185664  1
  Se  Se216  1  0.41609145  0.74905192  0.80118270  1
  Se  Se217  1  0.74599506  0.08547480  0.30897134  1
  Se  Se218  1  0.76187806  0.09514576  0.80379164  1
  Se  Se219  1  0.75930914  0.42016387  0.31421706  1
  Se  Se220  1  0.75356374  0.43247632  0.79643446  1
  Se  Se221  1  0.75491820  0.75388898  0.31116852  1
  Se  Se222  1  0.74706459  0.75269375  0.80297678  1
  Se  Se223  1  0.24951090  0.09218259  0.18976857  1
  Se  Se224  1  0.25673484  0.07816185  0.69854200  1
  Se  Se225  1  0.24232025  0.42576934  0.18613630  1
  Se  Se226  1  0.25056226  0.41366009  0.69364554  1
  Se  Se227  1  0.25351762  0.74592815  0.20392991  1
  Se  Se228  1  0.25064423  0.75207790  0.70132221  1
  Se  Se229  1  0.58769394  0.07873889  0.20724237  1
  Se  Se230  1  0.58071850  0.09621544  0.68395217  1
  Se  Se231  1  0.57992300  0.41893891  0.19042822  1
  Se  Se232  1  0.58095793  0.41944169  0.69671927  1
  Se  Se233  1  0.57773653  0.75191258  0.18576068  1
  Se  Se234  1  0.58837196  0.74464173  0.69703832  1
  Se  Se235  1  0.91657255  0.07773974  0.19703042  1
  Se  Se236  1  0.92668201  0.06507501  0.69470263  1
  Se  Se237  1  0.92217307  0.40983218  0.20210520  1
  Se  Se238  1  0.92288326  0.41407882  0.70460401  1
  Se  Se239  1  0.91472262  0.75083803  0.19896415  1
  Se  Se240  1  0.91263741  0.75676412  0.68913647  1
  Se  Se241  1  0.07271301  0.26366850  0.19272913  1
  Se  Se242  1  0.08640254  0.24734699  0.69365177  1
  Se  Se243  1  0.08156264  0.58638258  0.20238034  1
  Se  Se244  1  0.08710746  0.57800293  0.68816595  1
  Se  Se245  1  0.08539810  0.91664476  0.19937706  1
  Se  Se246  1  0.08183740  0.91930825  0.70051512  1
  Se  Se247  1  0.42756898  0.24432724  0.19125175  1
  Se  Se248  1  0.41311260  0.25743378  0.69739593  1
  Se  Se249  1  0.41377227  0.58292534  0.19554810  1
  Se  Se250  1  0.41008624  0.58867527  0.69405006  1
  Se  Se251  1  0.42423495  0.90910377  0.19140277  1
  Se  Se252  1  0.42278175  0.91656776  0.69767359  1
  Se  Se253  1  0.75991087  0.24033691  0.18850742  1
  Se  Se254  1  0.74458610  0.24358005  0.69748901  1
  Se  Se255  1  0.76003114  0.56773939  0.18801987  1
  Se  Se256  1  0.76044951  0.57890582  0.70668424  1
  Se  Se257  1  0.74573030  0.91304075  0.19437560  1
  Se  Se258  1  0.75169250  0.91147384  0.68518272  1
