# generated using pymatgen
data_In86Cu29Se144
_symmetry_space_group_name_H-M   'P 1'
_cell_length_a   17.58149400
_cell_length_b   17.57983976
_cell_length_c   23.42709079
_cell_angle_alpha   90.00452370
_cell_angle_beta   90.00822146
_cell_angle_gamma   90.01422657
_symmetry_Int_Tables_number   1
_chemical_formula_structural   In86Cu29Se144
_chemical_formula_sum   'In86 Cu29 Se144'
_cell_volume   7240.84132559
_cell_formula_units_Z   1
loop_
 _symmetry_equiv_pos_site_id
 _symmetry_equiv_pos_as_xyz
  1  'x, y, z'
loop_
 _atom_site_type_symbol
 _atom_site_label
 _atom_site_symmetry_multiplicity
 _atom_site_fract_x
 _atom_site_fract_y
 _atom_site_fract_z
 _atom_site_occupancy
  In  In0  1  -0.00381836  0.15725578  0.12128624  1
  In  In1  1  -0.00644595  0.16044888  0.62126710  1
  In  In2  1  0.00954183  0.50811924  0.11763539  1
  In  In3  1  -0.00794877  0.51213617  0.62626176  1
  In  In4  1  -0.00141103  0.83448179  0.12635555  1
  In  In5  1  0.00866541  0.83104656  0.62102815  1
  In  In6  1  0.31977756  0.15967632  0.11789647  1
  In  In7  1  0.33370366  0.17263391  0.62605100  1
  In  In8  1  0.34909707  0.51468833  0.11251038  1
  In  In9  1  0.33065088  0.49119291  0.62942870  1
  In  In10  1  0.33497401  0.83907320  0.12860193  1
  In  In11  1  0.32758550  0.84416043  0.62547999  1
  In  In12  1  0.67431290  0.16136342  0.12217736  1
  In  In13  1  0.66501946  0.15325270  0.63208946  1
  In  In14  1  0.65732584  0.49741507  0.11403842  1
  In  In15  1  0.68233664  0.49580568  0.63160710  1
  In  In16  1  0.67622175  0.84331131  0.10034166  1
  In  In17  1  0.66855177  0.83494273  0.63674519  1
  In  In18  1  0.16216347  -0.00100193  0.37177248  1
  In  In19  1  0.15434413  0.00472892  0.87860516  1
  In  In20  1  0.15158324  0.33193204  0.37281284  1
  In  In21  1  0.17019673  0.33122458  0.88478662  1
  In  In22  1  0.17099695  0.67906623  0.36167989  1
  In  In23  1  0.16953701  0.66314629  0.88183403  1
  In  In24  1  0.49983628  -0.00966909  0.35224707  1
  In  In25  1  0.53208653  -0.02389415  0.91424733  1
  In  In26  1  0.50028825  0.31313430  0.36402238  1
  In  In27  1  0.49346564  0.32787369  0.89260752  1
  In  In28  1  0.49271159  0.67981298  0.36204549  1
  In  In29  1  0.52305926  0.66362903  0.89871224  1
  In  In30  1  0.84116376  0.00918398  0.36298934  1
  In  In31  1  0.83680289  -0.00266063  0.87917688  1
  In  In32  1  0.83252055  0.32951897  0.37203596  1
  In  In33  1  0.82996479  0.33839186  0.88070171  1
  In  In34  1  0.83404028  0.65074326  0.37279393  1
  In  In35  1  0.81287404  0.68594708  0.89812346  1
  In  In36  1  0.00766266  0.14615354  0.39083722  1
  In  In37  1  0.01423612  0.14862190  0.87672363  1
  In  In38  1  -0.01055513  0.49461596  0.36811297  1
  In  In39  1  -0.00111783  0.50143066  0.88274989  1
  In  In40  1  0.01345896  0.85223551  0.35862016  1
  In  In41  1  -0.01077151  0.84334675  0.88178738  1
  In  In42  1  0.32998435  0.15212293  0.36725355  1
  In  In43  1  0.33273842  0.16605850  0.88896577  1
  In  In44  1  0.32201775  0.50523619  0.36550376  1
  In  In45  1  0.32872646  0.50081645  0.88791087  1
  In  In46  1  0.32477794  0.82573871  0.35810972  1
  In  In47  1  0.33294381  0.83343874  0.88625271  1
  In  In48  1  0.66975319  0.16599128  0.36463641  1
  In  In49  1  0.68868530  0.13158355  0.90890579  1
  In  In50  1  0.68553003  0.49853488  0.36888606  1
  In  In51  1  0.65729050  0.51125665  0.88937823  1
  In  In52  1  0.65607937  0.83843253  0.36708013  1
  In  In53  1  0.67656557  0.84044806  0.88567489  1
  In  In54  1  0.16727231  0.00087629  0.12582273  1
  In  In55  1  0.16144085  -0.00128747  0.62049192  1
  In  In56  1  0.17861613  0.33514134  0.10871068  1
  In  In57  1  0.17186822  0.32357604  0.62787444  1
  In  In58  1  0.16800548  0.67308744  0.12546135  1
  In  In59  1  0.15541657  0.66762848  0.62570967  1
  In  In60  1  0.50388344  -0.00530403  0.11989450  1
  In  In61  1  0.50353197  0.00757121  0.63293352  1
  In  In62  1  0.50738972  0.34618126  0.11634012  1
  In  In63  1  0.49241585  0.32594653  0.63163880  1
  In  In64  1  0.50119411  0.66236490  0.11321662  1
  In  In65  1  0.50137548  0.68388717  0.63346620  1
  In  In66  1  0.83012408  0.00213042  0.11819346  1
  In  In67  1  0.82569133  0.00126219  0.62754807  1
  In  In68  1  0.82373474  0.31990910  0.11982949  1
  In  In69  1  0.83831872  0.33825737  0.62357111  1
  In  In70  1  0.83047760  0.67811094  0.10825254  1
  In  In71  1  0.83817077  0.65910447  0.62566022  1
  In  In72  1  0.15480786  0.49848278  0.50578636  1
  In  In73  1  0.34097647  0.66914268  0.76907556  1
  In  In74  1  0.33841151  0.33825148  0.23819770  1
  In  In75  1  0.83964875  0.83317241  0.49400790  1
  In  In76  1  0.32970838  0.33111178  0.76651729  1
  In  In77  1  0.34035991  0.00270639  0.75575390  1
  In  In78  1  -0.00325241  0.32637686  0.24671085  1
  In  In79  1  0.49831089  0.83472245  0.48890487  1
  In  In80  1  0.66036974  0.32945198  0.75943110  1
  In  In81  1  -0.00299393  0.67029593  0.75040587  1
  In  In82  1  0.00021137  0.32827793  0.75688756  1
  In  In83  1  0.50407324  0.16182178  0.50394570  1
  In  In84  1  0.66628134  0.67268149  0.23676521  1
  In  In85  1  0.51134752  0.50297369  0.49247367  1
  Cu  Cu86  1  0.82963668  0.15950559  0.75516872  1
  Cu  Cu87  1  0.00502199  0.67150526  0.00243703  1
  Cu  Cu88  1  0.83481627  0.49622829  0.24398000  1
  Cu  Cu89  1  0.16454786  0.16608355  0.24781166  1
  Cu  Cu90  1  0.32892728  -0.00374295  0.00562900  1
  Cu  Cu91  1  0.67345512  0.65860388  0.50177151  1
  Cu  Cu92  1  0.83002304  0.51619250  0.75761591  1
  Cu  Cu93  1  0.00220990  -0.00311014  0.00436178  1
  Cu  Cu94  1  -0.00240677  0.32937147  0.00134653  1
  Cu  Cu95  1  0.50657552  0.51252117  0.76142086  1
  Cu  Cu96  1  0.16559478  0.83226834  0.74855690  1
  Cu  Cu97  1  0.32773004  0.33142270  0.50049171  1
  Cu  Cu98  1  0.31933238  -0.00487074  0.49325533  1
  Cu  Cu99  1  0.00142598  0.66488408  0.49597048  1
  Cu  Cu100  1  0.17105337  0.51630964  0.24019559  1
  Cu  Cu101  1  0.82779375  0.84159719  0.75933903  1
  Cu  Cu102  1  0.83152970  0.15731533  0.24641022  1
  Cu  Cu103  1  0.32556942  0.67365234  0.49081456  1
  Cu  Cu104  1  -0.00920760  0.32518460  0.49712907  1
  Cu  Cu105  1  0.50415535  0.50413808  0.24024857  1
  Cu  Cu106  1  0.51901181  0.83513457  0.76338474  1
  Cu  Cu107  1  0.66901743  0.33211544  0.00180423  1
  Cu  Cu108  1  0.50952372  0.16433310  0.23837349  1
  Cu  Cu109  1  0.66460411  0.00193708  0.49992742  1
  Cu  Cu110  1  0.50679599  0.15576493  0.77059385  1
  Cu  Cu111  1  0.67657768  0.33518235  0.49739933  1
  Cu  Cu112  1  0.16434936  0.83908564  0.24317269  1
  Cu  Cu113  1  0.82788340  0.83232287  0.23854606  1
  Cu  Cu114  1  0.32449860  0.67217788  0.00442633  1
  Se  Se115  1  0.08738082  0.08357497  0.05348610  1
  Se  Se116  1  0.09574091  0.09821857  0.55714247  1
  Se  Se117  1  0.08251958  0.41583506  0.05039798  1
  Se  Se118  1  0.06707909  0.40370798  0.56489114  1
  Se  Se119  1  0.08570947  0.75642337  0.05644264  1
  Se  Se120  1  0.08570699  0.74647161  0.54961415  1
  Se  Se121  1  0.41391443  0.08055967  0.05606795  1
  Se  Se122  1  0.40525189  0.06810018  0.55746286  1
  Se  Se123  1  0.40762263  0.40917521  0.05058434  1
  Se  Se124  1  0.41549879  0.41196248  0.55439031  1
  Se  Se125  1  0.41160880  0.75314536  0.05598138  1
  Se  Se126  1  0.40743030  0.74686148  0.55557208  1
  Se  Se127  1  0.75868715  0.09151195  0.04698048  1
  Se  Se128  1  0.74465615  0.08436377  0.55535019  1
  Se  Se129  1  0.75343428  0.41646810  0.05404113  1
  Se  Se130  1  0.75413475  0.41983314  0.55406125  1
  Se  Se131  1  0.72522819  0.72887743  0.03929897  1
  Se  Se132  1  0.74499675  0.74882248  0.56003827  1
  Se  Se133  1  0.24912010  0.24279330  0.04268599  1
  Se  Se134  1  0.24876455  0.24597782  0.55350676  1
  Se  Se135  1  0.24292626  0.58424200  0.05495441  1
  Se  Se136  1  0.25738698  0.58872612  0.55839742  1
  Se  Se137  1  0.24412572  0.91183421  0.05717182  1
  Se  Se138  1  0.24327639  0.91098288  0.55183604  1
  Se  Se139  1  0.58779826  0.24957542  0.05735719  1
  Se  Se140  1  0.59346138  0.26050276  0.56170197  1
  Se  Se141  1  0.57927234  0.57873641  0.04364855  1
  Se  Se142  1  0.58689935  0.59063405  0.56647397  1
  Se  Se143  1  0.59010217  0.93380280  0.03993020  1
  Se  Se144  1  0.58405466  0.92013395  0.55933266  1
  Se  Se145  1  0.91643213  0.24466179  0.05457950  1
  Se  Se146  1  0.90831841  0.24674198  0.55539879  1
  Se  Se147  1  0.91889496  0.58592514  0.05109483  1
  Se  Se148  1  0.91566428  0.58456558  0.54904851  1
  Se  Se149  1  0.91609554  0.91404823  0.05443886  1
  Se  Se150  1  0.92126905  0.92280778  0.55916583  1
  Se  Se151  1  0.08397470  0.24987632  0.44773419  1
  Se  Se152  1  0.07824288  0.24771119  0.94461620  1
  Se  Se153  1  0.08114644  0.58536681  0.43279442  1
  Se  Se154  1  0.08464785  0.58329902  0.94980182  1
  Se  Se155  1  0.07761423  0.91985007  0.44146563  1
  Se  Se156  1  0.08484443  0.91293532  0.94887514  1
  Se  Se157  1  0.40950091  0.25032882  0.44185743  1
  Se  Se158  1  0.39823663  0.26004757  0.95878058  1
  Se  Se159  1  0.40992872  0.59116348  0.43644888  1
  Se  Se160  1  0.41091051  0.59313122  0.94892683  1
  Se  Se161  1  0.40748130  0.92516979  0.43184500  1
  Se  Se162  1  0.41480835  0.90899984  0.95889250  1
  Se  Se163  1  0.74642788  0.24621001  0.43893377  1
  Se  Se164  1  0.75571537  0.25055413  0.95077673  1
  Se  Se165  1  0.75489356  0.57471351  0.44850758  1
  Se  Se166  1  0.77052793  0.56245903  0.94735058  1
  Se  Se167  1  0.74014988  0.91912900  0.43859118  1
  Se  Se168  1  0.75409989  0.92680293  0.95447788  1
  Se  Se169  1  0.24435883  0.08702806  0.44181092  1
  Se  Se170  1  0.24625376  0.07551238  0.94820256  1
  Se  Se171  1  0.25135821  0.41482602  0.44101095  1
  Se  Se172  1  0.24780739  0.41618868  0.95280601  1
  Se  Se173  1  0.24579687  0.75745687  0.43771369  1
  Se  Se174  1  0.24123818  0.75435375  0.95001911  1
  Se  Se175  1  0.58093000  0.07252336  0.43463906  1
  Se  Se176  1  0.55545328  0.11190772  0.95215041  1
  Se  Se177  1  0.59040667  0.40322027  0.43234987  1
  Se  Se178  1  0.58160368  0.41616834  0.95236203  1
  Se  Se179  1  0.59306023  0.73452255  0.43935555  1
  Se  Se180  1  0.59505274  0.76074847  0.96059415  1
  Se  Se181  1  0.90036922  0.08081054  0.44710784  1
  Se  Se182  1  0.92276832  0.08099549  0.94719337  1
  Se  Se183  1  0.91615322  0.41281194  0.44137692  1
  Se  Se184  1  0.91686443  0.41600583  0.94882902  1
  Se  Se185  1  0.92482733  0.74331586  0.43155898  1
  Se  Se186  1  0.91770561  0.75676247  0.95422738  1
  Se  Se187  1  0.24465500  0.25311097  0.30406245  1
  Se  Se188  1  0.23815096  0.23245283  0.81244633  1
  Se  Se189  1  0.25715308  0.59536736  0.29460700  1
  Se  Se190  1  0.24219745  0.57180126  0.80885726  1
  Se  Se191  1  0.24589011  0.92285412  0.29898794  1
  Se  Se192  1  0.24853197  0.90818837  0.80954047  1
  Se  Se193  1  0.59032931  0.24962080  0.29251029  1
  Se  Se194  1  0.58293157  0.24233219  0.82699877  1
  Se  Se195  1  0.58359747  0.58018885  0.30662065  1
  Se  Se196  1  0.58963105  0.59472761  0.81289493  1
  Se  Se197  1  0.58213709  0.90529898  0.28849514  1
  Se  Se198  1  0.58958908  0.92567384  0.81895299  1
  Se  Se199  1  0.91614311  0.23321052  0.30919787  1
  Se  Se200  1  0.90691696  0.24072786  0.81528652  1
  Se  Se201  1  0.91688909  0.58102631  0.29650017  1
  Se  Se202  1  0.90995462  0.59195488  0.81873478  1
  Se  Se203  1  0.91004984  0.91496525  0.29492904  1
  Se  Se204  1  0.91991204  0.92215099  0.80402367  1
  Se  Se205  1  0.07989948  0.08854199  0.30452639  1
  Se  Se206  1  0.08280042  0.07352476  0.79793457  1
  Se  Se207  1  0.09282981  0.42814557  0.29766244  1
  Se  Se208  1  0.08891041  0.42138539  0.81269134  1
  Se  Se209  1  0.07930427  0.75172977  0.29395878  1
  Se  Se210  1  0.08765716  0.75614441  0.81255486  1
  Se  Se211  1  0.42124778  0.08994140  0.29523092  1
  Se  Se212  1  0.42445392  0.07672889  0.82792966  1
  Se  Se213  1  0.42694566  0.42537664  0.30626617  1
  Se  Se214  1  0.42624601  0.42631824  0.81622845  1
  Se  Se215  1  0.42505214  0.76460477  0.29094702  1
  Se  Se216  1  0.43632777  0.75812009  0.82304432  1
  Se  Se217  1  0.74148780  0.07348588  0.29633728  1
  Se  Se218  1  0.74606418  0.08189189  0.81331784  1
  Se  Se219  1  0.75489112  0.41064366  0.29757325  1
  Se  Se220  1  0.74955856  0.42859615  0.81104940  1
  Se  Se221  1  0.75682237  0.75244482  0.30737165  1
  Se  Se222  1  0.74997347  0.75330555  0.81218810  1
  Se  Se223  1  0.25045114  0.08323154  0.19736260  1
  Se  Se224  1  0.25074781  0.08602387  0.69178788  1
  Se  Se225  1  0.24671688  0.42983146  0.18302329  1
  Se  Se226  1  0.23985960  0.42011647  0.70007629  1
  Se  Se227  1  0.25088815  0.75318769  0.19616546  1
  Se  Se228  1  0.25081766  0.74895355  0.69492236  1
  Se  Se229  1  0.59056960  0.07690252  0.18920265  1
  Se  Se230  1  0.58508232  0.07954830  0.70731649  1
  Se  Se231  1  0.58790293  0.41772732  0.19292427  1
  Se  Se232  1  0.57347538  0.42459669  0.69597008  1
  Se  Se233  1  0.58482953  0.76075106  0.17353041  1
  Se  Se234  1  0.59185912  0.74714452  0.70580226  1
  Se  Se235  1  0.91640567  0.07701570  0.19282603  1
  Se  Se236  1  0.91110862  0.08454152  0.69454838  1
  Se  Se237  1  0.91507438  0.41709987  0.18247932  1
  Se  Se238  1  0.90897399  0.42901441  0.70061474  1
  Se  Se239  1  0.90876543  0.74547902  0.18807628  1
  Se  Se240  1  0.90559435  0.76373395  0.69213166  1
  Se  Se241  1  0.09430628  0.24964437  0.18393168  1
  Se  Se242  1  0.08647279  0.23975774  0.69480390  1
  Se  Se243  1  0.07731290  0.59283685  0.19323036  1
  Se  Se244  1  0.09140517  0.57251135  0.69822563  1
  Se  Se245  1  0.07800030  0.92260591  0.19435166  1
  Se  Se246  1  0.08506450  0.91390612  0.69301132  1
  Se  Se247  1  0.42355699  0.24322761  0.18120859  1
  Se  Se248  1  0.42568756  0.23544347  0.70769895  1
  Se  Se249  1  0.42075551  0.58942654  0.19141391  1
  Se  Se250  1  0.42151130  0.57930319  0.69508505  1
  Se  Se251  1  0.41041557  0.93239780  0.19291652  1
  Se  Se252  1  0.43115989  0.90321270  0.69791172  1
  Se  Se253  1  0.74987850  0.24639811  0.19785356  1
  Se  Se254  1  0.75535884  0.24759501  0.69488597  1
  Se  Se255  1  0.75564913  0.57692048  0.18240553  1
  Se  Se256  1  0.74760110  0.59357946  0.69905607  1
  Se  Se257  1  0.74556963  0.91338554  0.18391493  1
  Se  Se258  1  0.74606743  0.92365186  0.70191750  1
