# generated using pymatgen
data_In86Cu29Se144
_symmetry_space_group_name_H-M   'P 1'
_cell_length_a   17.69971977
_cell_length_b   17.69775746
_cell_length_c   23.55764486
_cell_angle_alpha   90.00645027
_cell_angle_beta   90.00661791
_cell_angle_gamma   89.98366534
_symmetry_Int_Tables_number   1
_chemical_formula_structural   In86Cu29Se144
_chemical_formula_sum   'In86 Cu29 Se144'
_cell_volume   7379.32225827
_cell_formula_units_Z   1
loop_
 _symmetry_equiv_pos_site_id
 _symmetry_equiv_pos_as_xyz
  1  'x, y, z'
loop_
 _atom_site_type_symbol
 _atom_site_label
 _atom_site_symmetry_multiplicity
 _atom_site_fract_x
 _atom_site_fract_y
 _atom_site_fract_z
 _atom_site_occupancy
  In  In0  1  0.01305473  0.13719203  0.15476141  1
  In  In1  1  0.00341954  0.16501516  0.60967258  1
  In  In2  1  -0.00482381  0.51083146  0.13679336  1
  In  In3  1  -0.00007585  0.50737771  0.62200471  1
  In  In4  1  0.00712408  0.82682921  0.13328420  1
  In  In5  1  -0.01199289  0.83827076  0.62116494  1
  In  In6  1  0.33430344  0.16465702  0.12327295  1
  In  In7  1  0.33113350  0.15991445  0.62145475  1
  In  In8  1  0.32593160  0.50331210  0.13347445  1
  In  In9  1  0.34149355  0.50481164  0.62145128  1
  In  In10  1  0.32989970  0.83716255  0.11641341  1
  In  In11  1  0.34884276  0.83123211  0.64268321  1
  In  In12  1  0.66155823  0.15870927  0.12616758  1
  In  In13  1  0.65222211  0.15011867  0.61157263  1
  In  In14  1  0.67246015  0.50112759  0.12254256  1
  In  In15  1  0.66371757  0.51823878  0.61926380  1
  In  In16  1  0.65231811  0.85332265  0.13713218  1
  In  In17  1  0.66712439  0.83254608  0.62795956  1
  In  In18  1  0.17556853  0.00474316  0.36717585  1
  In  In19  1  0.20370470  -0.03465360  0.93004994  1
  In  In20  1  0.16255701  0.32487518  0.36810974  1
  In  In21  1  0.17229323  0.31605750  0.87695622  1
  In  In22  1  0.16979774  0.66945802  0.36829546  1
  In  In23  1  0.17805930  0.68102207  0.86653473  1
  In  In24  1  0.50744174  -0.00029944  0.36783623  1
  In  In25  1  0.50757686  -0.00257488  0.87295016  1
  In  In26  1  0.48777184  0.33450964  0.37985299  1
  In  In27  1  0.47843085  0.30642363  0.87308107  1
  In  In28  1  0.49710493  0.66478782  0.37061013  1
  In  In29  1  0.51381535  0.68523050  0.85579966  1
  In  In30  1  0.83336036  0.00094031  0.36639356  1
  In  In31  1  0.82414463  0.00243516  0.87314662  1
  In  In32  1  0.82982607  0.31607278  0.37020511  1
  In  In33  1  0.83600861  0.32453857  0.87844439  1
  In  In34  1  0.83623208  0.67758290  0.36914443  1
  In  In35  1  0.83527468  0.67087840  0.86396038  1
  In  In36  1  0.00097433  0.16496186  0.36798693  1
  In  In37  1  0.01492106  0.16065515  0.88068353  1
  In  In38  1  0.00165684  0.49759922  0.36799123  1
  In  In39  1  -0.00783526  0.50623297  0.87869741  1
  In  In40  1  -0.01356756  0.83036398  0.35913671  1
  In  In41  1  0.01250586  0.83755851  0.87925260  1
  In  In42  1  0.33412672  0.16000276  0.37636573  1
  In  In43  1  0.36831790  0.10755872  0.94008148  1
  In  In44  1  0.34397513  0.50827563  0.37054656  1
  In  In45  1  0.32481805  0.50466999  0.86957661  1
  In  In46  1  0.33152826  0.83155890  0.36779836  1
  In  In47  1  0.34029286  0.83414647  0.87057980  1
  In  In48  1  0.67530084  0.15085558  0.37889422  1
  In  In49  1  0.64677565  0.13253229  0.85423293  1
  In  In50  1  0.64651666  0.50517403  0.37801559  1
  In  In51  1  0.65810163  0.50278463  0.86946724  1
  In  In52  1  0.67543717  0.84136379  0.36387864  1
  In  In53  1  0.66396151  0.83258248  0.87276202  1
  In  In54  1  0.17105978  0.00219333  0.12233259  1
  In  In55  1  0.17256910  0.00857551  0.62199023  1
  In  In56  1  0.17612449  0.32231816  0.13473213  1
  In  In57  1  0.17263731  0.32523643  0.61993259  1
  In  In58  1  0.16079503  0.67517351  0.12569156  1
  In  In59  1  0.16481615  0.67037585  0.63213124  1
  In  In60  1  0.49775995  -0.00195087  0.12074237  1
  In  In61  1  0.49124539  0.00799915  0.64086840  1
  In  In62  1  0.50529356  0.31198795  0.12086929  1
  In  In63  1  0.49656359  0.32910901  0.61354061  1
  In  In64  1  0.48429746  0.67753057  0.12395696  1
  In  In65  1  0.50531858  0.67063092  0.62728855  1
  In  In66  1  0.83519266  -0.00850792  0.16648052  1
  In  In67  1  0.82709887  -0.00813863  0.61243253  1
  In  In68  1  0.83490376  0.33906053  0.13262550  1
  In  In69  1  0.84390414  0.33117066  0.61738253  1
  In  In70  1  0.81926197  0.68914147  0.14553896  1
  In  In71  1  0.81433315  0.68323127  0.63275647  1
  In  In72  1  0.83042707  0.50229398  0.50134962  1
  In  In73  1  0.67514248  0.34280079  0.74637054  1
  In  In74  1  0.00155632  0.00184054  0.74918695  1
  In  In75  1  0.83960656  0.83245935  0.01865932  1
  In  In76  1  0.33117221  0.33670835  0.74488135  1
  In  In77  1  0.82732770  0.17138628  0.01075269  1
  In  In78  1  0.49972318  0.49455641  -0.00904136  1
  In  In79  1  0.16172224  0.50024915  0.00056333  1
  In  In80  1  0.65138571  0.33999945  0.26144573  1
  In  In81  1  0.50349273  0.83440319  0.50797082  1
  In  In82  1  0.00606315  0.33919923  0.73966826  1
  In  In83  1  0.16751200  0.49748626  0.50200807  1
  In  In84  1  0.17077444  0.84346258  0.49270268  1
  In  In85  1  0.83230680  0.50636804  0.00664656  1
  Cu  Cu86  1  0.33319492  0.33205141  0.00984894  1
  Cu  Cu87  1  0.15571146  0.50611657  0.75055737  1
  Cu  Cu88  1  0.84348808  0.17451489  0.74295655  1
  Cu  Cu89  1  0.34038485  -0.00055595  0.50131008  1
  Cu  Cu90  1  0.83004616  0.83466476  0.74626391  1
  Cu  Cu91  1  -0.00109653  0.67681122  0.49370131  1
  Cu  Cu92  1  0.17168157  0.49595955  0.25162373  1
  Cu  Cu93  1  0.67222652  -0.00172910  0.00498734  1
  Cu  Cu94  1  0.17708091  0.15787217  0.75271249  1
  Cu  Cu95  1  0.66494461  0.31700865  -0.00813112  1
  Cu  Cu96  1  0.00200839  0.33001080  0.01285856  1
  Cu  Cu97  1  -0.00030852  0.00361766  0.49051371  1
  Cu  Cu98  1  0.00014372  0.67388588  0.00518756  1
  Cu  Cu99  1  -0.00017470  0.32159419  0.48929165  1
  Cu  Cu100  1  0.65686190  0.66972370  -0.00462493  1
  Cu  Cu101  1  0.16536940  0.83953239  0.75955517  1
  Cu  Cu102  1  0.50027900  0.50625604  0.74592505  1
  Cu  Cu103  1  0.66728177  -0.00124001  0.49195238  1
  Cu  Cu104  1  0.66276913  0.33050558  0.49143492  1
  Cu  Cu105  1  0.17424385  0.83839424  0.24495405  1
  Cu  Cu106  1  0.33877336  0.66928390  -0.00618014  1
  Cu  Cu107  1  -0.00606709  0.01111641  0.01274506  1
  Cu  Cu108  1  0.49441634  0.16151480  0.24842989  1
  Cu  Cu109  1  0.49156157  0.83269783  0.24479444  1
  Cu  Cu110  1  0.66367401  0.67528316  0.50224257  1
  Cu  Cu111  1  0.17572856  0.16347975  0.25195182  1
  Cu  Cu112  1  0.49592511  0.50302983  0.25021695  1
  Cu  Cu113  1  0.83201717  0.50622670  0.25344899  1
  Cu  Cu114  1  0.32744562  0.32503851  0.49774962  1
  Se  Se115  1  0.07988901  0.09249963  0.06344316  1
  Se  Se116  1  0.08703405  0.07692494  0.54801875  1
  Se  Se117  1  0.07852909  0.41638203  0.06895497  1
  Se  Se118  1  0.07059088  0.40369311  0.55590092  1
  Se  Se119  1  0.08577865  0.75806806  0.05355021  1
  Se  Se120  1  0.08194994  0.75149333  0.55523889  1
  Se  Se121  1  0.41224679  0.07960499  0.05224748  1
  Se  Se122  1  0.42235828  0.07923095  0.55847745  1
  Se  Se123  1  0.41489363  0.41641663  0.06360568  1
  Se  Se124  1  0.40612201  0.41158865  0.55195291  1
  Se  Se125  1  0.41705500  0.75657425  0.04672156  1
  Se  Se126  1  0.40602238  0.74652795  0.56005620  1
  Se  Se127  1  0.75552265  0.06679760  0.06930724  1
  Se  Se128  1  0.75077845  0.08310205  0.54709726  1
  Se  Se129  1  0.74023586  0.40094403  0.05237519  1
  Se  Se130  1  0.73791172  0.40925907  0.55748522  1
  Se  Se131  1  0.73505208  0.74330221  0.06129057  1
  Se  Se132  1  0.74875560  0.75859855  0.55272205  1
  Se  Se133  1  0.24651757  0.24771433  0.05657606  1
  Se  Se134  1  0.24713892  0.24075952  0.55133954  1
  Se  Se135  1  0.25777391  0.59017319  0.05442021  1
  Se  Se136  1  0.25187801  0.59424177  0.55795846  1
  Se  Se137  1  0.25096576  0.92589125  0.04727574  1
  Se  Se138  1  0.26395815  0.91624402  0.56195176  1
  Se  Se139  1  0.58725919  0.23638755  0.04969896  1
  Se  Se140  1  0.58207035  0.24779811  0.54770764  1
  Se  Se141  1  0.58253215  0.58458670  0.05583665  1
  Se  Se142  1  0.57705954  0.59091500  0.54967929  1
  Se  Se143  1  0.58335016  0.91492365  0.05263871  1
  Se  Se144  1  0.58940362  0.93135264  0.56190126  1
  Se  Se145  1  0.92324220  0.25051741  0.07149036  1
  Se  Se146  1  0.91438011  0.24504773  0.54563414  1
  Se  Se147  1  0.91665577  0.59969485  0.06496613  1
  Se  Se148  1  0.92026153  0.59754345  0.55515909  1
  Se  Se149  1  0.91888146  0.93228748  0.07670735  1
  Se  Se150  1  0.91977840  0.91918534  0.54559650  1
  Se  Se151  1  0.08753075  0.24196019  0.44006140  1
  Se  Se152  1  0.07918098  0.25593182  0.94937489  1
  Se  Se153  1  0.07793082  0.59030965  0.44086545  1
  Se  Se154  1  0.07872774  0.59647298  0.94180497  1
  Se  Se155  1  0.07598071  0.92110516  0.43037200  1
  Se  Se156  1  0.06830092  0.91926940  0.95966016  1
  Se  Se157  1  0.41455249  0.24321508  0.44708957  1
  Se  Se158  1  0.42020227  0.24887502  0.96259646  1
  Se  Se159  1  0.42428421  0.58175473  0.44322450  1
  Se  Se160  1  0.41506745  0.58923767  0.93233694  1
  Se  Se161  1  0.41421497  0.91692700  0.44065499  1
  Se  Se162  1  0.42053716  0.91689807  0.93876904  1
  Se  Se163  1  0.74852245  0.24638940  0.44448547  1
  Se  Se164  1  0.74073497  0.23493920  0.93141043  1
  Se  Se165  1  0.74100803  0.59140093  0.44144723  1
  Se  Se166  1  0.74228916  0.58995541  0.94001064  1
  Se  Se167  1  0.75115169  0.91863735  0.43814566  1
  Se  Se168  1  0.75382019  0.91558367  0.94888226  1
  Se  Se169  1  0.25293090  0.07485615  0.44564114  1
  Se  Se170  1  0.22169235  0.10897979  0.94025367  1
  Se  Se171  1  0.25303272  0.41101812  0.43789182  1
  Se  Se172  1  0.25861548  0.40945160  0.94406435  1
  Se  Se173  1  0.25824534  0.74317863  0.44222658  1
  Se  Se174  1  0.25312965  0.75251561  0.94259354  1
  Se  Se175  1  0.57790512  0.08041569  0.44388049  1
  Se  Se176  1  0.59242620  0.07853757  0.94748938  1
  Se  Se177  1  0.57562072  0.41556241  0.44646553  1
  Se  Se178  1  0.58705387  0.39909746  0.93244521  1
  Se  Se179  1  0.58790496  0.75392385  0.43780471  1
  Se  Se180  1  0.57783204  0.75314036  0.94077370  1
  Se  Se181  1  0.91582254  0.08396403  0.43637622  1
  Se  Se182  1  0.91622349  0.07970179  0.94473770  1
  Se  Se183  1  0.91849279  0.41159482  0.43935453  1
  Se  Se184  1  0.92308182  0.40797074  0.95062081  1
  Se  Se185  1  0.91588614  0.75744237  0.44030799  1
  Se  Se186  1  0.91707023  0.74863666  0.94294617  1
  Se  Se187  1  0.25673139  0.24675442  0.30642031  1
  Se  Se188  1  0.25769907  0.24036145  0.80832480  1
  Se  Se189  1  0.25182339  0.58229831  0.30424362  1
  Se  Se190  1  0.24616847  0.58473116  0.79959496  1
  Se  Se191  1  0.25680864  0.91949374  0.30008037  1
  Se  Se192  1  0.23576322  0.92109373  0.82445938  1
  Se  Se193  1  0.57172074  0.23728377  0.31460209  1
  Se  Se194  1  0.58223207  0.25291392  0.80331066  1
  Se  Se195  1  0.58176446  0.58531712  0.30019957  1
  Se  Se196  1  0.58960221  0.58620456  0.79588967  1
  Se  Se197  1  0.57963750  0.91227799  0.29803710  1
  Se  Se198  1  0.61766149  0.94401750  0.81147836  1
  Se  Se199  1  0.92452168  0.25669568  0.30234944  1
  Se  Se200  1  0.92413413  0.24604131  0.80648479  1
  Se  Se201  1  0.91765406  0.58564709  0.30654760  1
  Se  Se202  1  0.91819568  0.58115017  0.80515537  1
  Se  Se203  1  0.91830668  0.92604466  0.29438289  1
  Se  Se204  1  0.91062353  0.90971948  0.81019570  1
  Se  Se205  1  0.08586613  0.08122149  0.30064474  1
  Se  Se206  1  0.09491300  0.07936092  0.81151333  1
  Se  Se207  1  0.08475981  0.41484757  0.30211290  1
  Se  Se208  1  0.09055132  0.41839024  0.81344139  1
  Se  Se209  1  0.09230271  0.75833395  0.30305296  1
  Se  Se210  1  0.07784006  0.75216949  0.80463279  1
  Se  Se211  1  0.41476149  0.07862916  0.30504406  1
  Se  Se212  1  0.42357488  0.11015085  0.83750555  1
  Se  Se213  1  0.41826239  0.41592403  0.30352913  1
  Se  Se214  1  0.42618738  0.42305696  0.80817310  1
  Se  Se215  1  0.41567894  0.74841803  0.30236829  1
  Se  Se216  1  0.39588679  0.73145931  0.80370724  1
  Se  Se217  1  0.74275077  0.07876569  0.29986465  1
  Se  Se218  1  0.76443505  0.08885843  0.79644587  1
  Se  Se219  1  0.75213273  0.42775275  0.31540278  1
  Se  Se220  1  0.76566714  0.42396822  0.81363534  1
  Se  Se221  1  0.73254619  0.73224830  0.30481041  1
  Se  Se222  1  0.74757978  0.75346217  0.80209411  1
  Se  Se223  1  0.25470255  0.08165745  0.19335269  1
  Se  Se224  1  0.25727944  0.07672827  0.69619040  1
  Se  Se225  1  0.25506855  0.41124452  0.20015991  1
  Se  Se226  1  0.23580389  0.42799654  0.68810513  1
  Se  Se227  1  0.25358147  0.75214296  0.18945892  1
  Se  Se228  1  0.24252851  0.75946084  0.69804970  1
  Se  Se229  1  0.57762304  0.07916424  0.19390670  1
  Se  Se230  1  0.58635805  0.09237459  0.69727538  1
  Se  Se231  1  0.57261692  0.42264867  0.18608988  1
  Se  Se232  1  0.57498200  0.42189744  0.68522997  1
  Se  Se233  1  0.57545792  0.75037952  0.19124619  1
  Se  Se234  1  0.57438092  0.76276436  0.69407987  1
  Se  Se235  1  0.88513728  0.11740235  0.20392361  1
  Se  Se236  1  0.91688556  0.08802852  0.68300495  1
  Se  Se237  1  0.91413973  0.42217024  0.20070670  1
  Se  Se238  1  0.90649517  0.42807396  0.69024822  1
  Se  Se239  1  0.93919138  0.72919316  0.19765845  1
  Se  Se240  1  0.91595209  0.75455554  0.69327189  1
  Se  Se241  1  0.08805580  0.24649558  0.20278652  1
  Se  Se242  1  0.09417833  0.23478399  0.69110910  1
  Se  Se243  1  0.09386189  0.58339776  0.19679720  1
  Se  Se244  1  0.07527983  0.58755807  0.69482158  1
  Se  Se245  1  0.08876052  0.92063922  0.19305221  1
  Se  Se246  1  0.09068633  0.91061280  0.68808262  1
  Se  Se247  1  0.41772788  0.24792503  0.19345297  1
  Se  Se248  1  0.42185239  0.24566330  0.68863373  1
  Se  Se249  1  0.41547134  0.58622023  0.19410254  1
  Se  Se250  1  0.41605773  0.58698974  0.69263487  1
  Se  Se251  1  0.41250090  0.91673333  0.18811764  1
  Se  Se252  1  0.41964026  0.92034870  0.70946475  1
  Se  Se253  1  0.73651292  0.25841186  0.19257418  1
  Se  Se254  1  0.75752180  0.24877483  0.68463039  1
  Se  Se255  1  0.74560202  0.58048264  0.19633547  1
  Se  Se256  1  0.75223755  0.57788615  0.69180360  1
  Se  Se257  1  0.77234449  0.86887085  0.19850715  1
  Se  Se258  1  0.75379007  0.92088008  0.69105111  1
