# generated using pymatgen
data_In86Cu29Se144
_symmetry_space_group_name_H-M   'P 1'
_cell_length_a   17.57599922
_cell_length_b   17.57565095
_cell_length_c   23.43708406
_cell_angle_alpha   89.97810851
_cell_angle_beta   90.00209106
_cell_angle_gamma   89.97818384
_symmetry_Int_Tables_number   1
_chemical_formula_structural   In86Cu29Se144
_chemical_formula_sum   'In86 Cu29 Se144'
_cell_volume   7239.93984557
_cell_formula_units_Z   1
loop_
 _symmetry_equiv_pos_site_id
 _symmetry_equiv_pos_as_xyz
  1  'x, y, z'
loop_
 _atom_site_type_symbol
 _atom_site_label
 _atom_site_symmetry_multiplicity
 _atom_site_fract_x
 _atom_site_fract_y
 _atom_site_fract_z
 _atom_site_occupancy
  In  In0  1  0.00592686  0.17235900  0.11524672  1
  In  In1  1  -0.01896882  0.16844167  0.62668401  1
  In  In2  1  -0.00333697  0.49318515  0.13041010  1
  In  In3  1  0.00691704  0.50847842  0.61710113  1
  In  In4  1  -0.01616210  0.82451683  0.12420583  1
  In  In5  1  -0.01769093  0.83618904  0.64552941  1
  In  In6  1  0.33178727  0.16933460  0.11914446  1
  In  In7  1  0.35177559  0.16528645  0.62807905  1
  In  In8  1  0.32714572  0.49184891  0.11758183  1
  In  In9  1  0.33098636  0.50069725  0.62779229  1
  In  In10  1  0.35164685  0.84095193  0.12740047  1
  In  In11  1  0.32178333  0.81579081  0.62813638  1
  In  In12  1  0.67332738  0.17541871  0.10691921  1
  In  In13  1  0.66842336  0.17063786  0.63101789  1
  In  In14  1  0.67221225  0.51063001  0.11972072  1
  In  In15  1  0.65716655  0.48611534  0.61867367  1
  In  In16  1  0.67539636  0.81563781  0.12800974  1
  In  In17  1  0.69513722  0.83127788  0.63165358  1
  In  In18  1  0.16644344  -0.01382312  0.37291405  1
  In  In19  1  0.16067436  0.01218357  0.87568912  1
  In  In20  1  0.16536297  0.35027311  0.37738509  1
  In  In21  1  0.17476474  0.32527879  0.87729838  1
  In  In22  1  0.15540081  0.66573385  0.37664954  1
  In  In23  1  0.15273950  0.65543803  0.86623630  1
  In  In24  1  0.50082516  0.01419104  0.37577291  1
  In  In25  1  0.51431753  -0.00349785  0.87301782  1
  In  In26  1  0.49847371  0.33559210  0.38349319  1
  In  In27  1  0.50106175  0.33497594  0.87841890  1
  In  In28  1  0.50092234  0.64873157  0.37926617  1
  In  In29  1  0.48881176  0.66761714  0.87097073  1
  In  In30  1  0.83681878  0.00077060  0.38498624  1
  In  In31  1  0.83634105  -0.00184048  0.87489368  1
  In  In32  1  0.83694533  0.33178522  0.37764298  1
  In  In33  1  0.80603803  0.32946722  0.87041325  1
  In  In34  1  0.83325286  0.66749222  0.37629852  1
  In  In35  1  0.84634445  0.65598821  0.86915128  1
  In  In36  1  -0.01485910  0.16169865  0.37678948  1
  In  In37  1  0.00490002  0.16144698  0.88017715  1
  In  In38  1  -0.00385114  0.50512550  0.37802815  1
  In  In39  1  -0.01019890  0.51614522  0.86983801  1
  In  In40  1  -0.00592700  0.81675774  0.36964106  1
  In  In41  1  -0.01841318  0.81406903  0.85561262  1
  In  In42  1  0.34489460  0.17298903  0.37534908  1
  In  In43  1  0.32190079  0.17389117  0.87776573  1
  In  In44  1  0.33178804  0.50780266  0.39257243  1
  In  In45  1  0.33537042  0.49673092  0.87460559  1
  In  In46  1  0.31957732  0.83465230  0.37332975  1
  In  In47  1  0.34001558  0.82565850  0.86759907  1
  In  In48  1  0.66666563  0.16610316  0.38267371  1
  In  In49  1  0.66690464  0.16817187  0.88185588  1
  In  In50  1  0.66501689  0.50539882  0.37793085  1
  In  In51  1  0.66572684  0.46992251  0.86929757  1
  In  In52  1  0.68742016  0.82825337  0.38118573  1
  In  In53  1  0.67296884  0.84748815  0.86582875  1
  In  In54  1  0.16762891  0.01742706  0.12160739  1
  In  In55  1  0.15657428  -0.02272330  0.63394776  1
  In  In56  1  0.15296678  0.32756057  0.11644561  1
  In  In57  1  0.16394334  0.35328831  0.62653037  1
  In  In58  1  0.16348186  0.65096734  0.12228264  1
  In  In59  1  0.16974150  0.66205924  0.63659106  1
  In  In60  1  0.49402306  0.00334130  0.12391704  1
  In  In61  1  0.50297211  0.01944875  0.62622806  1
  In  In62  1  0.50895808  0.33716221  0.10748021  1
  In  In63  1  0.50333644  0.33280922  0.63059857  1
  In  In64  1  0.51439628  0.66582536  0.12369825  1
  In  In65  1  0.49690800  0.64874410  0.62138709  1
  In  In66  1  0.82940263  -0.00541340  0.11897329  1
  In  In67  1  0.82782110  0.00085056  0.63473375  1
  In  In68  1  0.84521414  0.34180936  0.12258280  1
  In  In69  1  0.82291344  0.32378516  0.61936374  1
  In  In70  1  0.83168938  0.66836269  0.13686366  1
  In  In71  1  0.84307046  0.67093009  0.61927124  1
  In  In72  1  0.15963083  0.82380953  0.50055101  1
  In  In73  1  0.50775540  0.83280168  -0.00061436  1
  In  In74  1  0.16470394  0.83854035  -0.00966996  1
  In  In75  1  0.00146071  -0.00234893  0.25005339  1
  In  In76  1  0.66643880  -0.00361771  0.24469739  1
  In  In77  1  0.66800115  0.66298054  0.74323265  1
  In  In78  1  0.33356866  0.66927498  0.25276663  1
  In  In79  1  0.33195194  0.33463351  0.24925935  1
  In  In80  1  0.50376878  0.83526472  0.51118689  1
  In  In81  1  -0.00382241  0.33716842  0.74693586  1
  In  In82  1  0.67337363  0.34156628  0.25255547  1
  In  In83  1  0.16488623  0.16814753  0.50568825  1
  In  In84  1  0.33350858  0.00056765  0.74831748  1
  In  In85  1  0.83123417  0.49568550  -0.00330218  1
  Cu  Cu86  1  0.16546570  0.17023941  0.24097409  1
  Cu  Cu87  1  0.83686777  0.16832464  0.25078127  1
  Cu  Cu88  1  0.50030128  0.50198242  0.25164365  1
  Cu  Cu89  1  0.33408610  0.00718155  -0.00068334  1
  Cu  Cu90  1  0.67194753  0.66456163  -0.00068055  1
  Cu  Cu91  1  0.50597013  0.83681623  0.25016126  1
  Cu  Cu92  1  0.67243476  0.00784139  0.50544632  1
  Cu  Cu93  1  0.17569760  0.84203383  0.24538318  1
  Cu  Cu94  1  0.16795525  0.16985965  0.75212384  1
  Cu  Cu95  1  0.67108789  0.66503730  0.50333553  1
  Cu  Cu96  1  0.33130974  0.65613648  -0.00373974  1
  Cu  Cu97  1  0.49995763  0.83058004  0.74590030  1
  Cu  Cu98  1  0.66599882  0.33018137  0.50150864  1
  Cu  Cu99  1  -0.00141715  0.66769332  0.50035146  1
  Cu  Cu100  1  0.82645699  0.16475367  0.75369927  1
  Cu  Cu101  1  0.49794729  0.16680346  0.24929572  1
  Cu  Cu102  1  0.49783176  0.49560387  0.74897638  1
  Cu  Cu103  1  0.67225216  -0.00056331  -0.00488501  1
  Cu  Cu104  1  -0.00999760  -0.00329013  0.50889861  1
  Cu  Cu105  1  -0.00077203  0.33576777  -0.00369098  1
  Cu  Cu106  1  0.50594161  0.17358939  0.75460622  1
  Cu  Cu107  1  -0.00679374  -0.00193252  -0.00112282  1
  Cu  Cu108  1  0.33540578  0.00134280  0.50083964  1
  Cu  Cu109  1  -0.00274790  0.33823844  0.50178232  1
  Cu  Cu110  1  0.34129490  0.33508336  0.50649944  1
  Cu  Cu111  1  0.15244687  0.50161270  0.25150670  1
  Cu  Cu112  1  0.17216640  0.49788514  0.75123743  1
  Cu  Cu113  1  0.33340377  0.33580444  -0.00349666  1
  Cu  Cu114  1  -0.00229342  0.66644842  -0.00590131  1
  Se  Se115  1  0.08193414  0.08235888  0.04688976  1
  Se  Se116  1  0.07818710  0.07280134  0.56496443  1
  Se  Se117  1  0.07668137  0.42241919  0.05291050  1
  Se  Se118  1  0.08679191  0.42095957  0.54803295  1
  Se  Se119  1  0.08034158  0.74533824  0.05460994  1
  Se  Se120  1  0.07052786  0.74686179  0.56826708  1
  Se  Se121  1  0.41967756  0.08713082  0.05254913  1
  Se  Se122  1  0.42006157  0.08672723  0.54921869  1
  Se  Se123  1  0.41689852  0.42115972  0.04815012  1
  Se  Se124  1  0.42115618  0.41807584  0.56227479  1
  Se  Se125  1  0.41088398  0.73981759  0.05526946  1
  Se  Se126  1  0.40644906  0.73904207  0.55595993  1
  Se  Se127  1  0.75695467  0.08216950  0.04860309  1
  Se  Se128  1  0.75411937  0.08861947  0.56234513  1
  Se  Se129  1  0.73952165  0.40550629  0.05577920  1
  Se  Se130  1  0.75135541  0.41592093  0.54995637  1
  Se  Se131  1  0.75732020  0.74139477  0.05516716  1
  Se  Se132  1  0.75578620  0.75176996  0.55087573  1
  Se  Se133  1  0.24930083  0.25417154  0.05287997  1
  Se  Se134  1  0.25716674  0.25569854  0.56551665  1
  Se  Se135  1  0.24515383  0.57686357  0.04974705  1
  Se  Se136  1  0.24287688  0.58252479  0.56268791  1
  Se  Se137  1  0.25840942  0.92028757  0.05809322  1
  Se  Se138  1  0.25482277  0.91934444  0.55730201  1
  Se  Se139  1  0.57445999  0.23980574  0.04340998  1
  Se  Se140  1  0.58401136  0.24948421  0.55927582  1
  Se  Se141  1  0.58300790  0.58273452  0.04845411  1
  Se  Se142  1  0.58442468  0.57923609  0.54975497  1
  Se  Se143  1  0.59727343  0.92072951  0.06326378  1
  Se  Se144  1  0.59614565  0.92514635  0.56789715  1
  Se  Se145  1  0.91562825  0.25356488  0.05114790  1
  Se  Se146  1  0.91459882  0.24960963  0.54984399  1
  Se  Se147  1  0.91820022  0.58762619  0.05761560  1
  Se  Se148  1  0.91388960  0.58015405  0.54860339  1
  Se  Se149  1  0.91399412  0.91126006  0.05204729  1
  Se  Se150  1  0.91257150  0.91454202  0.56670353  1
  Se  Se151  1  0.07678778  0.25420141  0.44121025  1
  Se  Se152  1  0.08541528  0.25015053  0.94628697  1
  Se  Se153  1  0.08424524  0.58268419  0.44992106  1
  Se  Se154  1  0.08008810  0.57953792  0.94455982  1
  Se  Se155  1  0.06864448  0.92059825  0.44338351  1
  Se  Se156  1  0.06699604  0.91949362  0.93286790  1
  Se  Se157  1  0.41925377  0.24837278  0.45135251  1
  Se  Se158  1  0.41361916  0.24886275  0.94379072  1
  Se  Se159  1  0.42379129  0.58148687  0.45631773  1
  Se  Se160  1  0.42131983  0.58028888  0.94379474  1
  Se  Se161  1  0.41318273  0.91778205  0.44125515  1
  Se  Se162  1  0.41090550  0.92109447  0.94073802  1
  Se  Se163  1  0.75174284  0.25025799  0.44599595  1
  Se  Se164  1  0.75104197  0.24905565  0.95082689  1
  Se  Se165  1  0.75240610  0.58324350  0.44635684  1
  Se  Se166  1  0.74222537  0.58349595  0.93263211  1
  Se  Se167  1  0.75216229  0.92016914  0.45301113  1
  Se  Se168  1  0.75326344  0.91187188  0.94474961  1
  Se  Se169  1  0.25125412  0.07783573  0.44045774  1
  Se  Se170  1  0.24557133  0.08584316  0.94753785  1
  Se  Se171  1  0.25255736  0.41253357  0.45272911  1
  Se  Se172  1  0.24770180  0.41844899  0.94450650  1
  Se  Se173  1  0.25792155  0.73672567  0.44411877  1
  Se  Se174  1  0.25542093  0.74111751  0.93761246  1
  Se  Se175  1  0.58340045  0.08377955  0.45100370  1
  Se  Se176  1  0.58104687  0.07968054  0.94822890  1
  Se  Se177  1  0.58645698  0.41709956  0.44633849  1
  Se  Se178  1  0.57929413  0.42108264  0.94795485  1
  Se  Se179  1  0.58737049  0.74674554  0.44406069  1
  Se  Se180  1  0.59376255  0.74509345  0.93513201  1
  Se  Se181  1  0.91366811  0.08644208  0.45508667  1
  Se  Se182  1  0.91303395  0.08559050  0.94620215  1
  Se  Se183  1  0.91431045  0.41960454  0.44624152  1
  Se  Se184  1  0.91917408  0.40851963  0.93162012  1
  Se  Se185  1  0.91471555  0.75314287  0.44874176  1
  Se  Se186  1  0.91366379  0.74771756  0.94071202  1
  Se  Se187  1  0.24023556  0.24565305  0.31020409  1
  Se  Se188  1  0.25393617  0.25393665  0.79929695  1
  Se  Se189  1  0.24479561  0.57316174  0.30932877  1
  Se  Se190  1  0.25365264  0.58267624  0.80559578  1
  Se  Se191  1  0.25731022  0.92472343  0.29855081  1
  Se  Se192  1  0.24508978  0.91607393  0.81196860  1
  Se  Se193  1  0.57788230  0.24692048  0.30907279  1
  Se  Se194  1  0.58884891  0.25399667  0.81038577  1
  Se  Se195  1  0.58501718  0.58431698  0.30298013  1
  Se  Se196  1  0.57968113  0.57705557  0.80851839  1
  Se  Se197  1  0.58266629  0.91364175  0.31539903  1
  Se  Se198  1  0.58245862  0.91724994  0.79509037  1
  Se  Se199  1  0.91835059  0.25083248  0.30466511  1
  Se  Se200  1  0.91193636  0.24640987  0.81120155  1
  Se  Se201  1  0.94050329  0.61017888  0.31227136  1
  Se  Se202  1  0.92039595  0.58717351  0.78883964  1
  Se  Se203  1  0.90710284  0.91228254  0.30853922  1
  Se  Se204  1  0.92072063  0.92547539  0.80136593  1
  Se  Se205  1  0.09149425  0.09131760  0.30938209  1
  Se  Se206  1  0.08112897  0.08831118  0.80139838  1
  Se  Se207  1  0.07489724  0.41620480  0.30672097  1
  Se  Se208  1  0.08727681  0.42045205  0.81168019  1
  Se  Se209  1  0.09696243  0.75876853  0.30258048  1
  Se  Se210  1  0.09506533  0.75716675  0.80087671  1
  Se  Se211  1  0.41436440  0.08520645  0.30236990  1
  Se  Se212  1  0.42243161  0.08851751  0.81128000  1
  Se  Se213  1  0.41709408  0.42663068  0.31227579  1
  Se  Se214  1  0.41687706  0.41258403  0.80554186  1
  Se  Se215  1  0.42581117  0.75754763  0.31337897  1
  Se  Se216  1  0.41534447  0.74545429  0.79399238  1
  Se  Se217  1  0.75547316  0.08696216  0.30871991  1
  Se  Se218  1  0.74604568  0.08302748  0.81126474  1
  Se  Se219  1  0.76342765  0.43090479  0.30949873  1
  Se  Se220  1  0.77116630  0.43466799  0.79868666  1
  Se  Se221  1  0.74772830  0.74559980  0.30503093  1
  Se  Se222  1  0.75567554  0.75012894  0.80645902  1
  Se  Se223  1  0.25454593  0.08803230  0.19383082  1
  Se  Se224  1  0.24173050  0.08831710  0.68582874  1
  Se  Se225  1  0.23535165  0.42140323  0.19211965  1
  Se  Se226  1  0.25518690  0.41283495  0.70019756  1
  Se  Se227  1  0.24862844  0.75598805  0.18402935  1
  Se  Se228  1  0.23124037  0.76377981  0.70326621  1
  Se  Se229  1  0.58417890  0.09641596  0.18727124  1
  Se  Se230  1  0.58595085  0.08659363  0.70174206  1
  Se  Se231  1  0.57609489  0.42113455  0.18947064  1
  Se  Se232  1  0.58767161  0.41391879  0.70057446  1
  Se  Se233  1  0.58372938  0.74800902  0.19913335  1
  Se  Se234  1  0.57766862  0.75398739  0.68132124  1
  Se  Se235  1  0.91270305  0.08706617  0.18788618  1
  Se  Se236  1  0.91497888  0.08527918  0.70205103  1
  Se  Se237  1  0.90762523  0.42145478  0.19998307  1
  Se  Se238  1  0.91295626  0.41942352  0.67955092  1
  Se  Se239  1  0.92588519  0.74220183  0.20231983  1
  Se  Se240  1  0.91530516  0.73069267  0.70454588  1
  Se  Se241  1  0.07672898  0.25160843  0.19326111  1
  Se  Se242  1  0.08828791  0.24537956  0.68675791  1
  Se  Se243  1  0.07580064  0.58723827  0.19580796  1
  Se  Se244  1  0.08200175  0.57541812  0.69900342  1
  Se  Se245  1  0.09022973  0.91318275  0.18298527  1
  Se  Se246  1  0.06990200  0.92045369  0.70951570  1
  Se  Se247  1  0.42698206  0.25292033  0.18754344  1
  Se  Se248  1  0.41806488  0.25181686  0.70149054  1
  Se  Se249  1  0.41750088  0.57713815  0.18866688  1
  Se  Se250  1  0.41519789  0.58302770  0.69890204  1
  Se  Se251  1  0.42260059  0.92362739  0.20140169  1
  Se  Se252  1  0.42063391  0.91111540  0.68355237  1
  Se  Se253  1  0.75404435  0.24439356  0.18987611  1
  Se  Se254  1  0.74966278  0.25486305  0.70104220  1
  Se  Se255  1  0.74551315  0.57970706  0.19699119  1
  Se  Se256  1  0.75134626  0.57602836  0.67893373  1
  Se  Se257  1  0.76269183  0.90387847  0.19535135  1
  Se  Se258  1  0.74724308  0.92149780  0.70718231  1
