# generated using pymatgen
data_In86Cu29Se144
_symmetry_space_group_name_H-M   'P 1'
_cell_length_a   17.57968257
_cell_length_b   17.58018708
_cell_length_c   23.43872666
_cell_angle_alpha   89.98916602
_cell_angle_beta   90.00104463
_cell_angle_gamma   89.98218681
_symmetry_Int_Tables_number   1
_chemical_formula_structural   In86Cu29Se144
_chemical_formula_sum   'In86 Cu29 Se144'
_cell_volume   7243.83429055
_cell_formula_units_Z   1
loop_
 _symmetry_equiv_pos_site_id
 _symmetry_equiv_pos_as_xyz
  1  'x, y, z'
loop_
 _atom_site_type_symbol
 _atom_site_label
 _atom_site_symmetry_multiplicity
 _atom_site_fract_x
 _atom_site_fract_y
 _atom_site_fract_z
 _atom_site_occupancy
  In  In0  1  0.00806264  0.15857221  0.13295531  1
  In  In1  1  0.01175410  0.16749292  0.62522002  1
  In  In2  1  -0.01592986  0.50477143  0.12786847  1
  In  In3  1  -0.00994427  0.50708712  0.63035701  1
  In  In4  1  -0.00256514  0.82886351  0.11066003  1
  In  In5  1  -0.00146621  0.82008349  0.62455807  1
  In  In6  1  0.32922238  0.17084020  0.12550004  1
  In  In7  1  0.32531026  0.16006550  0.61994493  1
  In  In8  1  0.34600324  0.50670522  0.12244096  1
  In  In9  1  0.34608657  0.50386872  0.62498838  1
  In  In10  1  0.31310723  0.83832966  0.13289991  1
  In  In11  1  0.33332195  0.83358942  0.62681896  1
  In  In12  1  0.66130235  0.14962493  0.13141373  1
  In  In13  1  0.64752371  0.17919647  0.64168735  1
  In  In14  1  0.67227508  0.50812450  0.11356905  1
  In  In15  1  0.66760492  0.50104594  0.62852204  1
  In  In16  1  0.68542013  0.83762814  0.12509525  1
  In  In17  1  0.65541267  0.84591885  0.63622167  1
  In  In18  1  0.16950702  -0.00203114  0.37768100  1
  In  In19  1  0.16963732  -0.01140955  0.88342532  1
  In  In20  1  0.15355492  0.32728263  0.37280303  1
  In  In21  1  0.15163654  0.33899602  0.87368304  1
  In  In22  1  0.18210682  0.66550193  0.37088790  1
  In  In23  1  0.17057397  0.67437198  0.86841048  1
  In  In24  1  0.49932465  -0.00481246  0.38316981  1
  In  In25  1  0.49842718  0.00837113  0.85770556  1
  In  In26  1  0.50352115  0.33384340  0.38855663  1
  In  In27  1  0.51890247  0.32879299  0.86807032  1
  In  In28  1  0.50004485  0.67754784  0.38651145  1
  In  In29  1  0.49233402  0.65946068  0.86868637  1
  In  In30  1  0.83429212  -0.00559836  0.36101999  1
  In  In31  1  0.83267905  -0.00200009  0.88126774  1
  In  In32  1  0.84171050  0.34063487  0.37382606  1
  In  In33  1  0.83665675  0.33850788  0.86953176  1
  In  In34  1  0.82282036  0.66949021  0.37481987  1
  In  In35  1  0.83492504  0.66743898  0.87578474  1
  In  In36  1  0.00499875  0.16764872  0.37043335  1
  In  In37  1  -0.00460807  0.17226920  0.87984962  1
  In  In38  1  -0.00144305  0.48918898  0.37102601  1
  In  In39  1  -0.01039272  0.49206249  0.87108574  1
  In  In40  1  0.00176362  0.84892597  0.36806461  1
  In  In41  1  0.01385550  0.81779312  0.89672908  1
  In  In42  1  0.33639250  0.16259607  0.38703719  1
  In  In43  1  0.33972473  0.15254492  0.86870577  1
  In  In44  1  0.34083623  0.51246387  0.37646304  1
  In  In45  1  0.33089678  0.51752743  0.87233912  1
  In  In46  1  0.33529663  0.82910585  0.37942914  1
  In  In47  1  0.32682584  0.83058020  0.86850078  1
  In  In48  1  0.66109665  0.15782900  0.37802995  1
  In  In49  1  0.66230630  0.16300766  0.86021606  1
  In  In50  1  0.66984499  0.50084892  0.38656322  1
  In  In51  1  0.66698800  0.49954139  0.87297570  1
  In  In52  1  0.66056200  0.82911196  0.37677372  1
  In  In53  1  0.67796331  0.84032888  0.86957000  1
  In  In54  1  0.13230209  -0.02921318  0.08743357  1
  In  In55  1  0.17681281  0.00578314  0.61909233  1
  In  In56  1  0.16686474  0.31379436  0.12135807  1
  In  In57  1  0.16510435  0.32118832  0.62579565  1
  In  In58  1  0.16004781  0.70834951  0.12891003  1
  In  In59  1  0.15845131  0.67675293  0.63091006  1
  In  In60  1  0.51658608  0.00686666  0.13291818  1
  In  In61  1  0.49909065  -0.00077810  0.62544456  1
  In  In62  1  0.49431660  0.33724851  0.12346145  1
  In  In63  1  0.50515102  0.34615323  0.61734979  1
  In  In64  1  0.50587220  0.65825183  0.12388888  1
  In  In65  1  0.50003301  0.66821028  0.62894798  1
  In  In66  1  0.85227760  -0.02238535  0.15070025  1
  In  In67  1  0.81991101  -0.00827109  0.62553818  1
  In  In68  1  0.83759965  0.35170832  0.12618719  1
  In  In69  1  0.82169335  0.33934616  0.63316515  1
  In  In70  1  0.84311091  0.66276695  0.10853556  1
  In  In71  1  0.83927172  0.65813330  0.63312332  1
  In  In72  1  0.49345935  0.82717601  -0.00725175  1
  In  In73  1  0.49767549  0.17028749  0.00027040  1
  In  In74  1  0.83128305  0.82950772  0.49920896  1
  In  In75  1  0.32932745  0.00163335  0.25344468  1
  In  In76  1  0.33294894  0.33636737  0.74346937  1
  In  In77  1  0.16914086  0.49689566  0.49473696  1
  In  In78  1  -0.00512782  -0.00153628  0.75382168  1
  In  In79  1  0.16479972  0.50599606  0.00027614  1
  In  In80  1  0.83519568  0.16395244  -0.00173747  1
  In  In81  1  0.67295408  0.33206915  0.25690346  1
  In  In82  1  -0.00003377  0.66919547  0.24496426  1
  In  In83  1  0.83245773  0.16914167  0.49469277  1
  In  In84  1  0.33333536  0.33349640  0.24493592  1
  In  In85  1  0.67116211  0.67011692  0.24655949  1
  Cu  Cu86  1  0.33656753  0.66838471  0.50199330  1
  Cu  Cu87  1  0.83719421  0.17337104  0.25309598  1
  Cu  Cu88  1  0.32953802  0.00183254  -0.00321677  1
  Cu  Cu89  1  0.66722318  0.66493073  0.50900332  1
  Cu  Cu90  1  0.16581130  0.83923680  0.75217267  1
  Cu  Cu91  1  0.33547564  0.33811993  0.00203525  1
  Cu  Cu92  1  0.49622193  0.83052701  0.74976666  1
  Cu  Cu93  1  0.16453274  0.16774165  0.74715384  1
  Cu  Cu94  1  0.16582248  0.50152709  0.24846214  1
  Cu  Cu95  1  0.83636477  0.82457384  0.75404782  1
  Cu  Cu96  1  0.82839154  0.49921165  0.75250250  1
  Cu  Cu97  1  0.50710746  0.50212291  0.25037683  1
  Cu  Cu98  1  0.33201944  0.33008034  0.50501157  1
  Cu  Cu99  1  0.83500264  0.16573907  0.75519695  1
  Cu  Cu100  1  0.32985463  0.67066955  -0.00280996  1
  Cu  Cu101  1  0.50455094  0.50040443  0.74703286  1
  Cu  Cu102  1  0.66582654  0.33913591  0.50913073  1
  Cu  Cu103  1  0.00334298  0.66609973  0.50433582  1
  Cu  Cu104  1  0.66972461  0.33691863  -0.00370267  1
  Cu  Cu105  1  0.66720001  -0.00104699  -0.00164666  1
  Cu  Cu106  1  0.66574710  0.65866369  -0.00400809  1
  Cu  Cu107  1  0.66049084  0.00301692  0.50471625  1
  Cu  Cu108  1  0.49710042  0.83291997  0.25851430  1
  Cu  Cu109  1  0.15933202  0.50634924  0.75207049  1
  Cu  Cu110  1  0.00902342  -0.00008783  0.49829838  1
  Cu  Cu111  1  0.16686454  0.15804901  0.24876772  1
  Cu  Cu112  1  0.33314592  -0.00759330  0.50209982  1
  Cu  Cu113  1  -0.00026026  0.33205444  -0.00176314  1
  Cu  Cu114  1  -0.00146357  0.33315108  0.49642371  1
  Se  Se115  1  0.09567074  0.10452049  0.05510967  1
  Se  Se116  1  0.08645053  0.08601465  0.55287689  1
  Se  Se117  1  0.08069420  0.40962438  0.06064556  1
  Se  Se118  1  0.07837185  0.41307211  0.55918250  1
  Se  Se119  1  0.07000402  0.73163831  0.04627460  1
  Se  Se120  1  0.08701986  0.75292524  0.55118998  1
  Se  Se121  1  0.41386830  0.07208238  0.06065408  1
  Se  Se122  1  0.41429041  0.07916936  0.55487255  1
  Se  Se123  1  0.42153133  0.42082041  0.05089049  1
  Se  Se124  1  0.41453521  0.42157960  0.54929511  1
  Se  Se125  1  0.40906120  0.74666296  0.06284030  1
  Se  Se126  1  0.41802220  0.75035819  0.55847496  1
  Se  Se127  1  0.74752266  0.07512369  0.05998854  1
  Se  Se128  1  0.74278026  0.08631285  0.56009047  1
  Se  Se129  1  0.75382224  0.41831085  0.04964584  1
  Se  Se130  1  0.75367171  0.42178059  0.55692641  1
  Se  Se131  1  0.74371493  0.74392547  0.05237651  1
  Se  Se132  1  0.74603324  0.74914712  0.56839045  1
  Se  Se133  1  0.25559147  0.24661707  0.04810913  1
  Se  Se134  1  0.24365562  0.24667343  0.55146277  1
  Se  Se135  1  0.25164768  0.59476087  0.06303576  1
  Se  Se136  1  0.25108683  0.58805420  0.55989111  1
  Se  Se137  1  0.25467265  0.90732879  0.04579510  1
  Se  Se138  1  0.24741761  0.90972719  0.55399376  1
  Se  Se139  1  0.59497088  0.25550443  0.06057395  1
  Se  Se140  1  0.58412938  0.24823651  0.55589744  1
  Se  Se141  1  0.57689120  0.57907797  0.04714913  1
  Se  Se142  1  0.58134378  0.58207670  0.56013645  1
  Se  Se143  1  0.58326657  0.91749572  0.05541061  1
  Se  Se144  1  0.58120525  0.91300459  0.55494463  1
  Se  Se145  1  0.92057229  0.25435028  0.06242278  1
  Se  Se146  1  0.91899062  0.25542890  0.56041354  1
  Se  Se147  1  0.91886081  0.57095515  0.04427911  1
  Se  Se148  1  0.91562916  0.58548264  0.55403862  1
  Se  Se149  1  0.90385100  0.92063478  0.05881120  1
  Se  Se150  1  0.92330976  0.92403418  0.55786205  1
  Se  Se151  1  0.08126082  0.24558838  0.44730267  1
  Se  Se152  1  0.08527951  0.25043517  0.94687220  1
  Se  Se153  1  0.07828380  0.58895729  0.43677262  1
  Se  Se154  1  0.07868149  0.58622039  0.93266797  1
  Se  Se155  1  0.08632296  0.91160597  0.44550077  1
  Se  Se156  1  0.08286071  0.92095954  0.95619753  1
  Se  Se157  1  0.41909366  0.24796709  0.45293375  1
  Se  Se158  1  0.41177708  0.25879522  0.93567705  1
  Se  Se159  1  0.42184884  0.58390670  0.45116226  1
  Se  Se160  1  0.41493892  0.58623435  0.94746842  1
  Se  Se161  1  0.41763007  0.90941483  0.44938211  1
  Se  Se162  1  0.41396978  0.92862652  0.93449468  1
  Se  Se163  1  0.73977083  0.26394187  0.43920986  1
  Se  Se164  1  0.74085310  0.24898072  0.93637094  1
  Se  Se165  1  0.75286815  0.58916832  0.45110699  1
  Se  Se166  1  0.75192180  0.57850720  0.94256360  1
  Se  Se167  1  0.74520351  0.92803202  0.44245072  1
  Se  Se168  1  0.75088177  0.91309175  0.94918718  1
  Se  Se169  1  0.24947289  0.07834023  0.44946305  1
  Se  Se170  1  0.25133020  0.08718722  0.94205481  1
  Se  Se171  1  0.25906256  0.40542422  0.43451263  1
  Se  Se172  1  0.25538731  0.41481182  0.93817468  1
  Se  Se173  1  0.24941768  0.74661598  0.44791033  1
  Se  Se174  1  0.24799581  0.75358644  0.94332087  1
  Se  Se175  1  0.57712991  0.08617155  0.45100887  1
  Se  Se176  1  0.58589841  0.07822825  0.93955235  1
  Se  Se177  1  0.58235330  0.42300643  0.45376865  1
  Se  Se178  1  0.58247147  0.41572906  0.94317342  1
  Se  Se179  1  0.58921983  0.75321796  0.45474203  1
  Se  Se180  1  0.58963698  0.74272288  0.93498388  1
  Se  Se181  1  0.92039201  0.07231334  0.43867007  1
  Se  Se182  1  0.93214186  0.07045771  0.94823579  1
  Se  Se183  1  0.91606260  0.42167349  0.44853916  1
  Se  Se184  1  0.91363362  0.41270985  0.94636852  1
  Se  Se185  1  0.92612732  0.74520317  0.43844605  1
  Se  Se186  1  0.89825780  0.76061047  0.94777592  1
  Se  Se187  1  0.24815900  0.24000119  0.30837784  1
  Se  Se188  1  0.24388674  0.25021469  0.80848651  1
  Se  Se189  1  0.25520542  0.57761947  0.30058181  1
  Se  Se190  1  0.24904046  0.58893425  0.79818256  1
  Se  Se191  1  0.24331607  0.90339307  0.30683954  1
  Se  Se192  1  0.24945620  0.92408264  0.80330894  1
  Se  Se193  1  0.57391802  0.24783698  0.31141426  1
  Se  Se194  1  0.57340778  0.23788473  0.79350701  1
  Se  Se195  1  0.58377945  0.58332177  0.31266239  1
  Se  Se196  1  0.58495568  0.58371061  0.80329166  1
  Se  Se197  1  0.58076250  0.91646705  0.31025174  1
  Se  Se198  1  0.58212101  0.91170488  0.80302425  1
  Se  Se199  1  0.92084489  0.25534450  0.30614075  1
  Se  Se200  1  0.92008796  0.24986165  0.80493415  1
  Se  Se201  1  0.91080642  0.58246490  0.30866519  1
  Se  Se202  1  0.91407170  0.58294605  0.80399750  1
  Se  Se203  1  0.91613892  0.91343244  0.29375957  1
  Se  Se204  1  0.91631267  0.90366151  0.81609517  1
  Se  Se205  1  0.08579841  0.07678683  0.30645110  1
  Se  Se206  1  0.08808404  0.08773462  0.81158575  1
  Se  Se207  1  0.08539627  0.41562253  0.30012483  1
  Se  Se208  1  0.07738441  0.41699754  0.79921255  1
  Se  Se209  1  0.09041155  0.75347036  0.30800831  1
  Se  Se210  1  0.07956289  0.75949871  0.80672841  1
  Se  Se211  1  0.42115711  0.08916985  0.31216759  1
  Se  Se212  1  0.42066189  0.09329064  0.79032141  1
  Se  Se213  1  0.42628461  0.41932240  0.30862006  1
  Se  Se214  1  0.41989848  0.42336105  0.80903810  1
  Se  Se215  1  0.41789265  0.74548268  0.30956556  1
  Se  Se216  1  0.41153684  0.74735304  0.80267259  1
  Se  Se217  1  0.75154447  0.09241322  0.30597014  1
  Se  Se218  1  0.75654707  0.07538782  0.80557486  1
  Se  Se219  1  0.75758431  0.43384840  0.30786748  1
  Se  Se220  1  0.74464711  0.41192729  0.80260256  1
  Se  Se221  1  0.75943161  0.76682844  0.30315093  1
  Se  Se222  1  0.74709994  0.74328712  0.80373913  1
  Se  Se223  1  0.24154763  0.07997845  0.18485027  1
  Se  Se224  1  0.24854553  0.08349426  0.69669825  1
  Se  Se225  1  0.24388027  0.42226614  0.18366891  1
  Se  Se226  1  0.23861869  0.42898099  0.68698436  1
  Se  Se227  1  0.26556231  0.73482372  0.20145227  1
  Se  Se228  1  0.24762617  0.75381990  0.69785786  1
  Se  Se229  1  0.57734945  0.09131152  0.20903990  1
  Se  Se230  1  0.60384341  0.05750108  0.69140206  1
  Se  Se231  1  0.58572335  0.42265757  0.19001531  1
  Se  Se232  1  0.58526318  0.41308235  0.69597187  1
  Se  Se233  1  0.57726023  0.76214661  0.18946016  1
  Se  Se234  1  0.58381151  0.74778363  0.69966295  1
  Se  Se235  1  0.92187766  0.08545267  0.20467268  1
  Se  Se236  1  0.90829139  0.08806125  0.68759392  1
  Se  Se237  1  0.92242982  0.41495018  0.20146595  1
  Se  Se238  1  0.91412241  0.41701667  0.69790038  1
  Se  Se239  1  0.90520880  0.75339578  0.18598368  1
  Se  Se240  1  0.92172000  0.74556968  0.69961173  1
  Se  Se241  1  0.08607269  0.24995710  0.20036085  1
  Se  Se242  1  0.07829307  0.25373570  0.70048198  1
  Se  Se243  1  0.09347561  0.58260890  0.18346947  1
  Se  Se244  1  0.07665606  0.58927813  0.69639627  1
  Se  Se245  1  0.09265600  0.89947622  0.17853309  1
  Se  Se246  1  0.08507952  0.91534412  0.68830384  1
  Se  Se247  1  0.42944051  0.23909966  0.19422712  1
  Se  Se248  1  0.41908605  0.24989667  0.68101074  1
  Se  Se249  1  0.42267110  0.58460223  0.19790089  1
  Se  Se250  1  0.41616029  0.58505603  0.69989759  1
  Se  Se251  1  0.42406294  0.91230428  0.19148287  1
  Se  Se252  1  0.41547017  0.91695708  0.69576426  1
  Se  Se253  1  0.75672020  0.24528402  0.18766767  1
  Se  Se254  1  0.74970341  0.24884989  0.70217033  1
  Se  Se255  1  0.76033092  0.58036769  0.18703194  1
  Se  Se256  1  0.74651013  0.58476987  0.69963516  1
  Se  Se257  1  0.72406425  0.94141425  0.19628922  1
  Se  Se258  1  0.75451566  0.91253786  0.70371649  1
