# generated using pymatgen
data_In86Cu29Se144
_symmetry_space_group_name_H-M   'P 1'
_cell_length_a   17.58383893
_cell_length_b   17.58894408
_cell_length_c   23.44900131
_cell_angle_alpha   89.97179706
_cell_angle_beta   90.03599983
_cell_angle_gamma   90.03081388
_symmetry_Int_Tables_number   1
_chemical_formula_structural   In86Cu29Se144
_chemical_formula_sum   'In86 Cu29 Se144'
_cell_volume   7252.33096109
_cell_formula_units_Z   1
loop_
 _symmetry_equiv_pos_site_id
 _symmetry_equiv_pos_as_xyz
  1  'x, y, z'
loop_
 _atom_site_type_symbol
 _atom_site_label
 _atom_site_symmetry_multiplicity
 _atom_site_fract_x
 _atom_site_fract_y
 _atom_site_fract_z
 _atom_site_occupancy
  In  In0  1  -0.01863279  0.17829697  0.14114304  1
  In  In1  1  -0.00945147  0.15821854  0.61680548  1
  In  In2  1  -0.02099419  0.49908531  0.12668911  1
  In  In3  1  -0.00391285  0.51382174  0.62494796  1
  In  In4  1  0.00393188  0.85585598  0.13413049  1
  In  In5  1  -0.00838406  0.83256869  0.61667080  1
  In  In6  1  0.34793886  0.16403982  0.12349576  1
  In  In7  1  0.33264841  0.17156514  0.62668989  1
  In  In8  1  0.33728415  0.48686014  0.12487990  1
  In  In9  1  0.33503001  0.48291072  0.62546168  1
  In  In10  1  0.33536536  0.82852015  0.12377222  1
  In  In11  1  0.33524042  0.84759990  0.62543289  1
  In  In12  1  0.66494691  0.16854659  0.12180069  1
  In  In13  1  0.68327568  0.15887365  0.64288923  1
  In  In14  1  0.66718365  0.50081216  0.12233957  1
  In  In15  1  0.66760641  0.50091160  0.62313851  1
  In  In16  1  0.65008865  0.84715098  0.14081238  1
  In  In17  1  0.66995736  0.83010341  0.63067007  1
  In  In18  1  0.16026589  0.00896383  0.38545322  1
  In  In19  1  0.17119584  -0.01498465  0.86699776  1
  In  In20  1  0.15436483  0.32235542  0.36694694  1
  In  In21  1  0.17046900  0.31971143  0.86953900  1
  In  In22  1  0.17400775  0.67486867  0.38239723  1
  In  In23  1  0.16227689  0.68490437  0.86617660  1
  In  In24  1  0.52552254  -0.00243687  0.36994965  1
  In  In25  1  0.50505635  0.00329319  0.87425746  1
  In  In26  1  0.50269808  0.35352242  0.36727006  1
  In  In27  1  0.50514197  0.33335247  0.87498100  1
  In  In28  1  0.50340429  0.65842116  0.37152498  1
  In  In29  1  0.51697131  0.65297119  0.88483104  1
  In  In30  1  0.82999593  -0.00482150  0.37496842  1
  In  In31  1  0.82694652  0.01910403  0.87547591  1
  In  In32  1  0.84698888  0.32159900  0.38301850  1
  In  In33  1  0.82573570  0.33659796  0.87806357  1
  In  In34  1  0.82191724  0.67949515  0.38413291  1
  In  In35  1  0.82013821  0.65625722  0.86373380  1
  In  In36  1  -0.00482714  0.16588178  0.37542678  1
  In  In37  1  -0.00761134  0.16160177  0.87680088  1
  In  In38  1  -0.00370801  0.48346167  0.37484061  1
  In  In39  1  -0.01911840  0.50093965  0.87538951  1
  In  In40  1  -0.00400740  0.84057661  0.38138285  1
  In  In41  1  0.01073658  0.82897718  0.86863112  1
  In  In42  1  0.32042606  0.16316655  0.37303796  1
  In  In43  1  0.34715514  0.17809608  0.86403216  1
  In  In44  1  0.34963113  0.49665697  0.37596564  1
  In  In45  1  0.35261098  0.50076624  0.87469701  1
  In  In46  1  0.33500645  0.82593118  0.38215211  1
  In  In47  1  0.33869933  0.84828226  0.87122748  1
  In  In48  1  0.68588658  0.15949985  0.37705167  1
  In  In49  1  0.66799472  0.16572986  0.87277824  1
  In  In50  1  0.66010423  0.50720514  0.38336477  1
  In  In51  1  0.66903448  0.49701448  0.87449752  1
  In  In52  1  0.68042754  0.84646265  0.35384128  1
  In  In53  1  0.66068796  0.82449970  0.87031720  1
  In  In54  1  0.14871626  -0.00482162  0.13058907  1
  In  In55  1  0.16983401  0.00585000  0.61601549  1
  In  In56  1  0.16635687  0.32625351  0.13357585  1
  In  In57  1  0.17949195  0.32873731  0.62723293  1
  In  In58  1  0.16726527  0.68043531  0.12829510  1
  In  In59  1  0.15114485  0.66838114  0.62679473  1
  In  In60  1  0.50443809  0.00831540  0.11788534  1
  In  In61  1  0.50230503  -0.00095021  0.63395910  1
  In  In62  1  0.49864877  0.32956879  0.12107941  1
  In  In63  1  0.49987978  0.33825050  0.62659176  1
  In  In64  1  0.51063027  0.67616264  0.11875649  1
  In  In65  1  0.51823805  0.66734834  0.62752084  1
  In  In66  1  0.82012344  0.01325481  0.13750511  1
  In  In67  1  0.82508187  0.00194017  0.61965096  1
  In  In68  1  0.82664971  0.33402109  0.12576134  1
  In  In69  1  0.81489457  0.32042730  0.61664605  1
  In  In70  1  0.82778852  0.65074613  0.12320829  1
  In  In71  1  0.83002139  0.66829423  0.62270242  1
  In  In72  1  0.33787163  0.66390754  0.25060930  1
  In  In73  1  0.50716038  0.17282412  0.49228931  1
  In  In74  1  0.16445037  0.49963265  0.50056290  1
  In  In75  1  0.32972305  0.00232278  0.25119744  1
  In  In76  1  0.82849173  0.82668791  -0.00176341  1
  In  In77  1  -0.00437782  0.66488145  0.25449690  1
  In  In78  1  0.33667348  0.66658113  0.75086585  1
  In  In79  1  0.67072282  0.32795126  0.25061156  1
  In  In80  1  -0.00328086  0.33637717  0.75153852  1
  In  In81  1  -0.00542528  -0.00501296  0.74096466  1
  In  In82  1  0.16906248  0.83592490  0.00051237  1
  In  In83  1  0.50646195  0.83217932  0.50039249  1
  In  In84  1  0.16779433  0.50119799  0.00300741  1
  In  In85  1  0.16926072  0.16245841  -0.00607940  1
  Cu  Cu86  1  0.82599874  0.49422601  0.25139253  1
  Cu  Cu87  1  0.66482641  0.00271606  0.00268547  1
  Cu  Cu88  1  0.33409164  0.66527242  0.50077604  1
  Cu  Cu89  1  0.50267782  0.16981243  0.24497423  1
  Cu  Cu90  1  0.66658739  0.66603177  0.50112999  1
  Cu  Cu91  1  0.83463625  0.82763018  0.25354366  1
  Cu  Cu92  1  0.50180314  0.83436741  0.75262272  1
  Cu  Cu93  1  -0.00334492  0.00061567  0.49857443  1
  Cu  Cu94  1  0.66814391  0.66400646  -0.00105995  1
  Cu  Cu95  1  0.66592692  0.33358244  -0.00120326  1
  Cu  Cu96  1  -0.00601643  0.67116064  0.50181482  1
  Cu  Cu97  1  0.66653138  0.33621801  0.49980786  1
  Cu  Cu98  1  -0.01245109  0.33541164  0.00559680  1
  Cu  Cu99  1  0.33585766  0.00398942  0.49917668  1
  Cu  Cu100  1  0.49992680  0.16849794  0.75103518  1
  Cu  Cu101  1  0.16819932  0.49933225  0.74501734  1
  Cu  Cu102  1  0.16291093  0.16790219  0.25581319  1
  Cu  Cu103  1  0.34479354  0.66810299  0.00093491  1
  Cu  Cu104  1  0.83067934  0.50319659  0.74669334  1
  Cu  Cu105  1  0.83638388  0.83387340  0.74413616  1
  Cu  Cu106  1  -0.00075141  0.33037860  0.49934396  1
  Cu  Cu107  1  0.34078268  0.00274740  -0.00437326  1
  Cu  Cu108  1  0.34119725  0.33331274  -0.00356064  1
  Cu  Cu109  1  0.33175224  0.33116831  0.50086728  1
  Cu  Cu110  1  0.16618168  0.49847902  0.24902219  1
  Cu  Cu111  1  -0.00349155  0.66349498  -0.00189417  1
  Cu  Cu112  1  -0.01030305  0.00835186  0.00340319  1
  Cu  Cu113  1  0.16985603  0.16020865  0.74443118  1
  Cu  Cu114  1  0.50684941  0.49538862  0.75327848  1
  Se  Se115  1  0.07552403  0.08685709  0.06014877  1
  Se  Se116  1  0.08200452  0.08562379  0.54973695  1
  Se  Se117  1  0.07624467  0.41066582  0.06254227  1
  Se  Se118  1  0.07792577  0.40867286  0.56350372  1
  Se  Se119  1  0.06871331  0.74955779  0.05843167  1
  Se  Se120  1  0.08341576  0.75136950  0.55133051  1
  Se  Se121  1  0.42192969  0.08951003  0.04717717  1
  Se  Se122  1  0.42002376  0.08182054  0.55764608  1
  Se  Se123  1  0.42113555  0.41776746  0.05060764  1
  Se  Se124  1  0.41808063  0.41435395  0.55070131  1
  Se  Se125  1  0.42134107  0.75780375  0.05253110  1
  Se  Se126  1  0.41465572  0.74398613  0.56349475  1
  Se  Se127  1  0.75129320  0.08380140  0.05531573  1
  Se  Se128  1  0.75114785  0.09930058  0.55737842  1
  Se  Se129  1  0.74916433  0.41639609  0.05435355  1
  Se  Se130  1  0.75083811  0.42152382  0.55155029  1
  Se  Se131  1  0.73973974  0.74592788  0.06442282  1
  Se  Se132  1  0.74624179  0.75277901  0.55491893  1
  Se  Se133  1  0.25554744  0.25589529  0.05555419  1
  Se  Se134  1  0.24923499  0.24653472  0.55210916  1
  Se  Se135  1  0.25715054  0.59617879  0.06166220  1
  Se  Se136  1  0.25503890  0.58702267  0.56374208  1
  Se  Se137  1  0.25554370  0.93216070  0.05959978  1
  Se  Se138  1  0.25335813  0.91742927  0.54995498  1
  Se  Se139  1  0.58250523  0.24932999  0.05243154  1
  Se  Se140  1  0.59142220  0.25282449  0.56200889  1
  Se  Se141  1  0.58318384  0.58124206  0.05247798  1
  Se  Se142  1  0.58157600  0.58178403  0.55208897  1
  Se  Se143  1  0.58535358  0.91500577  0.05509799  1
  Se  Se144  1  0.59070796  0.92481278  0.56122404  1
  Se  Se145  1  0.91070371  0.24712355  0.05892186  1
  Se  Se146  1  0.91275299  0.24923608  0.55239419  1
  Se  Se147  1  0.91232044  0.57984144  0.04893263  1
  Se  Se148  1  0.91204652  0.58416171  0.55171796  1
  Se  Se149  1  0.91348587  0.92093506  0.05925080  1
  Se  Se150  1  0.91020081  0.92025043  0.55219055  1
  Se  Se151  1  0.08220466  0.24809859  0.44523597  1
  Se  Se152  1  0.07161117  0.26046499  0.94412552  1
  Se  Se153  1  0.07246082  0.58943066  0.43967018  1
  Se  Se154  1  0.08277980  0.59117660  0.93766088  1
  Se  Se155  1  0.08469105  0.91553680  0.45103192  1
  Se  Se156  1  0.07199823  0.92839475  0.94431387  1
  Se  Se157  1  0.41079730  0.25842171  0.43424942  1
  Se  Se158  1  0.42120807  0.24744795  0.94359095  1
  Se  Se159  1  0.41871299  0.58642802  0.44682393  1
  Se  Se160  1  0.42322387  0.57821968  0.95131614  1
  Se  Se161  1  0.41961835  0.92893505  0.43894757  1
  Se  Se162  1  0.42315353  0.91696303  0.94494256  1
  Se  Se163  1  0.75054265  0.25071463  0.44923735  1
  Se  Se164  1  0.74824280  0.24863090  0.94560806  1
  Se  Se165  1  0.75243692  0.58222893  0.44969046  1
  Se  Se166  1  0.75189246  0.58262787  0.94434626  1
  Se  Se167  1  0.74521636  0.90715535  0.43919260  1
  Se  Se168  1  0.74337278  0.92288557  0.93983987  1
  Se  Se169  1  0.24931084  0.08994759  0.45201624  1
  Se  Se170  1  0.25840399  0.07540579  0.93216256  1
  Se  Se171  1  0.25057714  0.41070392  0.43777712  1
  Se  Se172  1  0.25379499  0.40984184  0.93895839  1
  Se  Se173  1  0.25024442  0.75441161  0.45583578  1
  Se  Se174  1  0.26057656  0.74433224  0.94082801  1
  Se  Se175  1  0.60103918  0.07239968  0.44834394  1
  Se  Se176  1  0.58483555  0.08589898  0.94518931  1
  Se  Se177  1  0.57863755  0.41702835  0.44902019  1
  Se  Se178  1  0.58410341  0.41849253  0.94487474  1
  Se  Se179  1  0.59240479  0.74652356  0.43622117  1
  Se  Se180  1  0.58551236  0.75275849  0.94942733  1
  Se  Se181  1  0.91295383  0.08144462  0.44337554  1
  Se  Se182  1  0.90830402  0.09211381  0.95088354  1
  Se  Se183  1  0.91495112  0.41826198  0.45241168  1
  Se  Se184  1  0.90949866  0.41862428  0.94865984  1
  Se  Se185  1  0.91250268  0.75693215  0.44907673  1
  Se  Se186  1  0.92031870  0.74299274  0.93448584  1
  Se  Se187  1  0.25270167  0.25232741  0.30115408  1
  Se  Se188  1  0.25140165  0.24799927  0.79602442  1
  Se  Se189  1  0.24209112  0.57691420  0.31207047  1
  Se  Se190  1  0.24543803  0.57599592  0.81252775  1
  Se  Se191  1  0.24793825  0.91598918  0.31872318  1
  Se  Se192  1  0.24591820  0.90297499  0.79731079  1
  Se  Se193  1  0.57941854  0.24051285  0.31454246  1
  Se  Se194  1  0.58451737  0.25090783  0.80449196  1
  Se  Se195  1  0.57586223  0.56749252  0.30519002  1
  Se  Se196  1  0.58833154  0.58299154  0.80406496  1
  Se  Se197  1  0.57371609  0.90726948  0.29337517  1
  Se  Se198  1  0.58640948  0.91829198  0.80494535  1
  Se  Se199  1  0.92011537  0.25261504  0.30459626  1
  Se  Se200  1  0.90796079  0.24331146  0.80769725  1
  Se  Se201  1  0.90536004  0.57590152  0.31383419  1
  Se  Se202  1  0.91816542  0.58507200  0.79837048  1
  Se  Se203  1  0.91682134  0.91264710  0.30563287  1
  Se  Se204  1  0.90810629  0.91309610  0.81239568  1
  Se  Se205  1  0.08328859  0.08201992  0.30860706  1
  Se  Se206  1  0.08701371  0.08642068  0.80687675  1
  Se  Se207  1  0.07992445  0.41562659  0.30001303  1
  Se  Se208  1  0.08934830  0.42539432  0.81328560  1
  Se  Se209  1  0.08753941  0.75355706  0.31218368  1
  Se  Se210  1  0.07997515  0.75213865  0.79220849  1
  Se  Se211  1  0.42660463  0.08914496  0.31053816  1
  Se  Se212  1  0.41778533  0.07928690  0.80193906  1
  Se  Se213  1  0.41060623  0.41717285  0.29688060  1
  Se  Se214  1  0.41906206  0.41275543  0.80272790  1
  Se  Se215  1  0.42487351  0.75969807  0.30800854  1
  Se  Se216  1  0.42853882  0.74857560  0.81498520  1
  Se  Se217  1  0.74864270  0.07499731  0.30240327  1
  Se  Se218  1  0.74350378  0.08119765  0.80017036  1
  Se  Se219  1  0.75335617  0.41553432  0.31804655  1
  Se  Se220  1  0.75281684  0.41805628  0.80319346  1
  Se  Se221  1  0.74989053  0.73771567  0.29804378  1
  Se  Se222  1  0.75051782  0.75319137  0.79950358  1
  Se  Se223  1  0.24029598  0.09375838  0.18794472  1
  Se  Se224  1  0.25306728  0.07876970  0.69068350  1
  Se  Se225  1  0.24980519  0.41608126  0.19572710  1
  Se  Se226  1  0.25308274  0.41185484  0.70077049  1
  Se  Se227  1  0.24349007  0.76431353  0.20067583  1
  Se  Se228  1  0.24876467  0.75244733  0.68794537  1
  Se  Se229  1  0.58380412  0.08529580  0.19214402  1
  Se  Se230  1  0.58406425  0.08242642  0.70151898  1
  Se  Se231  1  0.57990256  0.41686341  0.19207417  1
  Se  Se232  1  0.58790935  0.41642997  0.69424273  1
  Se  Se233  1  0.58764302  0.73981361  0.19880186  1
  Se  Se234  1  0.58686912  0.74996512  0.70199733  1
  Se  Se235  1  0.94508775  0.05144615  0.18805376  1
  Se  Se236  1  0.90367951  0.09397590  0.69442507  1
  Se  Se237  1  0.91051403  0.41220026  0.19883605  1
  Se  Se238  1  0.90918258  0.42051056  0.68631367  1
  Se  Se239  1  0.91204041  0.75322172  0.18621173  1
  Se  Se240  1  0.91762922  0.75024121  0.69079061  1
  Se  Se241  1  0.07893726  0.25239471  0.20273013  1
  Se  Se242  1  0.08338253  0.24151000  0.68951513  1
  Se  Se243  1  0.08683665  0.57785273  0.18798722  1
  Se  Se244  1  0.08038434  0.58313127  0.69985709  1
  Se  Se245  1  0.09806756  0.90652537  0.20832512  1
  Se  Se246  1  0.08922945  0.91137536  0.68360946  1
  Se  Se247  1  0.41618919  0.25226299  0.19536352  1
  Se  Se248  1  0.41848074  0.25154542  0.69414733  1
  Se  Se249  1  0.42293582  0.58088961  0.18479726  1
  Se  Se250  1  0.42487501  0.57413204  0.69068692  1
  Se  Se251  1  0.41958848  0.91768724  0.18840995  1
  Se  Se252  1  0.41682622  0.91685943  0.70109476  1
  Se  Se253  1  0.76113438  0.23391231  0.19670426  1
  Se  Se254  1  0.74376272  0.26641959  0.70290215  1
  Se  Se255  1  0.74621897  0.57900002  0.19775910  1
  Se  Se256  1  0.74709573  0.58699741  0.69312690  1
  Se  Se257  1  0.75191009  0.91532521  0.20209503  1
  Se  Se258  1  0.75238347  0.91980501  0.69476730  1
