# generated using pymatgen
data_In86Cu29Se144
_symmetry_space_group_name_H-M   'P 1'
_cell_length_a   17.58064167
_cell_length_b   17.57670017
_cell_length_c   23.43991282
_cell_angle_alpha   89.98295469
_cell_angle_beta   89.97205345
_cell_angle_gamma   89.97636427
_symmetry_Int_Tables_number   1
_chemical_formula_structural   In86Cu29Se144
_chemical_formula_sum   'In86 Cu29 Se144'
_cell_volume   7243.15786728
_cell_formula_units_Z   1
loop_
 _symmetry_equiv_pos_site_id
 _symmetry_equiv_pos_as_xyz
  1  'x, y, z'
loop_
 _atom_site_type_symbol
 _atom_site_label
 _atom_site_symmetry_multiplicity
 _atom_site_fract_x
 _atom_site_fract_y
 _atom_site_fract_z
 _atom_site_occupancy
  In  In0  1  -0.00672009  0.15094485  0.12586851  1
  In  In1  1  -0.00180387  0.16300239  0.62829826  1
  In  In2  1  -0.00398655  0.51264120  0.11826012  1
  In  In3  1  -0.00961458  0.48804916  0.61827476  1
  In  In4  1  0.00424477  0.83619398  0.12705690  1
  In  In5  1  0.01158050  0.84610750  0.62171719  1
  In  In6  1  0.34768098  0.16670765  0.12674633  1
  In  In7  1  0.32810610  0.18303065  0.62061184  1
  In  In8  1  0.34047027  0.49151892  0.13026231  1
  In  In9  1  0.32976978  0.50254695  0.62755559  1
  In  In10  1  0.32834276  0.82312473  0.12094825  1
  In  In11  1  0.32164596  0.81819644  0.61873752  1
  In  In12  1  0.66368737  0.16457549  0.12669814  1
  In  In13  1  0.68646845  0.16860250  0.62772367  1
  In  In14  1  0.67095155  0.50428467  0.11508131  1
  In  In15  1  0.67395327  0.49107422  0.63483444  1
  In  In16  1  0.66976497  0.84926352  0.12701520  1
  In  In17  1  0.66282447  0.82321879  0.61933498  1
  In  In18  1  0.15380430  0.01301533  0.38433529  1
  In  In19  1  0.15342951  -0.00831783  0.87623678  1
  In  In20  1  0.17660335  0.32880453  0.38823730  1
  In  In21  1  0.16638097  0.33377601  0.86019916  1
  In  In22  1  0.17266851  0.65996577  0.38302434  1
  In  In23  1  0.17643652  0.66752141  0.87164234  1
  In  In24  1  0.49810950  -0.01544422  0.37444034  1
  In  In25  1  0.50281036  -0.00016414  0.88871317  1
  In  In26  1  0.49495520  0.34436434  0.37517001  1
  In  In27  1  0.49985083  0.33586202  0.87562071  1
  In  In28  1  0.49703315  0.68236848  0.37328917  1
  In  In29  1  0.49836618  0.66502887  0.87728484  1
  In  In30  1  0.83474385  -0.00269672  0.36830190  1
  In  In31  1  0.84107805  0.00008289  0.86921430  1
  In  In32  1  0.83862133  0.32686736  0.38893729  1
  In  In33  1  0.84437850  0.34050275  0.85963631  1
  In  In34  1  0.83692997  0.66531068  0.38354579  1
  In  In35  1  0.81409997  0.67247850  0.87007759  1
  In  In36  1  -0.00133327  0.16192018  0.37620497  1
  In  In37  1  -0.00577477  0.16376707  0.85934609  1
  In  In38  1  0.00090670  0.49960646  0.38850511  1
  In  In39  1  0.00610152  0.49313460  0.87141599  1
  In  In40  1  -0.01000751  0.84808517  0.38480322  1
  In  In41  1  0.00080593  0.84379309  0.87371830  1
  In  In42  1  0.31925461  0.17018375  0.37880099  1
  In  In43  1  0.33502330  0.17930336  0.87381623  1
  In  In44  1  0.32167696  0.49311508  0.36949434  1
  In  In45  1  0.33782484  0.50908468  0.86785708  1
  In  In46  1  0.33962850  0.82849085  0.37959231  1
  In  In47  1  0.33827322  0.82813178  0.88093406  1
  In  In48  1  0.68577933  0.16302872  0.37777969  1
  In  In49  1  0.65678864  0.16460598  0.87408867  1
  In  In50  1  0.67056613  0.50568045  0.37838518  1
  In  In51  1  0.66386389  0.50052122  0.87452980  1
  In  In52  1  0.66659879  0.83971754  0.37552369  1
  In  In53  1  0.66315111  0.82385245  0.87178759  1
  In  In54  1  0.16790520  -0.01340822  0.12519081  1
  In  In55  1  0.15076478  -0.01261344  0.61876635  1
  In  In56  1  0.16801508  0.34779073  0.12658917  1
  In  In57  1  0.16896126  0.32975085  0.61908230  1
  In  In58  1  0.16599421  0.68424813  0.12295557  1
  In  In59  1  0.17966238  0.67801058  0.62348698  1
  In  In60  1  0.50758127  0.00801709  0.11866102  1
  In  In61  1  0.51368773  -0.00929405  0.62218465  1
  In  In62  1  0.49949853  0.32676463  0.11904825  1
  In  In63  1  0.49264468  0.34163161  0.63452102  1
  In  In64  1  0.49322085  0.65528316  0.11754192  1
  In  In65  1  0.49152314  0.67126329  0.63166332  1
  In  In66  1  0.83923973  -0.01193604  0.14986543  1
  In  In67  1  0.85131477  0.01269188  0.61561051  1
  In  In68  1  0.82546912  0.33327155  0.12264750  1
  In  In69  1  0.83381565  0.32881485  0.63057457  1
  In  In70  1  0.84642721  0.66159051  0.12060809  1
  In  In71  1  0.82662723  0.65823284  0.62020936  1
  In  In72  1  0.17115652  0.16430310  -0.00283931  1
  In  In73  1  0.33073674  -0.00074060  0.74976197  1
  In  In74  1  0.82948029  0.16414264  -0.00459091  1
  In  In75  1  0.00631740  0.32997730  0.26098533  1
  In  In76  1  0.33080019  0.00113004  0.25256325  1
  In  In77  1  0.83262534  0.83147824  0.00455399  1
  In  In78  1  0.67418749  0.00256623  0.74912640  1
  In  In79  1  0.66438518  0.32784177  0.24528450  1
  In  In80  1  0.00189890  0.66737337  0.74525700  1
  In  In81  1  0.00175116  0.67397017  0.24721921  1
  In  In82  1  0.66566917  0.67116131  0.25484289  1
  In  In83  1  0.49776159  0.50403251  0.50977620  1
  In  In84  1  0.16776708  0.50734842  -0.01035536  1
  In  In85  1  0.49985336  0.16350819  0.50022800  1
  Cu  Cu86  1  -0.00474847  0.33268610  -0.01122483  1
  Cu  Cu87  1  0.34147221  0.33502582  -0.00125395  1
  Cu  Cu88  1  0.66733433  0.33876892  -0.00279570  1
  Cu  Cu89  1  0.83430874  0.83769030  0.74683112  1
  Cu  Cu90  1  0.49898628  0.17495306  0.75146110  1
  Cu  Cu91  1  0.66891260  0.00064377  0.00297451  1
  Cu  Cu92  1  0.48809200  0.50100700  0.24597188  1
  Cu  Cu93  1  0.65855741  0.66644506  -0.00476408  1
  Cu  Cu94  1  -0.00371913  0.00162462  0.49902526  1
  Cu  Cu95  1  0.82854265  0.50208837  0.74597539  1
  Cu  Cu96  1  0.17800236  0.50440895  0.25370394  1
  Cu  Cu97  1  0.16440715  0.17126773  0.25659976  1
  Cu  Cu98  1  0.33465501  0.66524021  -0.00213371  1
  Cu  Cu99  1  0.50084353  0.50224877  0.75497142  1
  Cu  Cu100  1  -0.00184498  0.33029510  0.50559297  1
  Cu  Cu101  1  0.33707764  0.66787183  0.50170807  1
  Cu  Cu102  1  0.67181197  0.33216488  0.51027291  1
  Cu  Cu103  1  0.33107813  -0.00310302  0.49891688  1
  Cu  Cu104  1  0.49500433  0.82747861  0.75115791  1
  Cu  Cu105  1  0.49584190  0.83188420  0.24800525  1
  Cu  Cu106  1  0.16632081  0.16640110  0.74426716  1
  Cu  Cu107  1  0.83595303  0.49345246  0.25095875  1
  Cu  Cu108  1  0.49966618  0.17001804  0.24756918  1
  Cu  Cu109  1  0.33386789  -0.00620087  0.00429927  1
  Cu  Cu110  1  0.16343768  0.49518677  0.74366520  1
  Cu  Cu111  1  0.00467451  0.66891600  0.50708586  1
  Cu  Cu112  1  0.16173612  0.83747511  0.25339590  1
  Cu  Cu113  1  0.67511379  -0.00825928  0.50023965  1
  Cu  Cu114  1  0.67217292  0.66744000  0.49875621  1
  Se  Se115  1  0.08112889  0.07369330  0.05517343  1
  Se  Se116  1  0.07978404  0.08403199  0.55383808  1
  Se  Se117  1  0.07646422  0.41217027  0.05044025  1
  Se  Se118  1  0.08503513  0.41660138  0.55182579  1
  Se  Se119  1  0.05777744  0.73269324  0.06004171  1
  Se  Se120  1  0.08944547  0.75413572  0.55603599  1
  Se  Se121  1  0.41611362  0.08463199  0.05148446  1
  Se  Se122  1  0.41142726  0.07362659  0.56291404  1
  Se  Se123  1  0.42040770  0.41925869  0.05440168  1
  Se  Se124  1  0.40522467  0.40591928  0.55616572  1
  Se  Se125  1  0.41791211  0.74900358  0.05205328  1
  Se  Se126  1  0.42286874  0.75097875  0.55326960  1
  Se  Se127  1  0.75408600  0.07227631  0.06470072  1
  Se  Se128  1  0.75112871  0.08294573  0.55185462  1
  Se  Se129  1  0.75512019  0.41770592  0.05023467  1
  Se  Se130  1  0.75504984  0.41835973  0.56012506  1
  Se  Se131  1  0.73787007  0.74034392  0.06247558  1
  Se  Se132  1  0.75579216  0.75161937  0.55100744  1
  Se  Se133  1  0.25644124  0.25908201  0.05923520  1
  Se  Se134  1  0.24323945  0.24531456  0.54564886  1
  Se  Se135  1  0.25349894  0.58663219  0.06099547  1
  Se  Se136  1  0.25341074  0.58549688  0.55505274  1
  Se  Se137  1  0.24761362  0.90998327  0.05284204  1
  Se  Se138  1  0.24862114  0.91437783  0.55451353  1
  Se  Se139  1  0.59235097  0.25055266  0.05413141  1
  Se  Se140  1  0.58343390  0.25431850  0.56513913  1
  Se  Se141  1  0.57969195  0.57805634  0.04852648  1
  Se  Se142  1  0.59375975  0.59097820  0.56453665  1
  Se  Se143  1  0.58317085  0.91484551  0.05217195  1
  Se  Se144  1  0.58532271  0.90966660  0.54799582  1
  Se  Se145  1  0.92489229  0.25374417  0.05613896  1
  Se  Se146  1  0.91461445  0.24742951  0.55898961  1
  Se  Se147  1  0.90652661  0.57412081  0.04604503  1
  Se  Se148  1  0.91663603  0.58268967  0.55267887  1
  Se  Se149  1  0.91679677  0.92824777  0.06211442  1
  Se  Se150  1  0.91713479  0.91201376  0.55102256  1
  Se  Se151  1  0.07663965  0.24997056  0.44418487  1
  Se  Se152  1  0.08065183  0.25256045  0.93461468  1
  Se  Se153  1  0.08626856  0.58349048  0.45270539  1
  Se  Se154  1  0.07186690  0.59713878  0.93708077  1
  Se  Se155  1  0.08673031  0.91647901  0.45170519  1
  Se  Se156  1  0.08272309  0.91030340  0.95035600  1
  Se  Se157  1  0.41123034  0.25773040  0.44355926  1
  Se  Se158  1  0.42178565  0.24741893  0.94683628  1
  Se  Se159  1  0.41545414  0.58763512  0.43900048  1
  Se  Se160  1  0.41588867  0.57873140  0.94592958  1
  Se  Se161  1  0.41825288  0.91384667  0.45004202  1
  Se  Se162  1  0.41911266  0.91179582  0.95072163  1
  Se  Se163  1  0.75082456  0.24631709  0.45508147  1
  Se  Se164  1  0.74703891  0.25955957  0.93526024  1
  Se  Se165  1  0.75423595  0.57851886  0.44978481  1
  Se  Se166  1  0.74638482  0.58622701  0.94389958  1
  Se  Se167  1  0.75819279  0.91278654  0.44303606  1
  Se  Se168  1  0.74543397  0.92286848  0.93829133  1
  Se  Se169  1  0.24834279  0.08550850  0.45129905  1
  Se  Se170  1  0.26101704  0.07336568  0.93692387  1
  Se  Se171  1  0.24620724  0.42908203  0.44938895  1
  Se  Se172  1  0.25512995  0.40725774  0.93712654  1
  Se  Se173  1  0.25215228  0.75119402  0.44828097  1
  Se  Se174  1  0.24783728  0.74800382  0.94789640  1
  Se  Se175  1  0.59019469  0.07239924  0.44098913  1
  Se  Se176  1  0.58632966  0.08793596  0.95259960  1
  Se  Se177  1  0.59186023  0.41077760  0.44818199  1
  Se  Se178  1  0.58057160  0.41973219  0.94534372  1
  Se  Se179  1  0.58883803  0.74851305  0.44315088  1
  Se  Se180  1  0.57821028  0.75524198  0.94552062  1
  Se  Se181  1  0.91185706  0.08127111  0.44265404  1
  Se  Se182  1  0.92891901  0.07788348  0.94116703  1
  Se  Se183  1  0.91417866  0.41779293  0.45394800  1
  Se  Se184  1  0.91357477  0.41891486  0.93886998  1
  Se  Se185  1  0.92142269  0.74805841  0.44928246  1
  Se  Se186  1  0.91384044  0.74719541  0.93506504  1
  Se  Se187  1  0.24797300  0.25611547  0.30591476  1
  Se  Se188  1  0.25295755  0.24728557  0.79758811  1
  Se  Se189  1  0.25574241  0.59465492  0.30450894  1
  Se  Se190  1  0.24417517  0.57891966  0.79929022  1
  Se  Se191  1  0.24185544  0.91611856  0.31606325  1
  Se  Se192  1  0.24659524  0.90857987  0.81115641  1
  Se  Se193  1  0.57779390  0.24433347  0.31445803  1
  Se  Se194  1  0.58432571  0.25408141  0.80526497  1
  Se  Se195  1  0.57195685  0.57431320  0.30858563  1
  Se  Se196  1  0.58383683  0.58808558  0.80622732  1
  Se  Se197  1  0.58090411  0.91226930  0.30103279  1
  Se  Se198  1  0.57378991  0.91671405  0.80669590  1
  Se  Se199  1  0.90329726  0.24375403  0.30847859  1
  Se  Se200  1  0.92027764  0.25220109  0.79338179  1
  Se  Se201  1  0.91673220  0.57562457  0.30890626  1
  Se  Se202  1  0.90928390  0.58187585  0.80791296  1
  Se  Se203  1  0.92519912  0.91743227  0.30260197  1
  Se  Se204  1  0.91964699  0.91816966  0.79878463  1
  Se  Se205  1  0.08139368  0.08380845  0.30360783  1
  Se  Se206  1  0.09054929  0.08152332  0.80227714  1
  Se  Se207  1  0.09355875  0.42813346  0.31407324  1
  Se  Se208  1  0.07696570  0.41353046  0.79494474  1
  Se  Se209  1  0.08699210  0.75485243  0.31604668  1
  Se  Se210  1  0.08895706  0.75633335  0.80640289  1
  Se  Se211  1  0.42174417  0.09173800  0.31301063  1
  Se  Se212  1  0.42697392  0.08527338  0.81054934  1
  Se  Se213  1  0.41161736  0.41488064  0.30177919  1
  Se  Se214  1  0.41558954  0.41545179  0.80466769  1
  Se  Se215  1  0.41010201  0.75106096  0.29987548  1
  Se  Se216  1  0.41347919  0.74643395  0.80715702  1
  Se  Se217  1  0.73900160  0.07263163  0.30330694  1
  Se  Se218  1  0.76052640  0.09708531  0.80730587  1
  Se  Se219  1  0.75459381  0.41556228  0.31077710  1
  Se  Se220  1  0.74596395  0.42044837  0.80224661  1
  Se  Se221  1  0.76276750  0.75458697  0.31053022  1
  Se  Se222  1  0.74483811  0.75598034  0.79491913  1
  Se  Se223  1  0.24239332  0.09286853  0.19045796  1
  Se  Se224  1  0.24554875  0.08531443  0.68393904  1
  Se  Se225  1  0.25350034  0.41401571  0.20036453  1
  Se  Se226  1  0.24928632  0.41203958  0.69203062  1
  Se  Se227  1  0.24588521  0.75598771  0.19898865  1
  Se  Se228  1  0.25968391  0.74500463  0.70091798  1
  Se  Se229  1  0.58117580  0.08358780  0.19662520  1
  Se  Se230  1  0.57747701  0.09282306  0.69115590  1
  Se  Se231  1  0.57956096  0.42727295  0.18906398  1
  Se  Se232  1  0.58199800  0.41667169  0.70146967  1
  Se  Se233  1  0.57678560  0.75203587  0.18709034  1
  Se  Se234  1  0.58343731  0.75113307  0.69640044  1
  Se  Se235  1  0.91880999  0.08664175  0.20499380  1
  Se  Se236  1  0.91709311  0.07984527  0.69797880  1
  Se  Se237  1  0.91952065  0.41781266  0.19089693  1
  Se  Se238  1  0.91591539  0.41800735  0.69773024  1
  Se  Se239  1  0.90240851  0.76064971  0.19365406  1
  Se  Se240  1  0.91164214  0.75628971  0.68471841  1
  Se  Se241  1  0.08798338  0.24523168  0.18739050  1
  Se  Se242  1  0.08499836  0.25128693  0.69104248  1
  Se  Se243  1  0.09313356  0.57667887  0.19131818  1
  Se  Se244  1  0.08676583  0.57695330  0.68199893  1
  Se  Se245  1  0.08050294  0.92033862  0.19933763  1
  Se  Se246  1  0.08471118  0.91660498  0.70081942  1
  Se  Se247  1  0.41813947  0.25650979  0.19693277  1
  Se  Se248  1  0.41059654  0.25071465  0.69750614  1
  Se  Se249  1  0.40968077  0.59079661  0.19533949  1
  Se  Se250  1  0.41569704  0.58035100  0.69742911  1
  Se  Se251  1  0.41835784  0.91585874  0.18733210  1
  Se  Se252  1  0.42149664  0.91035140  0.68852140  1
  Se  Se253  1  0.76315627  0.23717998  0.19480421  1
  Se  Se254  1  0.74077685  0.26062972  0.70098525  1
  Se  Se255  1  0.75658940  0.57773504  0.19390584  1
  Se  Se256  1  0.74575253  0.59082092  0.69836817  1
  Se  Se257  1  0.73891006  0.91635486  0.20819753  1
  Se  Se258  1  0.75525052  0.91495090  0.68259682  1
