# generated using pymatgen
data_In86Cu29Se144
_symmetry_space_group_name_H-M   'P 1'
_cell_length_a   17.57905522
_cell_length_b   17.57831363
_cell_length_c   23.43474524
_cell_angle_alpha   89.98989912
_cell_angle_beta   90.00395555
_cell_angle_gamma   90.01001917
_symmetry_Int_Tables_number   1
_chemical_formula_structural   In86Cu29Se144
_chemical_formula_sum   'In86 Cu29 Se144'
_cell_volume   7241.57380723
_cell_formula_units_Z   1
loop_
 _symmetry_equiv_pos_site_id
 _symmetry_equiv_pos_as_xyz
  1  'x, y, z'
loop_
 _atom_site_type_symbol
 _atom_site_label
 _atom_site_symmetry_multiplicity
 _atom_site_fract_x
 _atom_site_fract_y
 _atom_site_fract_z
 _atom_site_occupancy
  In  In0  1  0.01060956  0.14651640  0.12775603  1
  In  In1  1  -0.00828064  0.17153766  0.62800619  1
  In  In2  1  -0.00369046  0.49900890  0.11606352  1
  In  In3  1  0.00958764  0.50946496  0.61811399  1
  In  In4  1  0.01368612  0.84482638  0.12125011  1
  In  In5  1  0.00860221  0.82092458  0.63653206  1
  In  In6  1  0.31632510  0.17163997  0.14825240  1
  In  In7  1  0.33495427  0.15435038  0.62059728  1
  In  In8  1  0.32920676  0.50896477  0.13393447  1
  In  In9  1  0.33709980  0.50529718  0.61137931  1
  In  In10  1  0.33174674  0.82692372  0.13126674  1
  In  In11  1  0.33350434  0.83431921  0.61102474  1
  In  In12  1  0.65356691  0.17165029  0.14348701  1
  In  In13  1  0.68230678  0.15980584  0.62094782  1
  In  In14  1  0.66835945  0.49586178  0.13185337  1
  In  In15  1  0.66767384  0.50211325  0.62064523  1
  In  In16  1  0.65635540  0.83948957  0.13440986  1
  In  In17  1  0.65904777  0.82753756  0.61855440  1
  In  In18  1  0.15982570  -0.00329511  0.35753454  1
  In  In19  1  0.14089059  0.00502740  0.90041583  1
  In  In20  1  0.17945909  0.33275859  0.36863803  1
  In  In21  1  0.16885123  0.33033015  0.88617447  1
  In  In22  1  0.16847164  0.66664800  0.37421004  1
  In  In23  1  0.15604949  0.67699986  0.88530126  1
  In  In24  1  0.49307944  -0.01279959  0.36208567  1
  In  In25  1  0.48893874  0.00212672  0.88097921  1
  In  In26  1  0.50375838  0.33736327  0.36514821  1
  In  In27  1  0.50364216  0.32915423  0.87307683  1
  In  In28  1  0.50012853  0.66982873  0.38000564  1
  In  In29  1  0.51744722  0.67018584  0.87378511  1
  In  In30  1  0.84207574  0.00726546  0.37129963  1
  In  In31  1  0.85156643  -0.01265563  0.87630209  1
  In  In32  1  0.81996379  0.34879718  0.38653668  1
  In  In33  1  0.83414908  0.34758735  0.87462478  1
  In  In34  1  0.81913477  0.66240878  0.38166165  1
  In  In35  1  0.82682131  0.66513624  0.86321809  1
  In  In36  1  -0.00166823  0.15514951  0.37143195  1
  In  In37  1  0.01590015  0.15917210  0.87805565  1
  In  In38  1  -0.00366745  0.50524686  0.38632352  1
  In  In39  1  -0.00972721  0.50599797  0.88123310  1
  In  In40  1  0.00804614  0.84767248  0.36967967  1
  In  In41  1  0.00778782  0.84110054  0.85731805  1
  In  In42  1  0.33293983  0.15963073  0.34511807  1
  In  In43  1  0.32223968  0.15500773  0.88020126  1
  In  In44  1  0.33106542  0.50411581  0.37386925  1
  In  In45  1  0.32955624  0.48964270  0.88100304  1
  In  In46  1  0.32909700  0.83643351  0.36728506  1
  In  In47  1  0.32933536  0.83760908  0.88910452  1
  In  In48  1  0.67247313  0.17710127  0.36621314  1
  In  In49  1  0.65550535  0.17145594  0.87135917  1
  In  In50  1  0.66148410  0.50081972  0.38034163  1
  In  In51  1  0.67860294  0.51050548  0.86415827  1
  In  In52  1  0.65720403  0.81304804  0.37230317  1
  In  In53  1  0.67255770  0.82201592  0.87831644  1
  In  In54  1  0.16686435  -0.00375454  0.13151149  1
  In  In55  1  0.17186575  -0.01022203  0.62505619  1
  In  In56  1  0.17347499  0.33895284  0.12143448  1
  In  In57  1  0.15633633  0.33749889  0.62531463  1
  In  In58  1  0.18056986  0.67478174  0.12078114  1
  In  In59  1  0.16355288  0.66579918  0.62172810  1
  In  In60  1  0.50516313  -0.00786947  0.13444887  1
  In  In61  1  0.50961414  -0.00712414  0.61542243  1
  In  In62  1  0.49408231  0.32744053  0.14197109  1
  In  In63  1  0.50732778  0.35154789  0.61601851  1
  In  In64  1  0.49036468  0.67647223  0.13448931  1
  In  In65  1  0.51182314  0.67460431  0.60839798  1
  In  In66  1  0.83408600  -0.00430364  0.13506102  1
  In  In67  1  0.83934712  0.00880679  0.62114894  1
  In  In68  1  0.81953757  0.33727503  0.12482474  1
  In  In69  1  0.82407865  0.32398182  0.61865029  1
  In  In70  1  0.83306673  0.65481589  0.12763095  1
  In  In71  1  0.84179568  0.66518032  0.62766128  1
  In  In72  1  0.83686544  0.82964462  0.50389544  1
  In  In73  1  0.83798473  0.82899176  -0.00006215  1
  In  In74  1  0.83323242  0.17091585  0.00739227  1
  In  In75  1  0.49191765  0.16676583  0.01653160  1
  In  In76  1  0.50429314  0.17065590  0.47579476  1
  In  In77  1  0.33355227  0.66461792  0.75263868  1
  In  In78  1  0.32907715  -0.00046682  0.75190865  1
  In  In79  1  0.67401961  -0.00659671  0.74815596  1
  In  In80  1  -0.00340420  0.33331793  0.75233311  1
  In  In81  1  -0.00216782  0.33167262  0.24627308  1
  In  In82  1  0.33540547  0.33324122  0.75589808  1
  In  In83  1  0.49393042  0.50614895  0.00368269  1
  In  In84  1  0.00220843  0.67570721  0.24689672  1
  In  In85  1  0.16790107  0.16859678  0.49024472  1
  Cu  Cu86  1  0.00284637  0.33094947  -0.00028749  1
  Cu  Cu87  1  -0.00232107  0.66316374  -0.00142741  1
  Cu  Cu88  1  0.16626239  0.50166006  0.24965956  1
  Cu  Cu89  1  0.66576651  0.66812510  -0.00204728  1
  Cu  Cu90  1  0.16354928  0.50080331  0.74804147  1
  Cu  Cu91  1  0.32919492  -0.01007882  0.01092333  1
  Cu  Cu92  1  0.83210084  0.17261432  0.25117876  1
  Cu  Cu93  1  0.66986724  -0.01049718  0.49502378  1
  Cu  Cu94  1  0.83162113  0.49648379  0.74462732  1
  Cu  Cu95  1  0.16471205  0.83414198  0.75289596  1
  Cu  Cu96  1  0.32755632  0.33642380  0.49194763  1
  Cu  Cu97  1  0.66342340  0.33129259  0.49556069  1
  Cu  Cu98  1  0.50290274  0.83105427  0.74719935  1
  Cu  Cu99  1  0.49974113  0.50245827  0.25632090  1
  Cu  Cu100  1  0.00750633  0.00097236  0.49393596  1
  Cu  Cu101  1  0.50215123  0.81957614  0.25238619  1
  Cu  Cu102  1  0.83038847  0.83583775  0.25477451  1
  Cu  Cu103  1  0.66524320  0.00077931  0.01057301  1
  Cu  Cu104  1  0.33624478  -0.00144212  0.48728668  1
  Cu  Cu105  1  0.51245767  0.50695613  0.74094990  1
  Cu  Cu106  1  0.33050928  0.66684592  0.00826099  1
  Cu  Cu107  1  -0.00285125  0.33586703  0.50405498  1
  Cu  Cu108  1  0.00613908  0.67555605  0.50274270  1
  Cu  Cu109  1  0.66770471  0.34671769  0.00087225  1
  Cu  Cu110  1  0.50495206  0.17892417  0.74429455  1
  Cu  Cu111  1  0.82108920  0.50344021  0.25765327  1
  Cu  Cu112  1  0.83490605  0.16245551  0.74877733  1
  Cu  Cu113  1  0.33022637  0.67044029  0.49172182  1
  Cu  Cu114  1  0.32864069  0.32792256  0.00907253  1
  Se  Se115  1  0.09139119  0.07558671  0.05496804  1
  Se  Se116  1  0.08297419  0.08332702  0.55870797  1
  Se  Se117  1  0.08508351  0.41626751  0.05319003  1
  Se  Se118  1  0.08734823  0.41880781  0.55051954  1
  Se  Se119  1  0.07759669  0.74165696  0.05820248  1
  Se  Se120  1  0.08877561  0.75962196  0.55527582  1
  Se  Se121  1  0.40350086  0.07461054  0.07211103  1
  Se  Se122  1  0.41929346  0.07895594  0.54567877  1
  Se  Se123  1  0.41324990  0.40841372  0.06434668  1
  Se  Se124  1  0.41443101  0.41515133  0.54530336  1
  Se  Se125  1  0.41716357  0.75075064  0.05664060  1
  Se  Se126  1  0.41698530  0.75187054  0.54553230  1
  Se  Se127  1  0.73898393  0.08534916  0.06929833  1
  Se  Se128  1  0.75191546  0.07602500  0.54680500  1
  Se  Se129  1  0.75150789  0.42839750  0.05358799  1
  Se  Se130  1  0.74679413  0.41246610  0.55201838  1
  Se  Se131  1  0.74357569  0.74686192  0.06252009  1
  Se  Se132  1  0.74443087  0.73513490  0.55510499  1
  Se  Se133  1  0.25129823  0.23896362  0.06135458  1
  Se  Se134  1  0.25634963  0.25588092  0.55812588  1
  Se  Se135  1  0.24934348  0.57557128  0.05462432  1
  Se  Se136  1  0.24806829  0.58934878  0.55042184  1
  Se  Se137  1  0.24521262  0.90604705  0.06222215  1
  Se  Se138  1  0.25173524  0.92334372  0.54682395  1
  Se  Se139  1  0.58995166  0.26419562  0.06225672  1
  Se  Se140  1  0.58529579  0.24489675  0.55551559  1
  Se  Se141  1  0.58658961  0.59220997  0.06288633  1
  Se  Se142  1  0.56412256  0.55971354  0.55435450  1
  Se  Se143  1  0.58007899  0.91445550  0.05721648  1
  Se  Se144  1  0.58193371  0.90824010  0.54428942  1
  Se  Se145  1  0.92613760  0.25744783  0.06794725  1
  Se  Se146  1  0.91582059  0.24584056  0.55237026  1
  Se  Se147  1  0.90995513  0.58252806  0.05035825  1
  Se  Se148  1  0.92130986  0.58962075  0.55235982  1
  Se  Se149  1  0.92011029  0.92920430  0.05603543  1
  Se  Se150  1  0.93217866  0.92041427  0.55845223  1
  Se  Se151  1  0.07356009  0.26128402  0.43594109  1
  Se  Se152  1  0.08643472  0.24412519  0.95165096  1
  Se  Se153  1  0.08599541  0.58944921  0.44728617  1
  Se  Se154  1  0.08437193  0.57783583  0.94829237  1
  Se  Se155  1  0.09395549  0.92262525  0.44079346  1
  Se  Se156  1  0.07611353  0.89083612  0.94704967  1
  Se  Se157  1  0.39811514  0.25329763  0.42783252  1
  Se  Se158  1  0.40937842  0.25397932  0.94334965  1
  Se  Se159  1  0.41427457  0.58217659  0.44513402  1
  Se  Se160  1  0.40878412  0.59642587  0.93782304  1
  Se  Se161  1  0.41951762  0.91097442  0.43921036  1
  Se  Se162  1  0.41928466  0.91803976  0.95417870  1
  Se  Se163  1  0.74895292  0.24497798  0.44707245  1
  Se  Se164  1  0.74056763  0.25686241  0.94274385  1
  Se  Se165  1  0.75821881  0.56666964  0.44925738  1
  Se  Se166  1  0.74918050  0.58921642  0.94141702  1
  Se  Se167  1  0.75296328  0.91260674  0.43434882  1
  Se  Se168  1  0.74399027  0.92693604  0.94472621  1
  Se  Se169  1  0.25972113  0.08326011  0.42958131  1
  Se  Se170  1  0.25000679  0.07583422  0.95434366  1
  Se  Se171  1  0.24299373  0.42177213  0.44262320  1
  Se  Se172  1  0.25001402  0.41504209  0.95441100  1
  Se  Se173  1  0.24754143  0.75670347  0.44034442  1
  Se  Se174  1  0.24699449  0.75016003  0.95312270  1
  Se  Se175  1  0.59475333  0.06919254  0.43060095  1
  Se  Se176  1  0.58597360  0.08324952  0.94933143  1
  Se  Se177  1  0.57530707  0.41177632  0.44496687  1
  Se  Se178  1  0.58519527  0.42111859  0.93889050  1
  Se  Se179  1  0.59068839  0.73952260  0.45168239  1
  Se  Se180  1  0.58105872  0.75578900  0.95048663  1
  Se  Se181  1  0.91818702  0.08449747  0.44829692  1
  Se  Se182  1  0.92142614  0.07983186  0.94783176  1
  Se  Se183  1  0.91326119  0.42170240  0.45309313  1
  Se  Se184  1  0.91585314  0.41478853  0.95043260  1
  Se  Se185  1  0.92759767  0.74811068  0.43500329  1
  Se  Se186  1  0.92127821  0.74212041  0.93438259  1
  Se  Se187  1  0.23515163  0.24358610  0.29372510  1
  Se  Se188  1  0.24108624  0.24164620  0.80921640  1
  Se  Se189  1  0.24823991  0.58600207  0.30272060  1
  Se  Se190  1  0.24297641  0.57593900  0.81337433  1
  Se  Se191  1  0.27259790  0.94163555  0.29870703  1
  Se  Se192  1  0.24348964  0.91242472  0.81522064  1
  Se  Se193  1  0.58611555  0.25390053  0.29939974  1
  Se  Se194  1  0.58796605  0.25947095  0.79836327  1
  Se  Se195  1  0.58261913  0.58501227  0.30989357  1
  Se  Se196  1  0.58976422  0.59135943  0.79843496  1
  Se  Se197  1  0.58797038  0.90515448  0.30246141  1
  Se  Se198  1  0.57432018  0.91573396  0.81101611  1
  Se  Se199  1  0.90676808  0.25433751  0.31462311  1
  Se  Se200  1  0.91092088  0.24027562  0.81540998  1
  Se  Se201  1  0.91414760  0.58241007  0.30830483  1
  Se  Se202  1  0.91518862  0.57583400  0.80203819  1
  Se  Se203  1  0.91855004  0.92019854  0.30093708  1
  Se  Se204  1  0.90655710  0.90849420  0.79571027  1
  Se  Se205  1  0.08317247  0.09241192  0.29729209  1
  Se  Se206  1  0.08908746  0.07124660  0.81036390  1
  Se  Se207  1  0.08084370  0.42667617  0.30940168  1
  Se  Se208  1  0.08991659  0.42005207  0.81271636  1
  Se  Se209  1  0.09687447  0.76382080  0.30208030  1
  Se  Se210  1  0.08609062  0.73998334  0.80015641  1
  Se  Se211  1  0.45120707  0.09987821  0.29737126  1
  Se  Se212  1  0.42533114  0.09825866  0.80523711  1
  Se  Se213  1  0.41051901  0.41907290  0.30385860  1
  Se  Se214  1  0.43085817  0.43233180  0.80595723  1
  Se  Se215  1  0.41404112  0.74378812  0.30738481  1
  Se  Se216  1  0.41956583  0.76034649  0.81211493  1
  Se  Se217  1  0.75243023  0.08357840  0.30316708  1
  Se  Se218  1  0.75616602  0.08599988  0.81449796  1
  Se  Se219  1  0.74108315  0.41515104  0.30768593  1
  Se  Se220  1  0.74934942  0.41265317  0.79875752  1
  Se  Se221  1  0.75344056  0.74400508  0.30378885  1
  Se  Se222  1  0.74446791  0.75413074  0.79977484  1
  Se  Se223  1  0.26575348  0.05480492  0.20470725  1
  Se  Se224  1  0.24057725  0.09346252  0.69354967  1
  Se  Se225  1  0.24936028  0.41644297  0.19749540  1
  Se  Se226  1  0.24967158  0.42454122  0.69053439  1
  Se  Se227  1  0.25407630  0.73982699  0.20063087  1
  Se  Se228  1  0.25081993  0.76059029  0.69130366  1
  Se  Se229  1  0.57187696  0.08416223  0.20613787  1
  Se  Se230  1  0.57862880  0.08617168  0.68930832  1
  Se  Se231  1  0.58106672  0.41882808  0.20002380  1
  Se  Se232  1  0.59027641  0.41399782  0.69349002  1
  Se  Se233  1  0.59155314  0.73969177  0.20056325  1
  Se  Se234  1  0.58022841  0.74711101  0.69137402  1
  Se  Se235  1  0.91367785  0.08785692  0.19826510  1
  Se  Se236  1  0.92023638  0.08074957  0.69777026  1
  Se  Se237  1  0.90492318  0.42942039  0.19429408  1
  Se  Se238  1  0.91398523  0.41834784  0.68395062  1
  Se  Se239  1  0.90804735  0.76252249  0.18608146  1
  Se  Se240  1  0.91711316  0.74668379  0.70020067  1
  Se  Se241  1  0.09063324  0.24527688  0.18933152  1
  Se  Se242  1  0.09185363  0.24228299  0.69705325  1
  Se  Se243  1  0.08456072  0.57747011  0.18764060  1
  Se  Se244  1  0.08371622  0.58656570  0.69509171  1
  Se  Se245  1  0.07445894  0.92296763  0.20052211  1
  Se  Se246  1  0.08578211  0.91960034  0.69744760  1
  Se  Se247  1  0.40815175  0.25150273  0.20929644  1
  Se  Se248  1  0.41979308  0.25018014  0.68312580  1
  Se  Se249  1  0.41614525  0.58539571  0.20191281  1
  Se  Se250  1  0.42191997  0.58209481  0.68659051  1
  Se  Se251  1  0.42160366  0.90538189  0.19905854  1
  Se  Se252  1  0.42229198  0.91220917  0.68859334  1
  Se  Se253  1  0.74798090  0.25743276  0.20007024  1
  Se  Se254  1  0.75077536  0.24441536  0.69589720  1
  Se  Se255  1  0.74405587  0.58766612  0.20003356  1
  Se  Se256  1  0.75107061  0.58202322  0.69111482  1
  Se  Se257  1  0.74467418  0.91928696  0.20116857  1
  Se  Se258  1  0.75717006  0.90823381  0.68175214  1
