# generated using pymatgen
data_In86Cu29Se144
_symmetry_space_group_name_H-M   'P 1'
_cell_length_a   17.58490422
_cell_length_b   17.58753928
_cell_length_c   23.44264908
_cell_angle_alpha   89.99221449
_cell_angle_beta   89.97529822
_cell_angle_gamma   90.03056094
_symmetry_Int_Tables_number   1
_chemical_formula_structural   In86Cu29Se144
_chemical_formula_sum   'In86 Cu29 Se144'
_cell_volume   7250.22806338
_cell_formula_units_Z   1
loop_
 _symmetry_equiv_pos_site_id
 _symmetry_equiv_pos_as_xyz
  1  'x, y, z'
loop_
 _atom_site_type_symbol
 _atom_site_label
 _atom_site_symmetry_multiplicity
 _atom_site_fract_x
 _atom_site_fract_y
 _atom_site_fract_z
 _atom_site_occupancy
  In  In0  1  0.00852293  0.15133955  0.12727444  1
  In  In1  1  0.00326367  0.16967740  0.62575406  1
  In  In2  1  -0.00683489  0.50951414  0.12010267  1
  In  In3  1  0.01231444  0.48734593  0.63227437  1
  In  In4  1  0.01048727  0.84229166  0.12558609  1
  In  In5  1  -0.00181626  0.83493714  0.62878252  1
  In  In6  1  0.32321154  0.16624033  0.12032466  1
  In  In7  1  0.33558006  0.17166070  0.62055337  1
  In  In8  1  0.33836036  0.49926000  0.12947742  1
  In  In9  1  0.33416933  0.49644945  0.62338923  1
  In  In10  1  0.33580062  0.83220191  0.13637275  1
  In  In11  1  0.31693661  0.83490146  0.62063108  1
  In  In12  1  0.66712896  0.17582197  0.12339738  1
  In  In13  1  0.66692107  0.16476859  0.62953677  1
  In  In14  1  0.67030982  0.50311917  0.12198848  1
  In  In15  1  0.66037996  0.50191415  0.62726846  1
  In  In16  1  0.65230978  0.82951405  0.12845537  1
  In  In17  1  0.68536163  0.82539104  0.63650503  1
  In  In18  1  0.16773453  -0.00240565  0.37732193  1
  In  In19  1  0.16119816  0.01343172  0.86998902  1
  In  In20  1  0.16190176  0.33826032  0.38562774  1
  In  In21  1  0.16548225  0.32102670  0.86367795  1
  In  In22  1  0.17885984  0.65716041  0.38580067  1
  In  In23  1  0.16680041  0.66443751  0.86344531  1
  In  In24  1  0.49592570  0.01801668  0.37623411  1
  In  In25  1  0.50840173  0.00480780  0.87312379  1
  In  In26  1  0.50259481  0.32991710  0.38550727  1
  In  In27  1  0.48563448  0.31750185  0.86585526  1
  In  In28  1  0.49122902  0.65871110  0.37498535  1
  In  In29  1  0.50224357  0.66615875  0.86372687  1
  In  In30  1  0.84430140  -0.00899522  0.38353997  1
  In  In31  1  0.84723804  0.00770662  0.85583214  1
  In  In32  1  0.81913218  0.33146085  0.38104122  1
  In  In33  1  0.83960770  0.34612003  0.86691667  1
  In  In34  1  0.84215105  0.67676489  0.37557120  1
  In  In35  1  0.82637849  0.65976668  0.86244953  1
  In  In36  1  0.01427367  0.15369983  0.38713915  1
  In  In37  1  0.00854416  0.16827177  0.86457192  1
  In  In38  1  0.00608649  0.51360563  0.37875835  1
  In  In39  1  -0.00659750  0.48747245  0.86847581  1
  In  In40  1  -0.00787050  0.83939698  0.38430854  1
  In  In41  1  -0.00211539  0.84080486  0.85542322  1
  In  In42  1  0.34038591  0.15724904  0.38003696  1
  In  In43  1  0.32048089  0.18242650  0.89196716  1
  In  In44  1  0.32430056  0.51192056  0.38229601  1
  In  In45  1  0.32751146  0.49332496  0.86487350  1
  In  In46  1  0.32279952  0.82472250  0.37453626  1
  In  In47  1  0.34230398  0.82924133  0.86956464  1
  In  In48  1  0.66257441  0.17051362  0.38693058  1
  In  In49  1  0.65653030  0.16262783  0.86719750  1
  In  In50  1  0.65564288  0.49388233  0.37695875  1
  In  In51  1  0.67236026  0.50715947  0.86635381  1
  In  In52  1  0.68512414  0.83288093  0.37889535  1
  In  In53  1  0.68345840  0.84273321  0.85079885  1
  In  In54  1  0.15799121  0.01323265  0.13388443  1
  In  In55  1  0.16046022  -0.00262669  0.62091146  1
  In  In56  1  0.17808869  0.31929752  0.12270330  1
  In  In57  1  0.16543709  0.33125879  0.62390009  1
  In  In58  1  0.16707421  0.67585412  0.12964536  1
  In  In59  1  0.16633139  0.66575752  0.62515138  1
  In  In60  1  0.48960971  0.00266375  0.12915355  1
  In  In61  1  0.50225009  0.01425408  0.62265450  1
  In  In62  1  0.49451722  0.32960245  0.11728422  1
  In  In63  1  0.49803994  0.33203586  0.62549121  1
  In  In64  1  0.50085727  0.66484745  0.13618869  1
  In  In65  1  0.51049224  0.65231787  0.62761501  1
  In  In66  1  0.84298262  0.00876405  0.12735221  1
  In  In67  1  0.83338019  0.00036286  0.62931419  1
  In  In68  1  0.82384411  0.33925048  0.11986709  1
  In  In69  1  0.84736161  0.31852153  0.63419254  1
  In  In70  1  0.82572963  0.65398195  0.12477153  1
  In  In71  1  0.83398704  0.67889234  0.63282846  1
  In  In72  1  0.66418070  0.33620037  0.25439062  1
  In  In73  1  0.50511634  0.83500130  -0.00361098  1
  In  In74  1  -0.00572675  0.33840161  0.25478764  1
  In  In75  1  0.16793941  0.83767920  -0.00509584  1
  In  In76  1  0.33162620  0.00637482  0.74323640  1
  In  In77  1  0.83765092  0.49994701  0.50473635  1
  In  In78  1  0.83506938  0.83951047  -0.00639202  1
  In  In79  1  0.66785609  -0.00367602  0.25199560  1
  In  In80  1  0.84004987  0.17467422  -0.01627598  1
  In  In81  1  0.16119035  0.49053177  -0.00490760  1
  In  In82  1  0.50224114  0.83477549  0.49997451  1
  In  In83  1  0.49996118  0.49410757  0.00242821  1
  In  In84  1  0.00325731  0.67114514  0.25446298  1
  In  In85  1  0.33244704  0.33353766  0.24773838  1
  Cu  Cu86  1  0.49894651  0.82850872  0.74555061  1
  Cu  Cu87  1  0.83958767  0.83205727  0.25469969  1
  Cu  Cu88  1  -0.01104513  0.66488967  -0.00554920  1
  Cu  Cu89  1  0.17027857  0.83620385  0.25459593  1
  Cu  Cu90  1  0.67112534  0.67007179  -0.01142673  1
  Cu  Cu91  1  0.32705886  0.00297684  0.50127754  1
  Cu  Cu92  1  0.33393097  0.33486330  0.50288685  1
  Cu  Cu93  1  0.84085684  0.16021325  0.25737719  1
  Cu  Cu94  1  0.66027325  0.33940271  -0.00282621  1
  Cu  Cu95  1  0.00376671  0.67139659  0.50577972  1
  Cu  Cu96  1  0.49962335  0.82935292  0.25733717  1
  Cu  Cu97  1  0.49691034  0.16915799  0.74715937  1
  Cu  Cu98  1  0.17228453  0.50083943  0.74488578  1
  Cu  Cu99  1  0.49544009  0.50309346  0.25428621  1
  Cu  Cu100  1  0.33471871  0.66301856  0.50253302  1
  Cu  Cu101  1  0.83382710  0.50184569  0.74351953  1
  Cu  Cu102  1  0.67147384  0.66555288  0.50784016  1
  Cu  Cu103  1  0.16737404  0.83198168  0.74306660  1
  Cu  Cu104  1  0.67117027  0.01017942  -0.00724350  1
  Cu  Cu105  1  0.17167204  0.16098451  0.25537671  1
  Cu  Cu106  1  -0.00322747  0.32795165  -0.00767930  1
  Cu  Cu107  1  0.67126060  0.00119360  0.50480354  1
  Cu  Cu108  1  0.49896589  0.49456481  0.74704398  1
  Cu  Cu109  1  -0.00335926  0.00223447  0.50645012  1
  Cu  Cu110  1  0.33762962  0.65981604  0.00202327  1
  Cu  Cu111  1  0.00163771  0.33075151  0.50764274  1
  Cu  Cu112  1  0.32918482  0.00586784  0.00602258  1
  Cu  Cu113  1  0.83265273  0.16977205  0.74673222  1
  Cu  Cu114  1  0.66628543  0.32689931  0.50947236  1
  Se  Se115  1  0.08858180  0.08232378  0.05257673  1
  Se  Se116  1  0.08360423  0.08744051  0.55385202  1
  Se  Se117  1  0.07262390  0.40415638  0.06117890  1
  Se  Se118  1  0.08735860  0.41934365  0.55214750  1
  Se  Se119  1  0.07382905  0.74171608  0.05294777  1
  Se  Se120  1  0.08580424  0.75567531  0.55910960  1
  Se  Se121  1  0.41799951  0.08584139  0.05639290  1
  Se  Se122  1  0.41485866  0.08429339  0.55141171  1
  Se  Se123  1  0.39702508  0.40686031  0.05234570  1
  Se  Se124  1  0.42074771  0.41711991  0.55380439  1
  Se  Se125  1  0.41482365  0.74500925  0.05943171  1
  Se  Se126  1  0.41503687  0.74460129  0.56223884  1
  Se  Se127  1  0.75318674  0.08571804  0.05459283  1
  Se  Se128  1  0.75215096  0.08568261  0.55930644  1
  Se  Se129  1  0.74586190  0.42124417  0.04894518  1
  Se  Se130  1  0.75185038  0.40751419  0.56533714  1
  Se  Se131  1  0.74184222  0.75176719  0.05500264  1
  Se  Se132  1  0.75525743  0.75168250  0.55540447  1
  Se  Se133  1  0.24779139  0.24567469  0.04623768  1
  Se  Se134  1  0.24832097  0.25043871  0.55251739  1
  Se  Se135  1  0.24934298  0.58558654  0.05841364  1
  Se  Se136  1  0.24933593  0.58171171  0.55643405  1
  Se  Se137  1  0.25480407  0.91847790  0.06435978  1
  Se  Se138  1  0.24240380  0.91683509  0.54886099  1
  Se  Se139  1  0.58463531  0.25137652  0.05173595  1
  Se  Se140  1  0.57985799  0.24297799  0.55891809  1
  Se  Se141  1  0.58611444  0.59876890  0.05341025  1
  Se  Se142  1  0.58461649  0.57748950  0.54948037  1
  Se  Se143  1  0.59314712  0.93043581  0.05624788  1
  Se  Se144  1  0.59214071  0.91807111  0.56442309  1
  Se  Se145  1  0.92119532  0.25198029  0.06117043  1
  Se  Se146  1  0.91446774  0.24534131  0.55304839  1
  Se  Se147  1  0.90749999  0.58292967  0.04896961  1
  Se  Se148  1  0.92585661  0.58743839  0.56651802  1
  Se  Se149  1  0.92677299  0.92722760  0.05483389  1
  Se  Se150  1  0.91451185  0.91670033  0.55860479  1
  Se  Se151  1  0.08621714  0.24874264  0.45264968  1
  Se  Se152  1  0.08244026  0.24900318  0.93974402  1
  Se  Se153  1  0.08514673  0.58446584  0.45404187  1
  Se  Se154  1  0.07664396  0.58915207  0.93746697  1
  Se  Se155  1  0.07998736  0.92156741  0.44859361  1
  Se  Se156  1  0.07385863  0.91936144  0.93523058  1
  Se  Se157  1  0.41475212  0.24765019  0.44915242  1
  Se  Se158  1  0.42795696  0.24446378  0.95016309  1
  Se  Se159  1  0.42022248  0.57925417  0.45151813  1
  Se  Se160  1  0.41423039  0.58473964  0.93764056  1
  Se  Se161  1  0.41009752  0.92300345  0.44061475  1
  Se  Se162  1  0.40663277  0.92615719  0.94292274  1
  Se  Se163  1  0.75148466  0.24672972  0.45512504  1
  Se  Se164  1  0.73969404  0.26195342  0.93344605  1
  Se  Se165  1  0.74834076  0.58697469  0.44114136  1
  Se  Se166  1  0.75345127  0.58233607  0.94112782  1
  Se  Se167  1  0.75469077  0.91592943  0.45290492  1
  Se  Se168  1  0.74770319  0.93036551  0.93211122  1
  Se  Se169  1  0.24517860  0.08653093  0.44638681  1
  Se  Se170  1  0.24389152  0.07942849  0.94725645  1
  Se  Se171  1  0.25077892  0.41978544  0.44963723  1
  Se  Se172  1  0.25487211  0.40540523  0.93791168  1
  Se  Se173  1  0.25049242  0.75088592  0.45377155  1
  Se  Se174  1  0.25901292  0.73988450  0.94078447  1
  Se  Se175  1  0.58303893  0.08070185  0.45237142  1
  Se  Se176  1  0.58022753  0.09009534  0.94625865  1
  Se  Se177  1  0.58757276  0.41212581  0.45294306  1
  Se  Se178  1  0.58311863  0.41463199  0.93156231  1
  Se  Se179  1  0.59261601  0.74265894  0.44164481  1
  Se  Se180  1  0.59402223  0.75338378  0.92987978  1
  Se  Se181  1  0.91359444  0.08585481  0.45092296  1
  Se  Se182  1  0.92774777  0.07389954  0.93663428  1
  Se  Se183  1  0.92559609  0.40944740  0.44115111  1
  Se  Se184  1  0.91413336  0.41785597  0.94699760  1
  Se  Se185  1  0.91529515  0.75028036  0.45309479  1
  Se  Se186  1  0.91980368  0.74845780  0.93133344  1
  Se  Se187  1  0.24351433  0.24932146  0.31396164  1
  Se  Se188  1  0.25870631  0.24049816  0.80323110  1
  Se  Se189  1  0.24827371  0.58506262  0.30608648  1
  Se  Se190  1  0.25589122  0.58622683  0.79792324  1
  Se  Se191  1  0.25488806  0.92015687  0.30656454  1
  Se  Se192  1  0.24608563  0.91151533  0.80730573  1
  Se  Se193  1  0.57545279  0.24123076  0.30921619  1
  Se  Se194  1  0.58399087  0.25326063  0.79800235  1
  Se  Se195  1  0.58270696  0.58223742  0.30725080  1
  Se  Se196  1  0.58330890  0.58167280  0.79708292  1
  Se  Se197  1  0.57932762  0.90998537  0.31762477  1
  Se  Se198  1  0.57517826  0.91704282  0.79988106  1
  Se  Se199  1  0.91370620  0.24438457  0.31879746  1
  Se  Se200  1  0.91528840  0.25061369  0.80410154  1
  Se  Se201  1  0.90893151  0.57559523  0.30612837  1
  Se  Se202  1  0.92019063  0.57938567  0.80076882  1
  Se  Se203  1  0.92073130  0.91774141  0.30567301  1
  Se  Se204  1  0.88911526  0.89417333  0.79316497  1
  Se  Se205  1  0.08343366  0.08012373  0.30659275  1
  Se  Se206  1  0.07136815  0.07085047  0.79580545  1
  Se  Se207  1  0.09063604  0.42697977  0.30909871  1
  Se  Se208  1  0.09059902  0.41910172  0.80288969  1
  Se  Se209  1  0.09087146  0.75716344  0.31778681  1
  Se  Se210  1  0.08425332  0.74908674  0.79756866  1
  Se  Se211  1  0.41530513  0.08663361  0.30157222  1
  Se  Se212  1  0.41693387  0.09042210  0.81029628  1
  Se  Se213  1  0.42067533  0.41841356  0.31412421  1
  Se  Se214  1  0.41363956  0.41176364  0.79938242  1
  Se  Se215  1  0.41317677  0.74665296  0.30818018  1
  Se  Se216  1  0.41361489  0.74571852  0.79697173  1
  Se  Se217  1  0.75281224  0.08643831  0.31610028  1
  Se  Se218  1  0.74754168  0.08672468  0.80005004  1
  Se  Se219  1  0.75895182  0.42806066  0.30731106  1
  Se  Se220  1  0.74931214  0.41852457  0.79774066  1
  Se  Se221  1  0.75381439  0.74843825  0.30359144  1
  Se  Se222  1  0.73764055  0.73258000  0.79362434  1
  Se  Se223  1  0.25603986  0.08327971  0.19825599  1
  Se  Se224  1  0.23829509  0.09443431  0.68791003  1
  Se  Se225  1  0.23631693  0.42333246  0.19153157  1
  Se  Se226  1  0.25216872  0.41318376  0.69277136  1
  Se  Se227  1  0.25036292  0.74852260  0.20187484  1
  Se  Se228  1  0.25341634  0.74729892  0.69518467  1
  Se  Se229  1  0.58317072  0.09088160  0.19253641  1
  Se  Se230  1  0.58219475  0.08187657  0.69997710  1
  Se  Se231  1  0.57106349  0.42193966  0.18982316  1
  Se  Se232  1  0.58430041  0.41233496  0.69485871  1
  Se  Se233  1  0.58457306  0.74780235  0.20403045  1
  Se  Se234  1  0.58410010  0.74680100  0.69305485  1
  Se  Se235  1  0.92373383  0.08028416  0.20215610  1
  Se  Se236  1  0.91851275  0.08675700  0.69529745  1
  Se  Se237  1  0.90551152  0.42556694  0.19049887  1
  Se  Se238  1  0.92049579  0.41326122  0.69942860  1
  Se  Se239  1  0.91307280  0.75500453  0.18590921  1
  Se  Se240  1  0.92345169  0.75020741  0.70120221  1
  Se  Se241  1  0.08878955  0.24483988  0.19794837  1
  Se  Se242  1  0.06917244  0.26706740  0.69303742  1
  Se  Se243  1  0.08776475  0.57664601  0.19165507  1
  Se  Se244  1  0.08439846  0.58453622  0.69662883  1
  Se  Se245  1  0.08517743  0.91794769  0.20085698  1
  Se  Se246  1  0.08365849  0.92048922  0.69637090  1
  Se  Se247  1  0.42280201  0.24263194  0.19067190  1
  Se  Se248  1  0.41219396  0.25088978  0.69484215  1
  Se  Se249  1  0.41080133  0.58508819  0.20062105  1
  Se  Se250  1  0.41688497  0.57990535  0.69392672  1
  Se  Se251  1  0.42197126  0.91481697  0.20162919  1
  Se  Se252  1  0.42099394  0.91083188  0.68453133  1
  Se  Se253  1  0.76244358  0.24266816  0.19755396  1
  Se  Se254  1  0.74530254  0.25335427  0.69820581  1
  Se  Se255  1  0.73567457  0.58917115  0.19529947  1
  Se  Se256  1  0.74965381  0.58398723  0.69136967  1
  Se  Se257  1  0.75940783  0.90782398  0.18848003  1
  Se  Se258  1  0.74584434  0.92655291  0.70084778  1
