# generated using pymatgen
data_In86Cu29Se144
_symmetry_space_group_name_H-M   'P 1'
_cell_length_a   17.58317443
_cell_length_b   17.57796783
_cell_length_c   23.44189637
_cell_angle_alpha   90.00878004
_cell_angle_beta   90.01301044
_cell_angle_gamma   90.00220616
_symmetry_Int_Tables_number   1
_chemical_formula_structural   In86Cu29Se144
_chemical_formula_sum   'In86 Cu29 Se144'
_cell_volume   7245.33840745
_cell_formula_units_Z   1
loop_
 _symmetry_equiv_pos_site_id
 _symmetry_equiv_pos_as_xyz
  1  'x, y, z'
loop_
 _atom_site_type_symbol
 _atom_site_label
 _atom_site_symmetry_multiplicity
 _atom_site_fract_x
 _atom_site_fract_y
 _atom_site_fract_z
 _atom_site_occupancy
  In  In0  1  0.01499470  0.16737440  0.12811055  1
  In  In1  1  0.00461331  0.15606770  0.62339593  1
  In  In2  1  -0.01944710  0.50408727  0.12477469  1
  In  In3  1  0.00925103  0.51858335  0.60871164  1
  In  In4  1  0.00867768  0.80878783  0.11622942  1
  In  In5  1  -0.00648452  0.81603346  0.61198965  1
  In  In6  1  0.31768382  0.16884875  0.12645830  1
  In  In7  1  0.33439295  0.16920229  0.62204539  1
  In  In8  1  0.35211899  0.50043863  0.12407923  1
  In  In9  1  0.32334079  0.48781932  0.61981820  1
  In  In10  1  0.33256548  0.83045530  0.12729126  1
  In  In11  1  0.32943279  0.84824116  0.63125175  1
  In  In12  1  0.67514896  0.16819067  0.12639093  1
  In  In13  1  0.66781251  0.18781696  0.62696704  1
  In  In14  1  0.66430318  0.50377233  0.12756259  1
  In  In15  1  0.66634224  0.50034253  0.62009074  1
  In  In16  1  0.64176373  0.81767060  0.10884120  1
  In  In17  1  0.67169667  0.81262955  0.63643107  1
  In  In18  1  0.17318665  -0.01141623  0.37927474  1
  In  In19  1  0.18218795  -0.01267179  0.88018796  1
  In  In20  1  0.15821250  0.34079776  0.38341402  1
  In  In21  1  0.16362799  0.31903877  0.87300135  1
  In  In22  1  0.17459040  0.66011466  0.38452131  1
  In  In23  1  0.16675691  0.68514963  0.87057054  1
  In  In24  1  0.49769241  0.01326995  0.37426538  1
  In  In25  1  0.48865727  0.00154362  0.87611857  1
  In  In26  1  0.50543226  0.32747179  0.37808885  1
  In  In27  1  0.51072273  0.34583314  0.86616108  1
  In  In28  1  0.49047826  0.65735787  0.36928497  1
  In  In29  1  0.51588327  0.65671937  0.88919538  1
  In  In30  1  0.82498731  -0.01472387  0.37938610  1
  In  In31  1  0.83531205  -0.01026918  0.87177287  1
  In  In32  1  0.84127366  0.34518940  0.37107375  1
  In  In33  1  0.83431948  0.35207649  0.87341000  1
  In  In34  1  0.82839306  0.66994956  0.38201140  1
  In  In35  1  0.82247672  0.66495587  0.85977059  1
  In  In36  1  -0.00395525  0.18205701  0.37850158  1
  In  In37  1  0.00657666  0.17574073  0.87731179  1
  In  In38  1  0.01072125  0.49924694  0.38750017  1
  In  In39  1  -0.01899346  0.50391083  0.87587435  1
  In  In40  1  0.00687690  0.81718663  0.39283506  1
  In  In41  1  0.01569300  0.83338393  0.86691962  1
  In  In42  1  0.33974707  0.16063369  0.37833434  1
  In  In43  1  0.32687660  0.15516996  0.86677672  1
  In  In44  1  0.32797538  0.50700687  0.38231891  1
  In  In45  1  0.34819678  0.50405370  0.87150200  1
  In  In46  1  0.32646125  0.82821308  0.36721239  1
  In  In47  1  0.32564080  0.84453878  0.87713416  1
  In  In48  1  0.65162056  0.16559706  0.37703249  1
  In  In49  1  0.65602463  0.17178750  0.86875227  1
  In  In50  1  0.66368531  0.50099361  0.37530126  1
  In  In51  1  0.67060213  0.50242976  0.87319148  1
  In  In52  1  0.67813047  0.82856429  0.37895980  1
  In  In53  1  0.67645526  0.80356657  0.88456351  1
  In  In54  1  0.17462115  0.00360509  0.12266262  1
  In  In55  1  0.17306742  0.00656546  0.61699039  1
  In  In56  1  0.17056686  0.32320810  0.12642992  1
  In  In57  1  0.17463873  0.33781978  0.62084902  1
  In  In58  1  0.15946604  0.68155258  0.12231105  1
  In  In59  1  0.16150062  0.66520706  0.61985115  1
  In  In60  1  0.49791987  -0.02298426  0.12283360  1
  In  In61  1  0.48451080  -0.00154578  0.62781445  1
  In  In62  1  0.50703904  0.35373775  0.12084225  1
  In  In63  1  0.49956020  0.33588707  0.62101195  1
  In  In64  1  0.49981455  0.66325055  0.12779099  1
  In  In65  1  0.51424887  0.66208597  0.62826353  1
  In  In66  1  0.82756305  -0.00487259  0.12541123  1
  In  In67  1  0.84506603  -0.00261785  0.62630634  1
  In  In68  1  0.82002283  0.34446619  0.13395283  1
  In  In69  1  0.81392740  0.34105808  0.63092001  1
  In  In70  1  0.83690005  0.64337608  0.12155239  1
  In  In71  1  0.83634724  0.66225180  0.62160762  1
  In  In72  1  -0.00073674  -0.00070762  0.25021236  1
  In  In73  1  0.83715874  0.17060666  0.00432619  1
  In  In74  1  0.83927215  0.82701769  -0.00337855  1
  In  In75  1  -0.00426973  0.33778873  0.75103903  1
  In  In76  1  0.66323949  -0.00146231  0.25172363  1
  In  In77  1  0.49584431  0.16656951  -0.00532306  1
  In  In78  1  0.00558517  -0.00420837  0.74440007  1
  In  In79  1  0.66143146  -0.00010412  0.75553647  1
  In  In80  1  0.33564807  0.66884379  0.75172313  1
  In  In81  1  0.16991666  0.50551256  -0.00305781  1
  In  In82  1  0.00103589  0.66151532  0.25265561  1
  In  In83  1  0.33604240  0.33470027  0.24908691  1
  In  In84  1  0.83379559  0.16830038  0.50537074  1
  In  In85  1  0.49853422  0.83208641  0.50719785  1
  Cu  Cu86  1  0.83022147  0.82907241  0.25399276  1
  Cu  Cu87  1  0.00328688  0.33414393  0.50287892  1
  Cu  Cu88  1  0.33310357  0.00295431  0.50013656  1
  Cu  Cu89  1  0.33432937  0.32965119  -0.00138199  1
  Cu  Cu90  1  0.00397988  -0.00214263  0.50220069  1
  Cu  Cu91  1  0.33433084  0.66535246  0.50176411  1
  Cu  Cu92  1  0.66144343  -0.00331538  0.50179868  1
  Cu  Cu93  1  0.33417963  0.33178166  0.49816867  1
  Cu  Cu94  1  0.17182808  0.83554740  0.24813690  1
  Cu  Cu95  1  0.66286410  0.33606381  0.49833351  1
  Cu  Cu96  1  0.16423171  0.16950113  0.25178918  1
  Cu  Cu97  1  0.16742974  0.50136867  0.25951104  1
  Cu  Cu98  1  0.17317932  0.16221191  0.74816303  1
  Cu  Cu99  1  0.49842602  0.82973054  0.75562022  1
  Cu  Cu100  1  0.16068397  0.50221813  0.74207193  1
  Cu  Cu101  1  0.67181891  0.34384821  -0.00057286  1
  Cu  Cu102  1  0.00930816  -0.00020007  0.00058958  1
  Cu  Cu103  1  0.82747601  0.49671050  0.25237878  1
  Cu  Cu104  1  0.49570915  0.16781957  0.25143933  1
  Cu  Cu105  1  0.00191137  0.33726081  -0.00080856  1
  Cu  Cu106  1  0.50553639  0.49660389  0.74906142  1
  Cu  Cu107  1  0.49466580  0.17479037  0.74696779  1
  Cu  Cu108  1  0.50563999  0.50413203  0.24955771  1
  Cu  Cu109  1  0.34021999  0.67265740  0.00019922  1
  Cu  Cu110  1  0.49643095  0.82911752  0.24768834  1
  Cu  Cu111  1  0.83190251  0.17685510  0.25266106  1
  Cu  Cu112  1  0.82861405  0.50403983  0.74492247  1
  Cu  Cu113  1  0.66672150  0.66137639  0.50189256  1
  Cu  Cu114  1  0.32931029  -0.00140251  0.00088178  1
  Se  Se115  1  0.08805384  0.08556048  0.05509155  1
  Se  Se116  1  0.08668296  0.08768753  0.54817925  1
  Se  Se117  1  0.08259831  0.41597050  0.06173663  1
  Se  Se118  1  0.08948558  0.41879369  0.55275292  1
  Se  Se119  1  0.09328372  0.75013477  0.03909912  1
  Se  Se120  1  0.08687882  0.74537971  0.54501125  1
  Se  Se121  1  0.40943821  0.08046808  0.06152315  1
  Se  Se122  1  0.41848933  0.08398084  0.55293105  1
  Se  Se123  1  0.41763583  0.41677203  0.04676957  1
  Se  Se124  1  0.41615017  0.41772978  0.55095056  1
  Se  Se125  1  0.42054674  0.75250291  0.05911563  1
  Se  Se126  1  0.40889345  0.74289884  0.56850331  1
  Se  Se127  1  0.74197368  0.07353580  0.05366831  1
  Se  Se128  1  0.74137577  0.07778555  0.56426544  1
  Se  Se129  1  0.75279030  0.42446459  0.05662721  1
  Se  Se130  1  0.74947400  0.41685680  0.54983096  1
  Se  Se131  1  0.75046129  0.73718476  0.05784202  1
  Se  Se132  1  0.74605989  0.74781514  0.55537180  1
  Se  Se133  1  0.24801979  0.24938209  0.04972830  1
  Se  Se134  1  0.24946810  0.24886689  0.55181845  1
  Se  Se135  1  0.25995344  0.59076640  0.06147176  1
  Se  Se136  1  0.24922166  0.58178147  0.55438244  1
  Se  Se137  1  0.24959338  0.91280640  0.05622420  1
  Se  Se138  1  0.25280498  0.91474466  0.55102190  1
  Se  Se139  1  0.59127118  0.25603953  0.05520363  1
  Se  Se140  1  0.58184691  0.25024843  0.55093786  1
  Se  Se141  1  0.56823540  0.56898789  0.05972935  1
  Se  Se142  1  0.57804435  0.57968699  0.55059627  1
  Se  Se143  1  0.59067405  0.92703923  0.04819777  1
  Se  Se144  1  0.59018346  0.91756029  0.56966869  1
  Se  Se145  1  0.92393012  0.26050941  0.06588885  1
  Se  Se146  1  0.92155799  0.25986309  0.56630992  1
  Se  Se147  1  0.94367614  0.60606854  0.05187305  1
  Se  Se148  1  0.89844446  0.56905250  0.54857417  1
  Se  Se149  1  0.92790812  0.92123777  0.06102764  1
  Se  Se150  1  0.91551448  0.91707660  0.55177375  1
  Se  Se151  1  0.08473277  0.24742251  0.45138129  1
  Se  Se152  1  0.08578248  0.24960741  0.95223523  1
  Se  Se153  1  0.06815301  0.60681899  0.44850972  1
  Se  Se154  1  0.08127446  0.58917900  0.93364235  1
  Se  Se155  1  0.08805933  0.91360913  0.45023772  1
  Se  Se156  1  0.08525657  0.91428167  0.94417392  1
  Se  Se157  1  0.41864214  0.24768801  0.44555864  1
  Se  Se158  1  0.41211832  0.25639521  0.93138878  1
  Se  Se159  1  0.41935348  0.58364834  0.44924430  1
  Se  Se160  1  0.41691985  0.58047333  0.95003966  1
  Se  Se161  1  0.41380756  0.91951530  0.44041041  1
  Se  Se162  1  0.41500363  0.91742702  0.94859129  1
  Se  Se163  1  0.74648523  0.25360761  0.43927443  1
  Se  Se164  1  0.74584002  0.25641933  0.94012027  1
  Se  Se165  1  0.74871616  0.57863923  0.44631184  1
  Se  Se166  1  0.75805076  0.58461879  0.93801287  1
  Se  Se167  1  0.74768424  0.91151032  0.45505821  1
  Se  Se168  1  0.74459304  0.91980052  0.94238834  1
  Se  Se169  1  0.24876891  0.08311566  0.44420611  1
  Se  Se170  1  0.24999437  0.08618211  0.94646255  1
  Se  Se171  1  0.24889578  0.41869382  0.44859164  1
  Se  Se172  1  0.25552800  0.41067323  0.93610919  1
  Se  Se173  1  0.25691941  0.75253919  0.44683513  1
  Se  Se174  1  0.25414199  0.75038857  0.94531385  1
  Se  Se175  1  0.58003916  0.08200995  0.45077981  1
  Se  Se176  1  0.59175043  0.07708487  0.94078090  1
  Se  Se177  1  0.57903462  0.41934916  0.44511811  1
  Se  Se178  1  0.58484974  0.42020718  0.94344128  1
  Se  Se179  1  0.58389525  0.74339620  0.44268745  1
  Se  Se180  1  0.57916892  0.75494200  0.95673651  1
  Se  Se181  1  0.91948742  0.07521679  0.44043138  1
  Se  Se182  1  0.92419838  0.07601123  0.94174502  1
  Se  Se183  1  0.91854240  0.41525267  0.44892898  1
  Se  Se184  1  0.91331838  0.41982844  0.95210096  1
  Se  Se185  1  0.89767927  0.76210847  0.45061917  1
  Se  Se186  1  0.92190954  0.74547411  0.92792556  1
  Se  Se187  1  0.24534382  0.24995867  0.31249474  1
  Se  Se188  1  0.25180250  0.25049175  0.80123204  1
  Se  Se189  1  0.25214631  0.58671600  0.30722587  1
  Se  Se190  1  0.24225747  0.57582635  0.80862705  1
  Se  Se191  1  0.25240187  0.92205958  0.30018728  1
  Se  Se192  1  0.25034025  0.91687233  0.79943007  1
  Se  Se193  1  0.58229020  0.24921418  0.30199911  1
  Se  Se194  1  0.58419907  0.25535758  0.79645263  1
  Se  Se195  1  0.58780338  0.58823000  0.30365248  1
  Se  Se196  1  0.58109938  0.58330920  0.80598079  1
  Se  Se197  1  0.57472757  0.90675422  0.31355763  1
  Se  Se198  1  0.57973246  0.90714120  0.81819952  1
  Se  Se199  1  0.92025591  0.25650502  0.30288486  1
  Se  Se200  1  0.90816184  0.24563498  0.81141034  1
  Se  Se201  1  0.91082640  0.57450585  0.31369046  1
  Se  Se202  1  0.91691069  0.58368859  0.79698302  1
  Se  Se203  1  0.91651067  0.90397112  0.31211695  1
  Se  Se204  1  0.91172129  0.90526011  0.80093182  1
  Se  Se205  1  0.08499590  0.08896794  0.31342829  1
  Se  Se206  1  0.09042611  0.08643035  0.81010902  1
  Se  Se207  1  0.08094814  0.41971702  0.30910563  1
  Se  Se208  1  0.08751719  0.42583346  0.81222245  1
  Se  Se209  1  0.09114287  0.75555480  0.30953145  1
  Se  Se210  1  0.08815222  0.75151417  0.79325956  1
  Se  Se211  1  0.41201262  0.08229481  0.30008176  1
  Se  Se212  1  0.41994028  0.08300454  0.79932823  1
  Se  Se213  1  0.42257627  0.42464816  0.31082055  1
  Se  Se214  1  0.41510735  0.41590689  0.79837538  1
  Se  Se215  1  0.41320360  0.74627092  0.30198861  1
  Se  Se216  1  0.42354670  0.74901461  0.81992287  1
  Se  Se217  1  0.75733167  0.08921988  0.31188063  1
  Se  Se218  1  0.75864297  0.09046106  0.81035076  1
  Se  Se219  1  0.74357606  0.41358900  0.30581234  1
  Se  Se220  1  0.74811448  0.41852779  0.79931770  1
  Se  Se221  1  0.74747664  0.74376314  0.30499061  1
  Se  Se222  1  0.74779987  0.76011379  0.79589164  1
  Se  Se223  1  0.24640096  0.08424253  0.19972698  1
  Se  Se224  1  0.25432536  0.08139293  0.69132585  1
  Se  Se225  1  0.24541105  0.42721243  0.19073593  1
  Se  Se226  1  0.24771780  0.41486131  0.69853789  1
  Se  Se227  1  0.24878467  0.74529288  0.19591966  1
  Se  Se228  1  0.24378078  0.75386636  0.69142106  1
  Se  Se229  1  0.57375736  0.08675124  0.18772446  1
  Se  Se230  1  0.57714189  0.09011779  0.68920558  1
  Se  Se231  1  0.58753898  0.41606383  0.19971877  1
  Se  Se232  1  0.58575280  0.41546708  0.69060187  1
  Se  Se233  1  0.58446434  0.74928713  0.19595967  1
  Se  Se234  1  0.58110326  0.74284017  0.70640775  1
  Se  Se235  1  0.90614413  0.09238513  0.19124156  1
  Se  Se236  1  0.90871752  0.09585260  0.69742203  1
  Se  Se237  1  0.91630880  0.41723594  0.19979181  1
  Se  Se238  1  0.91574719  0.42775399  0.68544345  1
  Se  Se239  1  0.91015838  0.75152487  0.19113711  1
  Se  Se240  1  0.91334760  0.75108852  0.68961175  1
  Se  Se241  1  0.08288191  0.25625464  0.20100873  1
  Se  Se242  1  0.08790839  0.24428152  0.69259999  1
  Se  Se243  1  0.09094596  0.57456695  0.18938661  1
  Se  Se244  1  0.07855616  0.58693722  0.69227886  1
  Se  Se245  1  0.08328651  0.90615909  0.18746910  1
  Se  Se246  1  0.08576142  0.91081826  0.67667395  1
  Se  Se247  1  0.42523573  0.24880389  0.18395011  1
  Se  Se248  1  0.41325752  0.25619586  0.69087631  1
  Se  Se249  1  0.41538144  0.58462294  0.20081748  1
  Se  Se250  1  0.41913293  0.57417461  0.68961427  1
  Se  Se251  1  0.41243800  0.91593330  0.19912393  1
  Se  Se252  1  0.41716227  0.91622839  0.70480063  1
  Se  Se253  1  0.74239742  0.25327290  0.20019573  1
  Se  Se254  1  0.75315275  0.24898204  0.70243586  1
  Se  Se255  1  0.75003763  0.58389755  0.19822145  1
  Se  Se256  1  0.74427513  0.58559602  0.69050163  1
  Se  Se257  1  0.74823336  0.90424672  0.19127630  1
  Se  Se258  1  0.75430064  0.91533176  0.69334404  1
