# generated using pymatgen
data_In86Cu29Se144
_symmetry_space_group_name_H-M   'P 1'
_cell_length_a   17.57790292
_cell_length_b   17.57915355
_cell_length_c   23.44552791
_cell_angle_alpha   90.01572217
_cell_angle_beta   90.00431587
_cell_angle_gamma   90.02228317
_symmetry_Int_Tables_number   1
_chemical_formula_structural   In86Cu29Se144
_chemical_formula_sum   'In86 Cu29 Se144'
_cell_volume   7244.77641212
_cell_formula_units_Z   1
loop_
 _symmetry_equiv_pos_site_id
 _symmetry_equiv_pos_as_xyz
  1  'x, y, z'
loop_
 _atom_site_type_symbol
 _atom_site_label
 _atom_site_symmetry_multiplicity
 _atom_site_fract_x
 _atom_site_fract_y
 _atom_site_fract_z
 _atom_site_occupancy
  In  In0  1  -0.00210777  0.16358033  0.11864660  1
  In  In1  1  -0.00484490  0.15981392  0.62239228  1
  In  In2  1  0.01205694  0.50919877  0.11687874  1
  In  In3  1  -0.00326677  0.50984532  0.62756625  1
  In  In4  1  0.00149436  0.82163673  0.12539673  1
  In  In5  1  -0.00000455  0.83315719  0.62472391  1
  In  In6  1  0.33468641  0.17484183  0.12386888  1
  In  In7  1  0.33900370  0.16333273  0.61506426  1
  In  In8  1  0.31048129  0.51137446  0.14157022  1
  In  In9  1  0.32817497  0.50637300  0.63460717  1
  In  In10  1  0.31786976  0.83266516  0.12127895  1
  In  In11  1  0.30938678  0.83707765  0.62247749  1
  In  In12  1  0.68442397  0.15981770  0.14227171  1
  In  In13  1  0.65971925  0.15918802  0.61946352  1
  In  In14  1  0.68048969  0.48639779  0.13458192  1
  In  In15  1  0.67034780  0.48894339  0.62099028  1
  In  In16  1  0.66352348  0.83747806  0.13562965  1
  In  In17  1  0.68539088  0.83349969  0.62130989  1
  In  In18  1  0.16787281  0.00165826  0.38807839  1
  In  In19  1  0.15223976  0.01443640  0.89034407  1
  In  In20  1  0.16311993  0.32978043  0.37201904  1
  In  In21  1  0.17046142  0.32325476  0.87970482  1
  In  In22  1  0.17571937  0.67273227  0.36450081  1
  In  In23  1  0.16206516  0.66726121  0.87591825  1
  In  In24  1  0.51541062  0.00206409  0.37570190  1
  In  In25  1  0.50066996  -0.00321414  0.86792740  1
  In  In26  1  0.49433739  0.32607024  0.37062342  1
  In  In27  1  0.48859670  0.34158791  0.87600206  1
  In  In28  1  0.49251525  0.66012383  0.36824464  1
  In  In29  1  0.49567534  0.68064978  0.87548885  1
  In  In30  1  0.81916883  0.01083116  0.38326415  1
  In  In31  1  0.83744903  0.00313019  0.86721049  1
  In  In32  1  0.83357678  0.33802050  0.37770093  1
  In  In33  1  0.83168956  0.33638734  0.88130607  1
  In  In34  1  0.83863367  0.66821379  0.37445920  1
  In  In35  1  0.84491005  0.65250146  0.87618214  1
  In  In36  1  0.00123210  0.16573290  0.38305819  1
  In  In37  1  0.00637347  0.15652725  0.87408307  1
  In  In38  1  -0.00801629  0.49637547  0.37225134  1
  In  In39  1  -0.01079706  0.51424244  0.87802514  1
  In  In40  1  0.00780857  0.82901448  0.37989073  1
  In  In41  1  0.00929955  0.84678506  0.86620933  1
  In  In42  1  0.32307440  0.17302663  0.38618281  1
  In  In43  1  0.28810049  0.16204881  0.86637697  1
  In  In44  1  0.32818941  0.49969875  0.36253453  1
  In  In45  1  0.31783495  0.48817177  0.86933765  1
  In  In46  1  0.33342324  0.82805099  0.37695921  1
  In  In47  1  0.32990309  0.82234505  0.87296081  1
  In  In48  1  0.67239348  0.16599373  0.37327046  1
  In  In49  1  0.67794134  0.16348157  0.87827206  1
  In  In50  1  0.67896314  0.51070116  0.36545554  1
  In  In51  1  0.67695901  0.50607344  0.88215286  1
  In  In52  1  0.67471989  0.84363249  0.36941017  1
  In  In53  1  0.66095356  0.84150108  0.87244325  1
  In  In54  1  0.17238716  -0.00083883  0.10680845  1
  In  In55  1  0.16484688  -0.00957725  0.61670306  1
  In  In56  1  0.17044180  0.33657557  0.11985326  1
  In  In57  1  0.17967741  0.32621267  0.63051851  1
  In  In58  1  0.16509305  0.66630034  0.12424485  1
  In  In59  1  0.15109012  0.67435387  0.63565490  1
  In  In60  1  0.50867242  0.00953275  0.12664818  1
  In  In61  1  0.49540645  0.01876083  0.62444015  1
  In  In62  1  0.49660379  0.33539125  0.13445457  1
  In  In63  1  0.50517922  0.31839781  0.62392745  1
  In  In64  1  0.50138323  0.66357642  0.13296050  1
  In  In65  1  0.49479838  0.65731540  0.62345480  1
  In  In66  1  0.81795521  0.01125315  0.12754531  1
  In  In67  1  0.83528654  -0.00094102  0.62682463  1
  In  In68  1  0.83007552  0.32624647  0.12017486  1
  In  In69  1  0.83791227  0.33177203  0.61600238  1
  In  In70  1  0.84859477  0.65805789  0.13470758  1
  In  In71  1  0.83949608  0.67003460  0.61845362  1
  In  In72  1  0.49792939  0.83694352  0.00421983  1
  In  In73  1  -0.00655070  -0.00357799  0.24548945  1
  In  In74  1  0.49672923  0.16832288  0.00141075  1
  In  In75  1  0.50289143  0.49584394  0.49199251  1
  In  In76  1  0.49572033  0.49861942  0.00549782  1
  In  In77  1  0.00121514  0.33712131  0.25398597  1
  In  In78  1  0.32849066  -0.00289938  0.74669369  1
  In  In79  1  0.83596807  0.83801260  0.00064428  1
  In  In80  1  0.00175931  0.33573408  0.74541389  1
  In  In81  1  0.33925753  -0.00202823  0.24707741  1
  In  In82  1  0.15801470  0.49587837  0.50022491  1
  In  In83  1  0.66427922  0.33319935  0.75674290  1
  In  In84  1  0.66933001  0.66997632  0.75225506  1
  In  In85  1  0.50160062  0.83690314  0.49335277  1
  Cu  Cu86  1  0.67798331  0.66633274  0.49190107  1
  Cu  Cu87  1  0.83813393  0.50229816  0.24940210  1
  Cu  Cu88  1  0.67151459  0.00115476  0.50012655  1
  Cu  Cu89  1  0.16290562  0.83123177  0.74962321  1
  Cu  Cu90  1  0.16623370  0.82843285  0.24814528  1
  Cu  Cu91  1  0.49423423  0.16720269  0.74549140  1
  Cu  Cu92  1  0.83961607  0.83429784  0.74599304  1
  Cu  Cu93  1  0.50145909  0.83605787  0.74885058  1
  Cu  Cu94  1  0.83169827  0.16486168  0.74780614  1
  Cu  Cu95  1  0.67510216  0.32985091  0.49644491  1
  Cu  Cu96  1  0.50293764  0.49667018  0.25216932  1
  Cu  Cu97  1  0.67083751  0.32947650  0.00802803  1
  Cu  Cu98  1  0.49845887  0.82532339  0.25443682  1
  Cu  Cu99  1  0.16967378  0.16644382  0.25465449  1
  Cu  Cu100  1  -0.00017691  0.33335074  -0.00185499  1
  Cu  Cu101  1  -0.00549510  0.00197592  -0.00478098  1
  Cu  Cu102  1  0.32437111  0.65871197  -0.00152630  1
  Cu  Cu103  1  0.32647712  0.33018975  0.00055879  1
  Cu  Cu104  1  0.48958403  0.50383109  0.75330309  1
  Cu  Cu105  1  0.33868723  0.33196139  0.50268652  1
  Cu  Cu106  1  0.00704617  0.66878140  0.00115039  1
  Cu  Cu107  1  0.83236686  0.83359051  0.25318178  1
  Cu  Cu108  1  0.16450486  0.50269053  0.75663138  1
  Cu  Cu109  1  -0.00403670  -0.00524549  0.50276732  1
  Cu  Cu110  1  0.00025723  0.66927361  0.50166518  1
  Cu  Cu111  1  0.32036584  0.67246616  0.50028902  1
  Cu  Cu112  1  0.00182304  0.32487404  0.49912593  1
  Cu  Cu113  1  0.50441045  0.16657711  0.25239090  1
  Cu  Cu114  1  0.67844549  0.66499533  0.00709834  1
  Se  Se115  1  0.08104533  0.08477520  0.04843904  1
  Se  Se116  1  0.08039925  0.08024697  0.55345489  1
  Se  Se117  1  0.08500513  0.41514162  0.05119615  1
  Se  Se118  1  0.07560421  0.40455113  0.56557370  1
  Se  Se119  1  0.08900752  0.75445218  0.05267144  1
  Se  Se120  1  0.08581672  0.75071174  0.55501504  1
  Se  Se121  1  0.40779778  0.07189685  0.05882403  1
  Se  Se122  1  0.42695924  0.08960487  0.54546979  1
  Se  Se123  1  0.40406345  0.41032503  0.06296897  1
  Se  Se124  1  0.41303216  0.41777830  0.56257665  1
  Se  Se125  1  0.41089283  0.73558810  0.05729201  1
  Se  Se126  1  0.41120035  0.74682280  0.55668615  1
  Se  Se127  1  0.74464713  0.09294723  0.05562091  1
  Se  Se128  1  0.75414975  0.08328329  0.55611824  1
  Se  Se129  1  0.75485699  0.42037457  0.05287695  1
  Se  Se130  1  0.75450407  0.41722521  0.54906218  1
  Se  Se131  1  0.75170985  0.74975474  0.06699347  1
  Se  Se132  1  0.75637778  0.75037003  0.54782935  1
  Se  Se133  1  0.24483064  0.24286854  0.05249941  1
  Se  Se134  1  0.24965979  0.25036593  0.55210235  1
  Se  Se135  1  0.24524370  0.57685138  0.05586480  1
  Se  Se136  1  0.24572393  0.58845178  0.56109716  1
  Se  Se137  1  0.25400404  0.91185001  0.04395658  1
  Se  Se138  1  0.25930471  0.92586708  0.54590247  1
  Se  Se139  1  0.58527419  0.25356498  0.06509031  1
  Se  Se140  1  0.58735328  0.25018993  0.54913901  1
  Se  Se141  1  0.59327846  0.58455130  0.06258315  1
  Se  Se142  1  0.59358194  0.58998883  0.55268161  1
  Se  Se143  1  0.59587039  0.92552800  0.05688232  1
  Se  Se144  1  0.58864438  0.92165142  0.56063703  1
  Se  Se145  1  0.91664472  0.24872797  0.05136584  1
  Se  Se146  1  0.91553310  0.24240915  0.55078509  1
  Se  Se147  1  0.91816114  0.58809204  0.05248941  1
  Se  Se148  1  0.91799015  0.58010797  0.55043121  1
  Se  Se149  1  0.92222648  0.92762132  0.06587676  1
  Se  Se150  1  0.91244251  0.91226428  0.55663010  1
  Se  Se151  1  0.09111402  0.24817143  0.44661244  1
  Se  Se152  1  0.07980974  0.24575622  0.94481077  1
  Se  Se153  1  0.07877726  0.59079991  0.43767574  1
  Se  Se154  1  0.08500842  0.58111334  0.94680506  1
  Se  Se155  1  0.08370017  0.91402437  0.45075579  1
  Se  Se156  1  0.07968680  0.91223064  0.95021212  1
  Se  Se157  1  0.42141938  0.24996571  0.44811418  1
  Se  Se158  1  0.40375605  0.25045418  0.93812806  1
  Se  Se159  1  0.40118512  0.58784213  0.44351730  1
  Se  Se160  1  0.41122396  0.58565091  0.93795860  1
  Se  Se161  1  0.41046883  0.92896237  0.43818990  1
  Se  Se162  1  0.41081821  0.92078189  0.93806754  1
  Se  Se163  1  0.75809205  0.24552291  0.44407490  1
  Se  Se164  1  0.75075649  0.25035116  0.94844745  1
  Se  Se165  1  0.75981508  0.57768248  0.44321914  1
  Se  Se166  1  0.76003929  0.58380188  0.95194850  1
  Se  Se167  1  0.75119448  0.91138582  0.44946857  1
  Se  Se168  1  0.74428577  0.92575788  0.94135997  1
  Se  Se169  1  0.24926549  0.08511730  0.45332764  1
  Se  Se170  1  0.25763697  0.07772013  0.95130508  1
  Se  Se171  1  0.25836828  0.41316816  0.44272751  1
  Se  Se172  1  0.24459767  0.41663251  0.94824544  1
  Se  Se173  1  0.24094192  0.75411148  0.44410732  1
  Se  Se174  1  0.24747942  0.74855568  0.94621104  1
  Se  Se175  1  0.58967002  0.08606741  0.44705127  1
  Se  Se176  1  0.58523009  0.07609582  0.94126097  1
  Se  Se177  1  0.59631739  0.41010464  0.43400567  1
  Se  Se178  1  0.59111968  0.40859349  0.94500643  1
  Se  Se179  1  0.58818953  0.74084748  0.43543751  1
  Se  Se180  1  0.59597891  0.74336421  0.94742394  1
  Se  Se181  1  0.91674885  0.08124959  0.44828419  1
  Se  Se182  1  0.91178100  0.08464220  0.94173571  1
  Se  Se183  1  0.92278560  0.41421013  0.44754018  1
  Se  Se184  1  0.91728400  0.41967370  0.94611784  1
  Se  Se185  1  0.91698067  0.75155920  0.44648662  1
  Se  Se186  1  0.92628203  0.74981860  0.93982565  1
  Se  Se187  1  0.25289256  0.24954429  0.30653440  1
  Se  Se188  1  0.25145244  0.26628381  0.79701802  1
  Se  Se189  1  0.25045118  0.58530487  0.29677668  1
  Se  Se190  1  0.25024621  0.58878748  0.80595827  1
  Se  Se191  1  0.24205997  0.91499178  0.30785318  1
  Se  Se192  1  0.24014447  0.91328830  0.81173291  1
  Se  Se193  1  0.58722393  0.25053073  0.30547757  1
  Se  Se194  1  0.57182385  0.24145148  0.81358555  1
  Se  Se195  1  0.58404409  0.58591029  0.30173276  1
  Se  Se196  1  0.57598717  0.57764651  0.81331514  1
  Se  Se197  1  0.58128814  0.91516139  0.30137945  1
  Se  Se198  1  0.58636643  0.92061170  0.79738313  1
  Se  Se199  1  0.91375752  0.24199517  0.30987453  1
  Se  Se200  1  0.90967566  0.24737584  0.80809773  1
  Se  Se201  1  0.92076113  0.58590994  0.30261779  1
  Se  Se202  1  0.91826472  0.58495089  0.79700999  1
  Se  Se203  1  0.91100111  0.91398608  0.31500044  1
  Se  Se204  1  0.92047079  0.92204212  0.79824601  1
  Se  Se205  1  0.08770162  0.08269895  0.30926756  1
  Se  Se206  1  0.09183274  0.08118477  0.80479807  1
  Se  Se207  1  0.09664965  0.43092397  0.30498851  1
  Se  Se208  1  0.08367981  0.42084860  0.81506099  1
  Se  Se209  1  0.07934924  0.75078429  0.30236653  1
  Se  Se210  1  0.07976536  0.74720635  0.80353122  1
  Se  Se211  1  0.41991207  0.08895366  0.31242973  1
  Se  Se212  1  0.41200749  0.09313077  0.80998627  1
  Se  Se213  1  0.41664845  0.41338479  0.30250348  1
  Se  Se214  1  0.40924857  0.41325329  0.80091218  1
  Se  Se215  1  0.40838991  0.74684117  0.30363680  1
  Se  Se216  1  0.41714768  0.75198851  0.79942592  1
  Se  Se217  1  0.74644310  0.07711305  0.30330023  1
  Se  Se218  1  0.74599448  0.08315575  0.80100281  1
  Se  Se219  1  0.75698662  0.41624612  0.30235318  1
  Se  Se220  1  0.75817518  0.42858878  0.80673479  1
  Se  Se221  1  0.75008443  0.74800277  0.30598440  1
  Se  Se222  1  0.76170441  0.75853668  0.81294061  1
  Se  Se223  1  0.24166257  0.08416975  0.18986618  1
  Se  Se224  1  0.24481204  0.08715205  0.68447157  1
  Se  Se225  1  0.25638258  0.39715049  0.19652677  1
  Se  Se226  1  0.24524532  0.42091959  0.69959172  1
  Se  Se227  1  0.25187129  0.74721272  0.19525275  1
  Se  Se228  1  0.24993104  0.74871687  0.69846938  1
  Se  Se229  1  0.58723270  0.07992111  0.20243177  1
  Se  Se230  1  0.58396497  0.08513025  0.69799924  1
  Se  Se231  1  0.58686131  0.41296453  0.20028387  1
  Se  Se232  1  0.57239880  0.42427246  0.69389281  1
  Se  Se233  1  0.58557308  0.74619309  0.20000304  1
  Se  Se234  1  0.57986514  0.75522125  0.68608611  1
  Se  Se235  1  0.90717559  0.09748893  0.19546896  1
  Se  Se236  1  0.91776010  0.08191814  0.69711932  1
  Se  Se237  1  0.91683156  0.42265133  0.18630294  1
  Se  Se238  1  0.90355491  0.42318679  0.69169700  1
  Se  Se239  1  0.92015523  0.75308667  0.20157060  1
  Se  Se240  1  0.91793429  0.74650364  0.69327902  1
  Se  Se241  1  0.08632708  0.24152273  0.19234721  1
  Se  Se242  1  0.08919310  0.23827874  0.69286946  1
  Se  Se243  1  0.07589296  0.59226774  0.19331310  1
  Se  Se244  1  0.07825687  0.58145888  0.70228967  1
  Se  Se245  1  0.09492803  0.91581039  0.18713257  1
  Se  Se246  1  0.08540420  0.91628818  0.69253377  1
  Se  Se247  1  0.41594000  0.24473249  0.19929124  1
  Se  Se248  1  0.41201796  0.24848902  0.69098230  1
  Se  Se249  1  0.41804059  0.57924198  0.19873384  1
  Se  Se250  1  0.41241934  0.59217635  0.70025827  1
  Se  Se251  1  0.42626449  0.90441363  0.18602989  1
  Se  Se252  1  0.42095542  0.90965366  0.68395205  1
  Se  Se253  1  0.74511078  0.26865732  0.19919288  1
  Se  Se254  1  0.75167394  0.24844360  0.68993695  1
  Se  Se255  1  0.75044745  0.58603452  0.19846273  1
  Se  Se256  1  0.75110224  0.57997219  0.68780856  1
  Se  Se257  1  0.75238691  0.91960394  0.19954910  1
  Se  Se258  1  0.75056685  0.91664451  0.69763002  1
