# generated using pymatgen
data_In86Cu29Se144
_symmetry_space_group_name_H-M   'P 1'
_cell_length_a   17.62885364
_cell_length_b   17.64447526
_cell_length_c   23.49172333
_cell_angle_alpha   90.01162614
_cell_angle_beta   90.01645975
_cell_angle_gamma   90.03028689
_symmetry_Int_Tables_number   1
_chemical_formula_structural   In86Cu29Se144
_chemical_formula_sum   'In86 Cu29 Se144'
_cell_volume   7307.14304371
_cell_formula_units_Z   1
loop_
 _symmetry_equiv_pos_site_id
 _symmetry_equiv_pos_as_xyz
  1  'x, y, z'
loop_
 _atom_site_type_symbol
 _atom_site_label
 _atom_site_symmetry_multiplicity
 _atom_site_fract_x
 _atom_site_fract_y
 _atom_site_fract_z
 _atom_site_occupancy
  In  In0  1  -0.01825844  0.16860379  0.12425824  1
  In  In1  1  0.00303536  0.16084623  0.62710803  1
  In  In2  1  0.00843447  0.50468450  0.11014547  1
  In  In3  1  -0.01533531  0.50483096  0.64102882  1
  In  In4  1  -0.00543908  0.83661299  0.11816124  1
  In  In5  1  -0.05427904  0.86555640  0.67602513  1
  In  In6  1  0.34809352  0.16395367  0.12847448  1
  In  In7  1  0.32304719  0.15766335  0.61612044  1
  In  In8  1  0.34186075  0.51031132  0.11810088  1
  In  In9  1  0.32507054  0.50426097  0.62429257  1
  In  In10  1  0.31607118  0.83637534  0.11872686  1
  In  In11  1  0.34692554  0.83491371  0.62581932  1
  In  In12  1  0.67992946  0.15396374  0.14607025  1
  In  In13  1  0.66576205  0.16927294  0.62087584  1
  In  In14  1  0.67375473  0.50326524  0.11788386  1
  In  In15  1  0.72797640  0.46112520  0.68224036  1
  In  In16  1  0.67930921  0.82833661  0.12336761  1
  In  In17  1  0.67416559  0.83832119  0.63854173  1
  In  In18  1  0.16768297  0.00337997  0.37648057  1
  In  In19  1  0.16245736  -0.00580501  0.87418562  1
  In  In20  1  0.15318370  0.32511927  0.37793826  1
  In  In21  1  0.14992237  0.34900579  0.87955149  1
  In  In22  1  0.15876419  0.65875976  0.36118053  1
  In  In23  1  0.15444739  0.67972257  0.88989302  1
  In  In24  1  0.51354051  0.00590697  0.37596745  1
  In  In25  1  0.51036443  -0.00102905  0.86626401  1
  In  In26  1  0.51023563  0.31901443  0.37641131  1
  In  In27  1  0.51307876  0.33265665  0.87438370  1
  In  In28  1  0.50860803  0.66957466  0.36151394  1
  In  In29  1  0.50214792  0.65481897  0.88531553  1
  In  In30  1  0.84265630  0.00304815  0.37404776  1
  In  In31  1  0.83212550  -0.00446315  0.87020002  1
  In  In32  1  0.80696834  0.32268200  0.36904032  1
  In  In33  1  0.82890059  0.33658356  0.86684332  1
  In  In34  1  0.83077474  0.65876125  0.35837443  1
  In  In35  1  0.83304335  0.66770005  0.87148106  1
  In  In36  1  0.00876618  0.15728733  0.38615421  1
  In  In37  1  -0.02832872  0.14972971  0.84922722  1
  In  In38  1  -0.01375249  0.49747538  0.37212701  1
  In  In39  1  -0.01089431  0.51091315  0.87089958  1
  In  In40  1  -0.00651235  0.82851089  0.36603957  1
  In  In41  1  -0.00274227  0.83621198  0.87508920  1
  In  In42  1  0.33295137  0.16259845  0.38280679  1
  In  In43  1  0.33971161  0.16073352  0.87005069  1
  In  In44  1  0.32689600  0.50377032  0.36269167  1
  In  In45  1  0.32657643  0.50213485  0.88867622  1
  In  In46  1  0.34271109  0.82919234  0.36679502  1
  In  In47  1  0.32473909  0.83798177  0.88189992  1
  In  In48  1  0.67159908  0.16489382  0.38169936  1
  In  In49  1  0.67714645  0.16853814  0.86269328  1
  In  In50  1  0.67483192  0.49077949  0.36300995  1
  In  In51  1  0.66645731  0.50240722  0.87720134  1
  In  In52  1  0.67337727  0.83598028  0.36683393  1
  In  In53  1  0.68860629  0.83982584  0.85693711  1
  In  In54  1  0.16308407  -0.01577505  0.11582477  1
  In  In55  1  0.15378675  0.00880955  0.63537465  1
  In  In56  1  0.14892866  0.32938516  0.11765293  1
  In  In57  1  0.16733907  0.32567633  0.62401071  1
  In  In58  1  0.16118832  0.66983087  0.11959420  1
  In  In59  1  0.15412236  0.66511730  0.62091722  1
  In  In60  1  0.52050781  0.00918920  0.12383614  1
  In  In61  1  0.48899007  0.00225582  0.62992742  1
  In  In62  1  0.50885719  0.34129510  0.12290878  1
  In  In63  1  0.51962873  0.33013605  0.62631401  1
  In  In64  1  0.51846979  0.65719351  0.12844664  1
  In  In65  1  0.51047654  0.67105824  0.61995760  1
  In  In66  1  0.83168300  0.00491811  0.12371554  1
  In  In67  1  0.79932002  0.03947384  0.67801101  1
  In  In68  1  0.82386196  0.32281345  0.11697393  1
  In  In69  1  0.86624397  0.29259218  0.67228342  1
  In  In70  1  0.83365946  0.66631842  0.11823744  1
  In  In71  1  0.82889131  0.66697445  0.64427363  1
  In  In72  1  0.50393606  0.83825926  0.49261220  1
  In  In73  1  0.50637548  0.83167011  0.00324114  1
  In  In74  1  0.16058776  0.83357746  0.50397455  1
  In  In75  1  0.15962667  0.17202290  -0.01168104  1
  In  In76  1  -0.01020747  0.33864741  0.24792456  1
  In  In77  1  0.82894615  0.48756544  0.50566809  1
  In  In78  1  0.33431517  0.67192828  0.75551603  1
  In  In79  1  0.15924835  0.48700943  0.49657043  1
  In  In80  1  0.50479665  0.50138717  0.50489356  1
  In  In81  1  0.33419717  -0.00272857  0.24903701  1
  In  In82  1  0.33665773  0.33762501  0.24340169  1
  In  In83  1  0.33539677  0.32962328  0.74714173  1
  In  In84  1  0.51028411  0.16502683  -0.00374641  1
  In  In85  1  0.83880127  0.83949896  0.50910894  1
  Cu  Cu86  1  -0.00614807  0.00613186  -0.00802815  1
  Cu  Cu87  1  0.67303501  0.66754604  -0.00134959  1
  Cu  Cu88  1  0.51089716  0.49841650  0.24336565  1
  Cu  Cu89  1  -0.01027810  0.32474886  0.51091284  1
  Cu  Cu90  1  0.49778621  0.49981837  0.75453952  1
  Cu  Cu91  1  -0.00212590  0.66978639  -0.00386911  1
  Cu  Cu92  1  0.83239554  0.83512526  0.24215438  1
  Cu  Cu93  1  0.33094956  0.33284711  0.00402924  1
  Cu  Cu94  1  -0.00708439  0.66929188  0.50187262  1
  Cu  Cu95  1  0.50123052  0.83817949  0.75351418  1
  Cu  Cu96  1  0.17157619  0.83333455  0.75630926  1
  Cu  Cu97  1  0.33189085  0.66653519  0.00462572  1
  Cu  Cu98  1  0.67368745  0.00557360  0.51021250  1
  Cu  Cu99  1  0.66917052  0.33461608  -0.00565635  1
  Cu  Cu100  1  0.83361681  0.16100594  0.25326210  1
  Cu  Cu101  1  0.67386141  0.32992851  0.50675167  1
  Cu  Cu102  1  0.16671083  0.50579255  0.24004443  1
  Cu  Cu103  1  -0.00363415  0.00380782  0.50693736  1
  Cu  Cu104  1  0.16562776  0.15929819  0.25521242  1
  Cu  Cu105  1  0.33080707  0.66587807  0.48520470  1
  Cu  Cu106  1  0.15709972  0.82849853  0.23928043  1
  Cu  Cu107  1  0.49611585  0.83164258  0.24386629  1
  Cu  Cu108  1  0.33922926  0.32658794  0.49954552  1
  Cu  Cu109  1  -0.01301382  0.33275698  -0.00877311  1
  Cu  Cu110  1  0.16983616  0.17234139  0.74801248  1
  Cu  Cu111  1  0.32614215  0.00737448  0.50330653  1
  Cu  Cu112  1  0.50214065  0.15900110  0.74755310  1
  Cu  Cu113  1  0.67166401  0.65847594  0.50336912  1
  Cu  Cu114  1  0.15923431  0.50511167  0.76064487  1
  Se  Se115  1  0.07491466  0.08398233  0.05581768  1
  Se  Se116  1  0.08783250  0.08442861  0.55445437  1
  Se  Se117  1  0.07937871  0.40898597  0.04226550  1
  Se  Se118  1  0.06525968  0.41524498  0.56623889  1
  Se  Se119  1  0.08046630  0.75355993  0.05066616  1
  Se  Se120  1  0.06428575  0.75314553  0.56281329  1
  Se  Se121  1  0.41671084  0.07473494  0.05518209  1
  Se  Se122  1  0.41985508  0.08305511  0.55295210  1
  Se  Se123  1  0.41727248  0.41361697  0.05576482  1
  Se  Se124  1  0.40869181  0.41033609  0.56224928  1
  Se  Se125  1  0.41598967  0.74347157  0.06465366  1
  Se  Se126  1  0.41034506  0.74113921  0.54853123  1
  Se  Se127  1  0.75131194  0.09855871  0.06176643  1
  Se  Se128  1  0.75964533  0.07260601  0.57294650  1
  Se  Se129  1  0.75294211  0.41602642  0.04912371  1
  Se  Se130  1  0.74215602  0.41104532  0.57209643  1
  Se  Se131  1  0.75634208  0.75422470  0.04745065  1
  Se  Se132  1  0.74625537  0.74295722  0.56356808  1
  Se  Se133  1  0.25499145  0.24739636  0.06136359  1
  Se  Se134  1  0.24749773  0.25135776  0.55108520  1
  Se  Se135  1  0.24537260  0.58162719  0.05386786  1
  Se  Se136  1  0.25083116  0.59018550  0.54793570  1
  Se  Se137  1  0.25552231  0.92442377  0.04502430  1
  Se  Se138  1  0.25428973  0.92116753  0.56348266  1
  Se  Se139  1  0.59593158  0.25287426  0.05883138  1
  Se  Se140  1  0.58069630  0.24635679  0.54847995  1
  Se  Se141  1  0.58607131  0.58316834  0.04787562  1
  Se  Se142  1  0.60019476  0.57806316  0.56657761  1
  Se  Se143  1  0.60051125  0.92576671  0.05415191  1
  Se  Se144  1  0.59110239  0.91776090  0.56216370  1
  Se  Se145  1  0.91181787  0.24617744  0.04744394  1
  Se  Se146  1  0.90843787  0.24930881  0.57111012  1
  Se  Se147  1  0.91581208  0.58397597  0.04764260  1
  Se  Se148  1  0.91274353  0.59065265  0.56256225  1
  Se  Se149  1  0.91427756  0.92532804  0.05199219  1
  Se  Se150  1  0.92341586  0.92498789  0.57112206  1
  Se  Se151  1  0.08044381  0.25071143  0.45505876  1
  Se  Se152  1  0.05943938  0.24737478  0.92841441  1
  Se  Se153  1  0.07266559  0.58854546  0.44259159  1
  Se  Se154  1  0.07874728  0.57858179  0.94596830  1
  Se  Se155  1  0.06934799  0.92110179  0.44161204  1
  Se  Se156  1  0.08004463  0.91890909  0.94626352  1
  Se  Se157  1  0.42198512  0.24575488  0.44555847  1
  Se  Se158  1  0.41106425  0.25683068  0.94123072  1
  Se  Se159  1  0.41725710  0.58514226  0.43363294  1
  Se  Se160  1  0.41516533  0.58074436  0.95464739  1
  Se  Se161  1  0.40407648  0.92812257  0.43990035  1
  Se  Se162  1  0.42208984  0.92408487  0.94040952  1
  Se  Se163  1  0.75615322  0.24531659  0.45356139  1
  Se  Se164  1  0.74874772  0.25198744  0.93718652  1
  Se  Se165  1  0.74938483  0.58387012  0.43934070  1
  Se  Se166  1  0.75405150  0.58363192  0.94295409  1
  Se  Se167  1  0.74356835  0.92161978  0.44516381  1
  Se  Se168  1  0.75682702  0.90603579  0.93859128  1
  Se  Se169  1  0.24148676  0.08675400  0.44858603  1
  Se  Se170  1  0.25792509  0.07923085  0.94156021  1
  Se  Se171  1  0.26138185  0.40652831  0.43666664  1
  Se  Se172  1  0.24428420  0.41158882  0.95052740  1
  Se  Se173  1  0.24632231  0.74758228  0.43286395  1
  Se  Se174  1  0.25157812  0.75321893  0.95290732  1
  Se  Se175  1  0.58866814  0.08123833  0.45176504  1
  Se  Se176  1  0.59941875  0.07733725  0.93595558  1
  Se  Se177  1  0.59646824  0.41325317  0.44390458  1
  Se  Se178  1  0.58149244  0.41888570  0.94667378  1
  Se  Se179  1  0.59556692  0.73993421  0.44109777  1
  Se  Se180  1  0.59502177  0.74967094  0.93766560  1
  Se  Se181  1  0.91271731  0.08393825  0.45077150  1
  Se  Se182  1  0.91042514  0.08731189  0.93794255  1
  Se  Se183  1  0.91902261  0.40070574  0.44196543  1
  Se  Se184  1  0.90971601  0.41995671  0.93668385  1
  Se  Se185  1  0.91190166  0.74275928  0.43887862  1
  Se  Se186  1  0.91413063  0.75127844  0.94170250  1
  Se  Se187  1  0.24618473  0.24654298  0.30803298  1
  Se  Se188  1  0.24213746  0.25216661  0.81395652  1
  Se  Se189  1  0.25184962  0.58761662  0.29307087  1
  Se  Se190  1  0.24329878  0.58447755  0.81603281  1
  Se  Se191  1  0.23790592  0.90445976  0.30498879  1
  Se  Se192  1  0.25447529  0.91856109  0.80594092  1
  Se  Se193  1  0.61424177  0.26702954  0.31261282  1
  Se  Se194  1  0.57929883  0.24656663  0.80133766  1
  Se  Se195  1  0.59222489  0.58058012  0.30032653  1
  Se  Se196  1  0.57808627  0.58317205  0.80857539  1
  Se  Se197  1  0.57476842  0.91062396  0.30602574  1
  Se  Se198  1  0.59419058  0.92076897  0.79630875  1
  Se  Se199  1  0.91616476  0.24142746  0.31461992  1
  Se  Se200  1  0.90837000  0.25793785  0.79140237  1
  Se  Se201  1  0.93056605  0.58847538  0.29894945  1
  Se  Se202  1  0.92918470  0.60665551  0.79859742  1
  Se  Se203  1  0.91315746  0.91582973  0.30152453  1
  Se  Se204  1  0.92727544  0.92329292  0.80226770  1
  Se  Se205  1  0.08022092  0.07918059  0.30780416  1
  Se  Se206  1  0.09232088  0.08791401  0.80551004  1
  Se  Se207  1  0.09272403  0.42417524  0.30520910  1
  Se  Se208  1  0.07070568  0.41955504  0.80378450  1
  Se  Se209  1  0.07734797  0.74737952  0.29856190  1
  Se  Se210  1  0.08754725  0.75258208  0.80949189  1
  Se  Se211  1  0.42099221  0.08950045  0.30908123  1
  Se  Se212  1  0.41829110  0.07846432  0.80130546  1
  Se  Se213  1  0.43072936  0.42147367  0.30787295  1
  Se  Se214  1  0.41381565  0.42377383  0.81238361  1
  Se  Se215  1  0.41546461  0.74476367  0.29591861  1
  Se  Se216  1  0.42566812  0.75753388  0.81682771  1
  Se  Se217  1  0.75023919  0.08031320  0.31001617  1
  Se  Se218  1  0.75274249  0.07741773  0.79522084  1
  Se  Se219  1  0.78866492  0.43908016  0.30583606  1
  Se  Se220  1  0.73541408  0.41576224  0.80309810  1
  Se  Se221  1  0.74973052  0.75154886  0.29777675  1
  Se  Se222  1  0.73476645  0.72437976  0.79759529  1
  Se  Se223  1  0.24302310  0.08686815  0.18817216  1
  Se  Se224  1  0.25181870  0.08619084  0.69649985  1
  Se  Se225  1  0.24011904  0.41812734  0.18210103  1
  Se  Se226  1  0.23864336  0.42761261  0.69654741  1
  Se  Se227  1  0.24720176  0.74921255  0.19070924  1
  Se  Se228  1  0.24492511  0.75425509  0.68828795  1
  Se  Se229  1  0.57478522  0.08868580  0.20475235  1
  Se  Se230  1  0.58483082  0.08035775  0.68990141  1
  Se  Se231  1  0.59543745  0.41762291  0.19105217  1
  Se  Se232  1  0.57969906  0.42619784  0.69445744  1
  Se  Se233  1  0.58703680  0.75514431  0.19243705  1
  Se  Se234  1  0.57641688  0.75562163  0.69425509  1
  Se  Se235  1  0.91740399  0.08126251  0.19792654  1
  Se  Se236  1  0.93714379  0.07654571  0.70398721  1
  Se  Se237  1  0.91417960  0.42063207  0.17637915  1
  Se  Se238  1  0.88274332  0.43684045  0.70188349  1
  Se  Se239  1  0.91479216  0.75258644  0.18788275  1
  Se  Se240  1  0.93549765  0.72289710  0.70675159  1
  Se  Se241  1  0.08517090  0.24102834  0.19563599  1
  Se  Se242  1  0.08430454  0.25280789  0.69511352  1
  Se  Se243  1  0.07899335  0.58383177  0.18778422  1
  Se  Se244  1  0.08616745  0.58317712  0.69612115  1
  Se  Se245  1  0.07845474  0.91844967  0.19036468  1
  Se  Se246  1  0.08802555  0.90571845  0.69541226  1
  Se  Se247  1  0.43472393  0.24507421  0.19622832  1
  Se  Se248  1  0.42265272  0.24069696  0.68599623  1
  Se  Se249  1  0.42337753  0.58057706  0.19355956  1
  Se  Se250  1  0.42053730  0.58062666  0.69106454  1
  Se  Se251  1  0.42149924  0.91329587  0.18258143  1
  Se  Se252  1  0.41290278  0.91707745  0.70146955  1
  Se  Se253  1  0.75834103  0.25457937  0.20271420  1
  Se  Se254  1  0.72532428  0.26393911  0.69394684  1
  Se  Se255  1  0.73718237  0.60049658  0.18594133  1
  Se  Se256  1  0.72487146  0.60744987  0.70690135  1
  Se  Se257  1  0.74810863  0.92139262  0.19313493  1
  Se  Se258  1  0.78621684  0.89243839  0.69680412  1
