# generated using pymatgen
data_In86Cu29Se144
_symmetry_space_group_name_H-M   'P 1'
_cell_length_a   17.58353692
_cell_length_b   17.57994659
_cell_length_c   23.43985547
_cell_angle_alpha   90.01622120
_cell_angle_beta   89.99135838
_cell_angle_gamma   90.00981433
_symmetry_Int_Tables_number   1
_chemical_formula_structural   In86Cu29Se144
_chemical_formula_sum   'In86 Cu29 Se144'
_cell_volume   7245.67232777
_cell_formula_units_Z   1
loop_
 _symmetry_equiv_pos_site_id
 _symmetry_equiv_pos_as_xyz
  1  'x, y, z'
loop_
 _atom_site_type_symbol
 _atom_site_label
 _atom_site_symmetry_multiplicity
 _atom_site_fract_x
 _atom_site_fract_y
 _atom_site_fract_z
 _atom_site_occupancy
  In  In0  1  -0.00150550  0.17565896  0.14246469  1
  In  In1  1  -0.00323875  0.16307119  0.61963363  1
  In  In2  1  -0.01125153  0.50541988  0.14627648  1
  In  In3  1  -0.02086446  0.50665829  0.61721678  1
  In  In4  1  -0.01046104  0.83458685  0.13775201  1
  In  In5  1  0.01661931  0.83924379  0.61243981  1
  In  In6  1  0.34318774  0.16348812  0.13100398  1
  In  In7  1  0.32579157  0.16978767  0.60639997  1
  In  In8  1  0.33228745  0.48833770  0.12817879  1
  In  In9  1  0.35035345  0.49336848  0.62331799  1
  In  In10  1  0.34278943  0.82278317  0.12606441  1
  In  In11  1  0.32601388  0.82286502  0.62144982  1
  In  In12  1  0.65239359  0.16767711  0.12844664  1
  In  In13  1  0.66322643  0.16383544  0.62260786  1
  In  In14  1  0.67854776  0.50622664  0.11164477  1
  In  In15  1  0.67223467  0.50399466  0.62120588  1
  In  In16  1  0.66325390  0.83541822  0.13206592  1
  In  In17  1  0.65862527  0.83954040  0.62777608  1
  In  In18  1  0.12963918  0.02272732  0.40825212  1
  In  In19  1  0.15783328  0.01203809  0.87277719  1
  In  In20  1  0.15877650  0.31398765  0.36096421  1
  In  In21  1  0.15689716  0.34082651  0.86967159  1
  In  In22  1  0.15533829  0.68467498  0.38391310  1
  In  In23  1  0.17096889  0.65012937  0.86811654  1
  In  In24  1  0.50451296  -0.00273381  0.38052785  1
  In  In25  1  0.50861821  -0.01041296  0.87859500  1
  In  In26  1  0.49394578  0.33971876  0.38281674  1
  In  In27  1  0.50740578  0.32970306  0.88971230  1
  In  In28  1  0.50913951  0.66012890  0.38184852  1
  In  In29  1  0.50603694  0.66859147  0.87240964  1
  In  In30  1  0.84482357  0.01156115  0.37204339  1
  In  In31  1  0.83145742  0.00589526  0.85545386  1
  In  In32  1  0.83447034  0.32672317  0.38041675  1
  In  In33  1  0.84678119  0.33469498  0.87635069  1
  In  In34  1  0.82669167  0.65627121  0.36524023  1
  In  In35  1  0.82217015  0.66966679  0.87339908  1
  In  In36  1  -0.00434690  0.16335958  0.38191145  1
  In  In37  1  -0.01362105  0.16751015  0.85782028  1
  In  In38  1  -0.01301083  0.49505116  0.37041356  1
  In  In39  1  0.00049678  0.48819696  0.87512559  1
  In  In40  1  0.00147423  0.84229186  0.37491132  1
  In  In41  1  -0.01410002  0.83798023  0.87329214  1
  In  In42  1  0.32146433  0.18546278  0.39089646  1
  In  In43  1  0.33599361  0.17646909  0.87312764  1
  In  In44  1  0.34868940  0.49825337  0.37406003  1
  In  In45  1  0.33964556  0.51236454  0.86714072  1
  In  In46  1  0.32875519  0.83690017  0.38441619  1
  In  In47  1  0.35360670  0.83771137  0.87119031  1
  In  In48  1  0.67618108  0.16050219  0.38227042  1
  In  In49  1  0.66644445  0.15554148  0.87162892  1
  In  In50  1  0.66597651  0.50019380  0.37513117  1
  In  In51  1  0.65562830  0.50851260  0.88433777  1
  In  In52  1  0.65950984  0.82646712  0.37176940  1
  In  In53  1  0.66607060  0.82575786  0.86506574  1
  In  In54  1  0.15965551  0.00079838  0.13186096  1
  In  In55  1  0.15939121  -0.00177777  0.61309430  1
  In  In56  1  0.15892202  0.33834144  0.14578549  1
  In  In57  1  0.16299829  0.30478873  0.61015682  1
  In  In58  1  0.16968687  0.65577757  0.13148337  1
  In  In59  1  0.16507485  0.68183868  0.61902903  1
  In  In60  1  0.51097209  0.00326069  0.12553034  1
  In  In61  1  0.51057856  0.00690958  0.62038652  1
  In  In62  1  0.50338451  0.32583440  0.11829312  1
  In  In63  1  0.49024421  0.33439684  0.61053010  1
  In  In64  1  0.50905561  0.67315034  0.12058809  1
  In  In65  1  0.50230367  0.66349481  0.62689957  1
  In  In66  1  0.83196062  -0.00096944  0.13713007  1
  In  In67  1  0.83203748  0.00858554  0.62524765  1
  In  In68  1  0.83020436  0.35909930  0.13332169  1
  In  In69  1  0.84103532  0.34023520  0.61880436  1
  In  In70  1  0.83651267  0.65233879  0.14039607  1
  In  In71  1  0.83174196  0.65307860  0.62148957  1
  In  In72  1  0.17358901  0.49358627  0.00075931  1
  In  In73  1  0.82382006  0.17364576  -0.00018051  1
  In  In74  1  0.16933004  0.49648646  0.49215592  1
  In  In75  1  0.32589375  0.00711315  0.26049080  1
  In  In76  1  0.17520507  0.83021602  0.00656071  1
  In  In77  1  0.33195018  -0.00434971  0.74226626  1
  In  In78  1  0.16986307  0.17145945  -0.00141547  1
  In  In79  1  0.83707091  0.83745293  0.50060535  1
  In  In80  1  0.33079692  0.66671079  0.25371871  1
  In  In81  1  0.67162075  0.33461344  0.74865766  1
  In  In82  1  0.82249523  0.83136767  -0.00264073  1
  In  In83  1  -0.00223657  0.67379196  0.74067759  1
  In  In84  1  0.66744476  0.33174135  0.24789679  1
  In  In85  1  0.33032888  0.33527552  0.74406679  1
  Cu  Cu86  1  0.15828358  0.84413121  0.25841664  1
  Cu  Cu87  1  0.16602929  0.83387612  0.74352454  1
  Cu  Cu88  1  0.50615765  0.50202256  0.75040057  1
  Cu  Cu89  1  0.66747021  0.33550680  0.50079436  1
  Cu  Cu90  1  -0.00437000  0.33763868  0.00363784  1
  Cu  Cu91  1  0.66594306  0.66841397  -0.00256570  1
  Cu  Cu92  1  0.49894429  0.16808877  0.25133987  1
  Cu  Cu93  1  -0.00530283  0.00466553  -0.00074856  1
  Cu  Cu94  1  0.83427208  0.84186491  0.74292417  1
  Cu  Cu95  1  0.35045227  0.00318821  0.00443073  1
  Cu  Cu96  1  0.66852211  -0.00246002  0.50124185  1
  Cu  Cu97  1  0.66209963  0.66449231  0.49673065  1
  Cu  Cu98  1  0.34678455  0.67213020  -0.00606836  1
  Cu  Cu99  1  0.33933841  0.32934022  0.00551076  1
  Cu  Cu100  1  0.82826554  0.83142502  0.25686839  1
  Cu  Cu101  1  -0.00028768  0.33333294  0.49445111  1
  Cu  Cu102  1  0.33989355  -0.00705498  0.50103039  1
  Cu  Cu103  1  -0.00516981  0.65682315  0.01445802  1
  Cu  Cu104  1  0.50386413  0.49877990  0.25186700  1
  Cu  Cu105  1  0.15106089  0.16321215  0.74148739  1
  Cu  Cu106  1  0.83467591  0.16176944  0.25750497  1
  Cu  Cu107  1  0.33955788  0.66335556  0.50031280  1
  Cu  Cu108  1  0.16331662  0.50278125  0.25896726  1
  Cu  Cu109  1  0.16394913  0.49489562  0.74163484  1
  Cu  Cu110  1  0.50412209  0.82470031  0.74938514  1
  Cu  Cu111  1  0.49896813  0.83533647  0.25295826  1
  Cu  Cu112  1  0.49873965  0.16282232  0.74480768  1
  Cu  Cu113  1  0.66166873  -0.00173987  -0.00178890  1
  Cu  Cu114  1  0.82986574  0.50220130  0.74788165  1
  Se  Se115  1  0.07466110  0.08400697  0.05963962  1
  Se  Se116  1  0.10380477  0.10756985  0.55376874  1
  Se  Se117  1  0.08127363  0.41247913  0.06397521  1
  Se  Se118  1  0.07666203  0.41345264  0.55831701  1
  Se  Se119  1  0.07796959  0.74259580  0.06572393  1
  Se  Se120  1  0.07585219  0.74076793  0.54492607  1
  Se  Se121  1  0.42712850  0.08934768  0.05907225  1
  Se  Se122  1  0.41956302  0.08138215  0.55260705  1
  Se  Se123  1  0.41801729  0.41870523  0.05615822  1
  Se  Se124  1  0.41099063  0.41690844  0.54226928  1
  Se  Se125  1  0.42511317  0.75578463  0.05050243  1
  Se  Se126  1  0.41970577  0.74700215  0.55706858  1
  Se  Se127  1  0.74490777  0.07290993  0.06046757  1
  Se  Se128  1  0.74919515  0.08429953  0.55292529  1
  Se  Se129  1  0.74073332  0.39769862  0.05300058  1
  Se  Se130  1  0.75190740  0.41980610  0.55273095  1
  Se  Se131  1  0.74724479  0.73999925  0.06531782  1
  Se  Se132  1  0.74231530  0.74638803  0.55787046  1
  Se  Se133  1  0.25104938  0.25891586  0.06623636  1
  Se  Se134  1  0.27110113  0.27368952  0.54079238  1
  Se  Se135  1  0.26444038  0.59368814  0.05580394  1
  Se  Se136  1  0.25528695  0.58448805  0.55987532  1
  Se  Se137  1  0.26290744  0.92853021  0.06421711  1
  Se  Se138  1  0.25233465  0.91383732  0.55399524  1
  Se  Se139  1  0.58836312  0.24566871  0.05056832  1
  Se  Se140  1  0.58526736  0.25082704  0.55382576  1
  Se  Se141  1  0.58222711  0.58463664  0.05089204  1
  Se  Se142  1  0.58185923  0.58111988  0.55450028  1
  Se  Se143  1  0.58590581  0.91311492  0.05622616  1
  Se  Se144  1  0.58201667  0.91454867  0.55104313  1
  Se  Se145  1  0.91994157  0.25283557  0.06355562  1
  Se  Se146  1  0.91700749  0.25089590  0.55090311  1
  Se  Se147  1  0.91340702  0.57225289  0.06510343  1
  Se  Se148  1  0.91274415  0.59109082  0.54375942  1
  Se  Se149  1  0.91729399  0.92062978  0.05795286  1
  Se  Se150  1  0.92764800  0.93264269  0.55365485  1
  Se  Se151  1  0.08605061  0.25046709  0.44496299  1
  Se  Se152  1  0.07054347  0.25507723  0.93898712  1
  Se  Se153  1  0.07192728  0.58498865  0.44032857  1
  Se  Se154  1  0.07756399  0.58855208  0.94605139  1
  Se  Se155  1  0.08929549  0.89701974  0.45438550  1
  Se  Se156  1  0.07888503  0.91973463  0.94490531  1
  Se  Se157  1  0.43639688  0.23560916  0.44748647  1
  Se  Se158  1  0.41673063  0.24326450  0.94952733  1
  Se  Se159  1  0.42156457  0.57898363  0.44831156  1
  Se  Se160  1  0.42253661  0.58230985  0.94118151  1
  Se  Se161  1  0.42390167  0.91050464  0.44841418  1
  Se  Se162  1  0.42343571  0.91285961  0.94990188  1
  Se  Se163  1  0.75179219  0.24863253  0.45162307  1
  Se  Se164  1  0.73929578  0.26021436  0.93439814  1
  Se  Se165  1  0.74848115  0.58442841  0.44401527  1
  Se  Se166  1  0.75383635  0.58588687  0.94731097  1
  Se  Se167  1  0.74577050  0.92016908  0.43658687  1
  Se  Se168  1  0.74655201  0.92835491  0.93365135  1
  Se  Se169  1  0.25717696  0.07592611  0.44768318  1
  Se  Se170  1  0.26265583  0.07362367  0.94251969  1
  Se  Se171  1  0.24993762  0.40896311  0.42648453  1
  Se  Se172  1  0.26270154  0.40579988  0.93635198  1
  Se  Se173  1  0.25243940  0.74748424  0.45234756  1
  Se  Se174  1  0.25581491  0.74306290  0.93523638  1
  Se  Se175  1  0.58541235  0.08306837  0.44880339  1
  Se  Se176  1  0.58112330  0.08451677  0.94513898  1
  Se  Se177  1  0.58560558  0.41959657  0.44650717  1
  Se  Se178  1  0.57720235  0.42513145  0.95222056  1
  Se  Se179  1  0.58031673  0.75421687  0.44907404  1
  Se  Se180  1  0.58811716  0.75414101  0.94214150  1
  Se  Se181  1  0.91417793  0.08126006  0.45224353  1
  Se  Se182  1  0.91568387  0.08116160  0.93779985  1
  Se  Se183  1  0.91268925  0.41758564  0.44718266  1
  Se  Se184  1  0.91462035  0.42303474  0.95076955  1
  Se  Se185  1  0.91291540  0.74572948  0.43359579  1
  Se  Se186  1  0.92524075  0.73904632  0.94664392  1
  Se  Se187  1  0.26266329  0.24574746  0.30162198  1
  Se  Se188  1  0.23498187  0.24146570  0.80223238  1
  Se  Se189  1  0.24210016  0.58447067  0.31944478  1
  Se  Se190  1  0.24981256  0.57682550  0.79292131  1
  Se  Se191  1  0.23707445  0.91938074  0.32051596  1
  Se  Se192  1  0.24219549  0.91204035  0.81155930  1
  Se  Se193  1  0.58203235  0.24573935  0.31340457  1
  Se  Se194  1  0.57198090  0.24769999  0.80652082  1
  Se  Se195  1  0.58350041  0.58351906  0.30508072  1
  Se  Se196  1  0.58969172  0.58497977  0.80332346  1
  Se  Se197  1  0.58199878  0.91923783  0.30522542  1
  Se  Se198  1  0.58285911  0.91506729  0.80110504  1
  Se  Se199  1  0.91562339  0.24679171  0.30957285  1
  Se  Se200  1  0.91862652  0.26636599  0.79641264  1
  Se  Se201  1  0.91612781  0.58049391  0.29765300  1
  Se  Se202  1  0.91564113  0.58278709  0.80781212  1
  Se  Se203  1  0.91492375  0.91762668  0.30373361  1
  Se  Se204  1  0.92269973  0.91981645  0.79593928  1
  Se  Se205  1  0.07811652  0.07642708  0.31500224  1
  Se  Se206  1  0.07413230  0.07803963  0.79777398  1
  Se  Se207  1  0.07942292  0.41510871  0.30610631  1
  Se  Se208  1  0.07870273  0.41800776  0.79672274  1
  Se  Se209  1  0.07773935  0.75171982  0.30483967  1
  Se  Se210  1  0.08805052  0.75586721  0.80977594  1
  Se  Se211  1  0.42106139  0.09303726  0.31660906  1
  Se  Se212  1  0.41843379  0.08495393  0.80778075  1
  Se  Se213  1  0.42089189  0.41263649  0.30165084  1
  Se  Se214  1  0.42681434  0.41458644  0.80790606  1
  Se  Se215  1  0.42050607  0.75545714  0.31385114  1
  Se  Se216  1  0.41656813  0.74430923  0.80110847  1
  Se  Se217  1  0.74576528  0.07925667  0.30501656  1
  Se  Se218  1  0.75305207  0.09828435  0.79536816  1
  Se  Se219  1  0.75821418  0.41806868  0.30839677  1
  Se  Se220  1  0.75260309  0.42678867  0.81341218  1
  Se  Se221  1  0.74171409  0.74526244  0.30239887  1
  Se  Se222  1  0.75753195  0.75305787  0.79651571  1
  Se  Se223  1  0.23956809  0.09523083  0.19537769  1
  Se  Se224  1  0.24598744  0.09237875  0.68642448  1
  Se  Se225  1  0.25067702  0.42366431  0.20568173  1
  Se  Se226  1  0.23938689  0.41535093  0.67804285  1
  Se  Se227  1  0.23890009  0.76406010  0.19695968  1
  Se  Se228  1  0.24963672  0.74586785  0.69762615  1
  Se  Se229  1  0.58402905  0.08145412  0.20281144  1
  Se  Se230  1  0.58710282  0.08091939  0.69738114  1
  Se  Se231  1  0.57970054  0.42184760  0.18722422  1
  Se  Se232  1  0.57489271  0.41592242  0.68678475  1
  Se  Se233  1  0.57920291  0.74982014  0.19891751  1
  Se  Se234  1  0.58915241  0.74421647  0.69565610  1
  Se  Se235  1  0.91924003  0.07951538  0.20219469  1
  Se  Se236  1  0.92842865  0.07545190  0.69231724  1
  Se  Se237  1  0.94050225  0.38752273  0.20021904  1
  Se  Se238  1  0.91502545  0.42263513  0.69466903  1
  Se  Se239  1  0.91282552  0.74661681  0.20390985  1
  Se  Se240  1  0.91055303  0.76310965  0.67922090  1
  Se  Se241  1  0.09418656  0.23974732  0.20934859  1
  Se  Se242  1  0.07612618  0.25454639  0.68979584  1
  Se  Se243  1  0.08397561  0.58873865  0.20485786  1
  Se  Se244  1  0.08595260  0.57933992  0.68308502  1
  Se  Se245  1  0.07551320  0.92195325  0.19991848  1
  Se  Se246  1  0.08640535  0.91883196  0.69053547  1
  Se  Se247  1  0.42206507  0.25409880  0.19558121  1
  Se  Se248  1  0.41801725  0.24047653  0.68591234  1
  Se  Se249  1  0.42182654  0.58095603  0.19108158  1
  Se  Se250  1  0.41771600  0.58029576  0.69715924  1
  Se  Se251  1  0.41600677  0.91600947  0.19553042  1
  Se  Se252  1  0.42596363  0.90635613  0.68670600  1
  Se  Se253  1  0.76040239  0.23987977  0.18884940  1
  Se  Se254  1  0.75788697  0.24808479  0.68621456  1
  Se  Se255  1  0.74467140  0.56669983  0.19764990  1
  Se  Se256  1  0.74603882  0.58562789  0.69696247  1
  Se  Se257  1  0.74641682  0.91593578  0.20153637  1
  Se  Se258  1  0.74751072  0.92247733  0.69151687  1
