# generated using pymatgen
data_In86Cu29Se144
_symmetry_space_group_name_H-M   'P 1'
_cell_length_a   17.57882903
_cell_length_b   17.57876782
_cell_length_c   23.44330263
_cell_angle_alpha   89.99553740
_cell_angle_beta   90.01620987
_cell_angle_gamma   89.99316871
_symmetry_Int_Tables_number   1
_chemical_formula_structural   In86Cu29Se144
_chemical_formula_sum   'In86 Cu29 Se144'
_cell_volume   7244.31196705
_cell_formula_units_Z   1
loop_
 _symmetry_equiv_pos_site_id
 _symmetry_equiv_pos_as_xyz
  1  'x, y, z'
loop_
 _atom_site_type_symbol
 _atom_site_label
 _atom_site_symmetry_multiplicity
 _atom_site_fract_x
 _atom_site_fract_y
 _atom_site_fract_z
 _atom_site_occupancy
  In  In0  1  0.00706403  0.16069274  0.13366593  1
  In  In1  1  -0.00818480  0.15882971  0.61404390  1
  In  In2  1  -0.01258822  0.50795973  0.13530242  1
  In  In3  1  -0.00360050  0.49479052  0.61378169  1
  In  In4  1  -0.01078685  0.84174204  0.13268860  1
  In  In5  1  -0.00269827  0.84478422  0.62405880  1
  In  In6  1  0.33913484  0.18038626  0.12317902  1
  In  In7  1  0.34349390  0.17918004  0.61918786  1
  In  In8  1  0.33410992  0.48547049  0.12357961  1
  In  In9  1  0.33096149  0.50011064  0.62845029  1
  In  In10  1  0.34089022  0.83037398  0.11813093  1
  In  In11  1  0.33284148  0.82086602  0.63286019  1
  In  In12  1  0.66823639  0.16272784  0.13686101  1
  In  In13  1  0.67202229  0.17017050  0.62024435  1
  In  In14  1  0.66605211  0.49487979  0.12051346  1
  In  In15  1  0.66253753  0.48924062  0.61982599  1
  In  In16  1  0.67657373  0.84150105  0.11578744  1
  In  In17  1  0.66698592  0.83146259  0.61219331  1
  In  In18  1  0.16419931  0.01285915  0.37732401  1
  In  In19  1  0.17411532  0.01707880  0.87538369  1
  In  In20  1  0.16700126  0.33308152  0.37535972  1
  In  In21  1  0.16947172  0.31690231  0.87711375  1
  In  In22  1  0.15048320  0.67015115  0.37464990  1
  In  In23  1  0.16729912  0.65789590  0.87225983  1
  In  In24  1  0.51214410  -0.00510235  0.38340956  1
  In  In25  1  0.49270199  -0.00726529  0.87789379  1
  In  In26  1  0.48838144  0.32476845  0.36845387  1
  In  In27  1  0.51114342  0.33841913  0.86299214  1
  In  In28  1  0.51367499  0.67501857  0.38149621  1
  In  In29  1  0.49005622  0.67603591  0.87720555  1
  In  In30  1  0.83288831  0.00395237  0.37216803  1
  In  In31  1  0.82885451  -0.01641586  0.87552053  1
  In  In32  1  0.83521194  0.33315433  0.37343453  1
  In  In33  1  0.82996704  0.34070297  0.87580791  1
  In  In34  1  0.83777531  0.65563170  0.38509965  1
  In  In35  1  0.83314051  0.67362969  0.88755943  1
  In  In36  1  0.00004172  0.16752226  0.37305201  1
  In  In37  1  0.01472587  0.16795681  0.87757921  1
  In  In38  1  0.00148171  0.49857542  0.37467951  1
  In  In39  1  -0.00557434  0.50358347  0.88371219  1
  In  In40  1  -0.01318611  0.82683559  0.36538874  1
  In  In41  1  -0.01700634  0.83416900  0.87620478  1
  In  In42  1  0.32236717  0.17433790  0.38384311  1
  In  In43  1  0.32422838  0.16081925  0.87105463  1
  In  In44  1  0.33422512  0.48401821  0.37436638  1
  In  In45  1  0.34333717  0.51201185  0.86563822  1
  In  In46  1  0.34373315  0.84123894  0.37939174  1
  In  In47  1  0.34839207  0.83585673  0.86511997  1
  In  In48  1  0.66760151  0.16958041  0.37459783  1
  In  In49  1  0.65526304  0.17204635  0.87113679  1
  In  In50  1  0.68291199  0.49851814  0.37897669  1
  In  In51  1  0.67039205  0.49157086  0.87743741  1
  In  In52  1  0.66021559  0.84029910  0.38420602  1
  In  In53  1  0.66807235  0.83826718  0.88724057  1
  In  In54  1  0.15567564  -0.00239415  0.12363769  1
  In  In55  1  0.14882779  -0.00483162  0.62703158  1
  In  In56  1  0.17337003  0.32718492  0.13235096  1
  In  In57  1  0.17186207  0.33825768  0.61887941  1
  In  In58  1  0.15660317  0.65794897  0.12561991  1
  In  In59  1  0.17953413  0.66281102  0.62688835  1
  In  In60  1  0.51114003  0.00055808  0.12281149  1
  In  In61  1  0.49974686  0.00524643  0.62032991  1
  In  In62  1  0.49648929  0.33299638  0.13040513  1
  In  In63  1  0.50776951  0.31987697  0.63771360  1
  In  In64  1  0.51296189  0.67171158  0.11397964  1
  In  In65  1  0.49264752  0.66813252  0.62712299  1
  In  In66  1  0.83166825  -0.00001685  0.13126670  1
  In  In67  1  0.83780123  0.00346817  0.61672353  1
  In  In68  1  0.82397358  0.34244850  0.13377448  1
  In  In69  1  0.82600362  0.32669476  0.61369818  1
  In  In70  1  0.84628277  0.67035184  0.11598955  1
  In  In71  1  0.82772935  0.66510446  0.60730132  1
  In  In72  1  0.66554171  0.00124785  0.75421118  1
  In  In73  1  0.16595461  0.50058720  -0.00293519  1
  In  In74  1  0.66395167  0.66700190  0.74565777  1
  In  In75  1  0.33332894  0.00399205  0.75039454  1
  In  In76  1  0.00255696  0.33333407  0.75279871  1
  In  In77  1  0.33042633  0.66226263  0.24026934  1
  In  In78  1  0.32953002  0.00563545  0.25481190  1
  In  In79  1  0.83560797  0.16235043  0.01363213  1
  In  In80  1  0.67269654  0.66404128  0.25424568  1
  In  In81  1  0.49754326  0.16128059  -0.00651419  1
  In  In82  1  0.16722568  0.83177161  0.50698706  1
  In  In83  1  0.50082834  0.50305976  0.50468136  1
  In  In84  1  0.00361750  0.67078751  0.75180552  1
  In  In85  1  0.16644650  0.83672942  0.00011445  1
  Cu  Cu86  1  0.66409071  0.33187984  0.00154042  1
  Cu  Cu87  1  0.50513338  0.83564340  0.25404222  1
  Cu  Cu88  1  0.16623933  0.16713963  0.74855648  1
  Cu  Cu89  1  0.16518156  0.17127033  0.25556488  1
  Cu  Cu90  1  0.17214577  0.49543187  0.74910562  1
  Cu  Cu91  1  0.82853637  0.49532805  0.75165022  1
  Cu  Cu92  1  0.33840143  0.33527772  0.00075141  1
  Cu  Cu93  1  -0.00002981  0.65934482  0.49537794  1
  Cu  Cu94  1  0.00134678  0.33213980  0.49153588  1
  Cu  Cu95  1  0.00246152  0.33765808  0.00309887  1
  Cu  Cu96  1  -0.00312400  0.00176075  0.00625962  1
  Cu  Cu97  1  0.33827373  0.00372749  0.50050220  1
  Cu  Cu98  1  0.82791576  0.83562455  0.24927038  1
  Cu  Cu99  1  0.66671622  0.65539346  -0.00202668  1
  Cu  Cu100  1  0.33270856  0.66365261  0.50605043  1
  Cu  Cu101  1  -0.00162973  -0.00132452  0.49568595  1
  Cu  Cu102  1  0.50119718  0.16627580  0.25339449  1
  Cu  Cu103  1  0.34150795  0.66631685  -0.00531372  1
  Cu  Cu104  1  0.83884387  0.16373193  0.73953545  1
  Cu  Cu105  1  0.83774299  0.49865946  0.25460143  1
  Cu  Cu106  1  0.33168243  0.33093760  0.49958112  1
  Cu  Cu107  1  0.83378981  0.83447804  0.74840550  1
  Cu  Cu108  1  0.50534139  0.49177927  0.24637927  1
  Cu  Cu109  1  0.15499948  0.83627899  0.24897664  1
  Cu  Cu110  1  0.49801528  0.50020097  0.74663584  1
  Cu  Cu111  1  0.67200313  0.00929532  0.49827548  1
  Cu  Cu112  1  0.16336783  0.49702059  0.25051122  1
  Cu  Cu113  1  0.66706660  0.33320347  0.49741623  1
  Cu  Cu114  1  0.83390718  0.16959347  0.25407419  1
  Se  Se115  1  0.08228867  0.08744211  0.05451104  1
  Se  Se116  1  0.08401945  0.07878056  0.54971806  1
  Se  Se117  1  0.08314328  0.41568984  0.06497278  1
  Se  Se118  1  0.08365391  0.41339955  0.54930937  1
  Se  Se119  1  0.07561715  0.75137250  0.06260683  1
  Se  Se120  1  0.07440906  0.73748443  0.56265294  1
  Se  Se121  1  0.40962454  0.07751542  0.05986078  1
  Se  Se122  1  0.42107110  0.09046031  0.55134307  1
  Se  Se123  1  0.42407654  0.41487893  0.05379376  1
  Se  Se124  1  0.41529956  0.40719218  0.56199291  1
  Se  Se125  1  0.42249307  0.75111196  0.04883421  1
  Se  Se126  1  0.41380934  0.75098961  0.55572962  1
  Se  Se127  1  0.73439915  0.07310149  0.06007583  1
  Se  Se128  1  0.75711802  0.09140247  0.55107970  1
  Se  Se129  1  0.75230086  0.41322498  0.05240612  1
  Se  Se130  1  0.75047371  0.42004380  0.54766933  1
  Se  Se131  1  0.74581672  0.74033441  0.05425846  1
  Se  Se132  1  0.76112065  0.76457598  0.54573135  1
  Se  Se133  1  0.25167194  0.25568746  0.05360365  1
  Se  Se134  1  0.24673946  0.24661417  0.55143638  1
  Se  Se135  1  0.26013185  0.59088983  0.05804476  1
  Se  Se136  1  0.24944781  0.57657987  0.55381142  1
  Se  Se137  1  0.25813299  0.92755927  0.05810648  1
  Se  Se138  1  0.25908209  0.92388511  0.56375846  1
  Se  Se139  1  0.58694356  0.24714434  0.06000202  1
  Se  Se140  1  0.58398226  0.25500434  0.55571961  1
  Se  Se141  1  0.58141952  0.57313617  0.05008910  1
  Se  Se142  1  0.59223602  0.59680232  0.55962692  1
  Se  Se143  1  0.56889435  0.90169665  0.05571802  1
  Se  Se144  1  0.58718036  0.92719625  0.55237664  1
  Se  Se145  1  0.92434819  0.25953624  0.06703463  1
  Se  Se146  1  0.91756828  0.25084716  0.54796650  1
  Se  Se147  1  0.91809987  0.57293319  0.05295296  1
  Se  Se148  1  0.91280923  0.57610304  0.54602814  1
  Se  Se149  1  0.91187008  0.92031289  0.05817676  1
  Se  Se150  1  0.91563335  0.91402444  0.54844666  1
  Se  Se151  1  0.08664907  0.24600455  0.44315916  1
  Se  Se152  1  0.08479947  0.25066425  0.95296827  1
  Se  Se153  1  0.08836010  0.57790558  0.44623866  1
  Se  Se154  1  0.07221763  0.59987082  0.94875144  1
  Se  Se155  1  0.07969540  0.91397013  0.43848906  1
  Se  Se156  1  0.07616272  0.92742881  0.93974152  1
  Se  Se157  1  0.41865894  0.24929316  0.44796787  1
  Se  Se158  1  0.41344852  0.25744018  0.93465045  1
  Se  Se159  1  0.41003062  0.58891216  0.43844090  1
  Se  Se160  1  0.42256992  0.57745515  0.94503172  1
  Se  Se161  1  0.42224324  0.91690309  0.45194274  1
  Se  Se162  1  0.40648321  0.91678124  0.94485811  1
  Se  Se163  1  0.75219735  0.25137957  0.44378155  1
  Se  Se164  1  0.74656406  0.24847273  0.94509993  1
  Se  Se165  1  0.73213947  0.59836537  0.44867517  1
  Se  Se166  1  0.75330916  0.57563698  0.94486195  1
  Se  Se167  1  0.75278608  0.92319976  0.44475610  1
  Se  Se168  1  0.75626521  0.91429377  0.95379531  1
  Se  Se169  1  0.24771532  0.08260205  0.45123951  1
  Se  Se170  1  0.25025102  0.09175642  0.94948691  1
  Se  Se171  1  0.24899211  0.41612114  0.44767839  1
  Se  Se172  1  0.25853369  0.41338109  0.93700013  1
  Se  Se173  1  0.25640440  0.74414267  0.44052387  1
  Se  Se174  1  0.25469274  0.74456093  0.93899043  1
  Se  Se175  1  0.58409027  0.09151792  0.44749710  1
  Se  Se176  1  0.59522063  0.07037988  0.94076106  1
  Se  Se177  1  0.58256149  0.41210525  0.43821185  1
  Se  Se178  1  0.58142499  0.41130335  0.94423364  1
  Se  Se179  1  0.57477414  0.76287045  0.45390822  1
  Se  Se180  1  0.58604779  0.74295335  0.94518487  1
  Se  Se181  1  0.91707649  0.08472084  0.44246242  1
  Se  Se182  1  0.91971690  0.08118509  0.94104470  1
  Se  Se183  1  0.91525654  0.41824691  0.44330802  1
  Se  Se184  1  0.91577801  0.41323797  0.94796860  1
  Se  Se185  1  0.92089519  0.75001324  0.44566700  1
  Se  Se186  1  0.91505763  0.75712664  0.95317983  1
  Se  Se187  1  0.25379216  0.25247112  0.30533570  1
  Se  Se188  1  0.25114837  0.25008496  0.79987824  1
  Se  Se189  1  0.24546195  0.57985658  0.30963468  1
  Se  Se190  1  0.25068392  0.58666016  0.79879643  1
  Se  Se191  1  0.24019672  0.90717562  0.31154838  1
  Se  Se192  1  0.24180190  0.91428596  0.80905923  1
  Se  Se193  1  0.58489810  0.25273675  0.30404453  1
  Se  Se194  1  0.58746998  0.24993773  0.79527232  1
  Se  Se195  1  0.57630980  0.57400815  0.31073797  1
  Se  Se196  1  0.57920933  0.57790887  0.80951436  1
  Se  Se197  1  0.58747470  0.91905919  0.30637319  1
  Se  Se198  1  0.57818182  0.90456733  0.80949723  1
  Se  Se199  1  0.91996665  0.25289500  0.30396006  1
  Se  Se200  1  0.91086473  0.24107715  0.81009710  1
  Se  Se201  1  0.91722065  0.58573784  0.30771014  1
  Se  Se202  1  0.90691426  0.57941762  0.80914327  1
  Se  Se203  1  0.91383829  0.92089580  0.30022057  1
  Se  Se204  1  0.91624135  0.91956317  0.79987645  1
  Se  Se205  1  0.08204948  0.08197269  0.30236632  1
  Se  Se206  1  0.08330161  0.08411025  0.80219490  1
  Se  Se207  1  0.08253366  0.41388186  0.30581236  1
  Se  Se208  1  0.09063323  0.42491496  0.81545191  1
  Se  Se209  1  0.07618318  0.74645028  0.29906343  1
  Se  Se210  1  0.08830031  0.76097302  0.81346501  1
  Se  Se211  1  0.42134133  0.08844670  0.31719370  1
  Se  Se212  1  0.42983484  0.09226635  0.80707576  1
  Se  Se213  1  0.41476452  0.41500377  0.29822278  1
  Se  Se214  1  0.41532816  0.41621310  0.80047405  1
  Se  Se215  1  0.42069299  0.75047782  0.30591360  1
  Se  Se216  1  0.41639641  0.74342491  0.79723287  1
  Se  Se217  1  0.74724813  0.08536459  0.30374585  1
  Se  Se218  1  0.76170426  0.09184899  0.81012047  1
  Se  Se219  1  0.74988381  0.41569433  0.30324545  1
  Se  Se220  1  0.74542182  0.41016758  0.80170149  1
  Se  Se221  1  0.75585061  0.75641454  0.31612212  1
  Se  Se222  1  0.75424354  0.75523476  0.80944405  1
  Se  Se223  1  0.24337198  0.09259231  0.19002461  1
  Se  Se224  1  0.24402838  0.08822157  0.68480022  1
  Se  Se225  1  0.25249468  0.41728710  0.19936799  1
  Se  Se226  1  0.25158793  0.41022012  0.69545722  1
  Se  Se227  1  0.23878178  0.76162467  0.18764451  1
  Se  Se228  1  0.23583391  0.75633501  0.69873907  1
  Se  Se229  1  0.58028530  0.07883243  0.20094006  1
  Se  Se230  1  0.58064699  0.09111920  0.69181227  1
  Se  Se231  1  0.59093966  0.41154370  0.19358366  1
  Se  Se232  1  0.58656108  0.41850438  0.69695531  1
  Se  Se233  1  0.58319366  0.75398660  0.19344665  1
  Se  Se234  1  0.57869422  0.76352390  0.68977031  1
  Se  Se235  1  0.91416435  0.08439134  0.19825275  1
  Se  Se236  1  0.92144968  0.07781542  0.69107340  1
  Se  Se237  1  0.91909439  0.41167426  0.20197912  1
  Se  Se238  1  0.91092724  0.41838367  0.69033670  1
  Se  Se239  1  0.91023982  0.74921825  0.19710362  1
  Se  Se240  1  0.90579526  0.74756728  0.68783190  1
  Se  Se241  1  0.08190101  0.25352712  0.20016061  1
  Se  Se242  1  0.08418189  0.24454285  0.68658772  1
  Se  Se243  1  0.08034376  0.58479374  0.20156492  1
  Se  Se244  1  0.08362678  0.57005808  0.69116045  1
  Se  Se245  1  0.07602859  0.92545203  0.19867114  1
  Se  Se246  1  0.08411320  0.90590823  0.69860655  1
  Se  Se247  1  0.41623097  0.24947672  0.20101758  1
  Se  Se248  1  0.40857578  0.25134387  0.70074474  1
  Se  Se249  1  0.43074256  0.57750939  0.18551360  1
  Se  Se250  1  0.41364568  0.58475277  0.69604001  1
  Se  Se251  1  0.41831529  0.91197275  0.19588023  1
  Se  Se252  1  0.42508015  0.91383175  0.69214865  1
  Se  Se253  1  0.74792499  0.25172144  0.20091950  1
  Se  Se254  1  0.75430267  0.25036883  0.69225924  1
  Se  Se255  1  0.75904353  0.57764848  0.19001814  1
  Se  Se256  1  0.75716983  0.57758330  0.68731801  1
  Se  Se257  1  0.74274839  0.91720586  0.19691458  1
  Se  Se258  1  0.75260022  0.91421399  0.68857089  1
