# generated using pymatgen
data_In86Cu29Se144
_symmetry_space_group_name_H-M   'P 1'
_cell_length_a   17.57200811
_cell_length_b   17.57521030
_cell_length_c   23.42866977
_cell_angle_alpha   89.98190202
_cell_angle_beta   90.00776629
_cell_angle_gamma   90.00111839
_symmetry_Int_Tables_number   1
_chemical_formula_structural   In86Cu29Se144
_chemical_formula_sum   'In86 Cu29 Se144'
_cell_volume   7235.51637692
_cell_formula_units_Z   1
loop_
 _symmetry_equiv_pos_site_id
 _symmetry_equiv_pos_as_xyz
  1  'x, y, z'
loop_
 _atom_site_type_symbol
 _atom_site_label
 _atom_site_symmetry_multiplicity
 _atom_site_fract_x
 _atom_site_fract_y
 _atom_site_fract_z
 _atom_site_occupancy
  In  In0  1  -0.00048806  0.17443467  0.12221796  1
  In  In1  1  0.00820531  0.16613536  0.62588711  1
  In  In2  1  0.00147873  0.49374344  0.11945768  1
  In  In3  1  -0.00777429  0.49307743  0.62035654  1
  In  In4  1  0.00149665  0.83142754  0.12476976  1
  In  In5  1  -0.00896673  0.83934211  0.62363150  1
  In  In6  1  0.32024334  0.18233278  0.13395658  1
  In  In7  1  0.33025029  0.16913727  0.63413816  1
  In  In8  1  0.31760355  0.49247592  0.11235228  1
  In  In9  1  0.32979919  0.49664800  0.63021152  1
  In  In10  1  0.32303341  0.84419093  0.12564784  1
  In  In11  1  0.31955891  0.83479621  0.63948171  1
  In  In12  1  0.68200256  0.16917577  0.12544730  1
  In  In13  1  0.67856219  0.17597971  0.62964649  1
  In  In14  1  0.66252576  0.49362334  0.12198819  1
  In  In15  1  0.66265028  0.49811691  0.61940607  1
  In  In16  1  0.68323050  0.83041810  0.12713825  1
  In  In17  1  0.67533880  0.82667344  0.62011865  1
  In  In18  1  0.16827144  0.00021907  0.36248740  1
  In  In19  1  0.16644289  0.00134540  0.88056609  1
  In  In20  1  0.17429341  0.33779221  0.36886113  1
  In  In21  1  0.16968809  0.32660780  0.88105956  1
  In  In22  1  0.15020760  0.66334043  0.37055820  1
  In  In23  1  0.16788932  0.65873661  0.88509839  1
  In  In24  1  0.49904808  0.01271823  0.37267862  1
  In  In25  1  0.48982180  0.01154484  0.87541318  1
  In  In26  1  0.50578485  0.34105598  0.36746479  1
  In  In27  1  0.50709316  0.34361818  0.86862271  1
  In  In28  1  0.49103681  0.65976093  0.38156688  1
  In  In29  1  0.48582514  0.66682441  0.87314904  1
  In  In30  1  0.84361822  -0.00944487  0.37653925  1
  In  In31  1  0.84656379  -0.00745978  0.88580172  1
  In  In32  1  0.83985911  0.34767604  0.36202306  1
  In  In33  1  0.83932525  0.33894132  0.88026238  1
  In  In34  1  0.84152097  0.65867471  0.37320560  1
  In  In35  1  0.86006058  0.64432414  0.89743481  1
  In  In36  1  -0.00160046  0.16853534  0.36338234  1
  In  In37  1  -0.01153761  0.18836325  0.89661474  1
  In  In38  1  0.00132630  0.49572391  0.37264062  1
  In  In39  1  0.03401802  0.46933256  0.91863473  1
  In  In40  1  -0.00640649  0.83130740  0.36277263  1
  In  In41  1  0.00747173  0.82179587  0.89318855  1
  In  In42  1  0.34299864  0.16865980  0.35734539  1
  In  In43  1  0.32180751  0.15930131  0.86929966  1
  In  In44  1  0.33755923  0.49343467  0.38463728  1
  In  In45  1  0.33629409  0.50104953  0.87596783  1
  In  In46  1  0.31875041  0.83683220  0.37323767  1
  In  In47  1  0.31182870  0.82501981  0.85873575  1
  In  In48  1  0.65560530  0.17520405  0.36972542  1
  In  In49  1  0.66484020  0.18120586  0.87458886  1
  In  In50  1  0.67110411  0.49325614  0.37700354  1
  In  In51  1  0.67558106  0.48988410  0.88088956  1
  In  In52  1  0.69786203  0.83979128  0.37319222  1
  In  In53  1  0.67947996  0.83267980  0.87411181  1
  In  In54  1  0.16274735  -0.00028521  0.12229694  1
  In  In55  1  0.16584288  0.00429215  0.62729728  1
  In  In56  1  0.16278016  0.33673722  0.11839529  1
  In  In57  1  0.15661121  0.34278842  0.63587653  1
  In  In58  1  0.14092872  0.64882532  0.10283940  1
  In  In59  1  0.17959071  0.66328874  0.63167473  1
  In  In60  1  0.49055778  0.00482320  0.13171893  1
  In  In61  1  0.49289464  -0.00966605  0.62164564  1
  In  In62  1  0.48571542  0.34029595  0.13423830  1
  In  In63  1  0.49398538  0.34120472  0.63323216  1
  In  In64  1  0.50904849  0.65697943  0.12555526  1
  In  In65  1  0.49820126  0.65519026  0.62412955  1
  In  In66  1  0.84283936  0.01165552  0.12329417  1
  In  In67  1  0.84226909  -0.00862183  0.61733087  1
  In  In68  1  0.83824438  0.33245776  0.12286945  1
  In  In69  1  0.82486297  0.33912285  0.63298384  1
  In  In70  1  0.86178588  0.68068857  0.10537468  1
  In  In71  1  0.83535364  0.66402474  0.61672700  1
  In  In72  1  0.32347900  0.66949937  0.24871554  1
  In  In73  1  0.67659401  0.65777320  0.25139500  1
  In  In74  1  0.15987718  0.82311747  0.49863343  1
  In  In75  1  0.67291397  0.00665308  0.25196886  1
  In  In76  1  0.66552052  0.66467698  0.74322775  1
  In  In77  1  0.50619240  0.82378907  0.50396183  1
  In  In78  1  0.50077996  0.17239993  -0.00095447  1
  In  In79  1  0.66323361  0.00685618  0.74958640  1
  In  In80  1  0.00679069  0.65719136  0.76469124  1
  In  In81  1  0.50347978  0.17207764  0.49048037  1
  In  In82  1  0.16434455  0.16419214  0.50275906  1
  In  In83  1  0.49842128  0.83283066  0.00249923  1
  In  In84  1  0.83067738  0.16593367  0.49299685  1
  In  In85  1  0.00758172  0.00100982  0.75028348  1
  Cu  Cu86  1  0.16593892  0.16613628  0.24141258  1
  Cu  Cu87  1  0.49332325  0.17275678  0.75244120  1
  Cu  Cu88  1  -0.00260934  0.65947922  0.49478279  1
  Cu  Cu89  1  0.50254789  0.83804329  0.25077383  1
  Cu  Cu90  1  0.66597188  0.34112614  0.49957657  1
  Cu  Cu91  1  0.16148106  0.83323479  0.24362159  1
  Cu  Cu92  1  0.00246672  0.00374573  0.00731707  1
  Cu  Cu93  1  -0.00379628  0.33429103  0.49912874  1
  Cu  Cu94  1  0.83615565  0.82522380  0.75378095  1
  Cu  Cu95  1  0.66328200  0.65950361  0.00278153  1
  Cu  Cu96  1  0.48977351  0.49388434  0.24958840  1
  Cu  Cu97  1  0.67254134  -0.00454560  0.00434754  1
  Cu  Cu98  1  0.67634317  0.66695348  0.49645655  1
  Cu  Cu99  1  0.83778090  0.48753201  0.75393860  1
  Cu  Cu100  1  0.33518477  0.66576497  -0.00447896  1
  Cu  Cu101  1  0.67213616  0.33164895  -0.00011067  1
  Cu  Cu102  1  0.49774480  0.50048190  0.74860839  1
  Cu  Cu103  1  0.83689481  0.17166472  0.75845061  1
  Cu  Cu104  1  0.33488547  0.33508424  0.00038031  1
  Cu  Cu105  1  0.16507649  0.49577598  0.76297154  1
  Cu  Cu106  1  0.83740411  0.50389921  0.24237509  1
  Cu  Cu107  1  0.16106547  0.17199934  0.75446274  1
  Cu  Cu108  1  0.33318446  0.65334632  0.50640626  1
  Cu  Cu109  1  0.32754546  0.00275528  -0.00154157  1
  Cu  Cu110  1  0.33256601  0.00099032  0.49552856  1
  Cu  Cu111  1  0.83881803  0.17578449  0.24545176  1
  Cu  Cu112  1  0.16417573  0.49528494  0.24133813  1
  Cu  Cu113  1  0.33067812  0.34199599  0.50286891  1
  Cu  Cu114  1  0.48987527  0.84100255  0.75047405  1
  Se  Se115  1  0.08690221  0.09083484  0.05513351  1
  Se  Se116  1  0.07017486  0.06654253  0.55373744  1
  Se  Se117  1  0.09281959  0.42624698  0.04612178  1
  Se  Se118  1  0.08254618  0.41195905  0.55489228  1
  Se  Se119  1  0.09058803  0.76600364  0.05014315  1
  Se  Se120  1  0.07318540  0.73470564  0.56361113  1
  Se  Se121  1  0.40832590  0.08329792  0.05788395  1
  Se  Se122  1  0.40974805  0.08458974  0.55502981  1
  Se  Se123  1  0.41947847  0.41693302  0.05351943  1
  Se  Se124  1  0.41713728  0.41904179  0.55866669  1
  Se  Se125  1  0.40952725  0.74180108  0.06374372  1
  Se  Se126  1  0.40230190  0.74715603  0.56360651  1
  Se  Se127  1  0.75322503  0.08528438  0.05261008  1
  Se  Se128  1  0.74298634  0.07908452  0.55972858  1
  Se  Se129  1  0.75167530  0.41601845  0.05511412  1
  Se  Se130  1  0.75373081  0.41737126  0.55506967  1
  Se  Se131  1  0.74721189  0.74590551  0.05223911  1
  Se  Se132  1  0.75821168  0.75264283  0.54848094  1
  Se  Se133  1  0.25082483  0.25124730  0.05221591  1
  Se  Se134  1  0.25274593  0.25754452  0.56161334  1
  Se  Se135  1  0.24571509  0.58139284  0.04254935  1
  Se  Se136  1  0.24434326  0.57517572  0.55806962  1
  Se  Se137  1  0.24503472  0.91685470  0.05008487  1
  Se  Se138  1  0.25329294  0.91984146  0.55533361  1
  Se  Se139  1  0.58812499  0.25813154  0.06273856  1
  Se  Se140  1  0.58845783  0.25786853  0.55934834  1
  Se  Se141  1  0.57773446  0.57506744  0.05103040  1
  Se  Se142  1  0.58822617  0.58996893  0.55155844  1
  Se  Se143  1  0.58833975  0.92307668  0.06561839  1
  Se  Se144  1  0.59468197  0.92467358  0.55589712  1
  Se  Se145  1  0.90909423  0.24401615  0.05172321  1
  Se  Se146  1  0.91817695  0.25241058  0.55983838  1
  Se  Se147  1  0.91396706  0.56869304  0.04748812  1
  Se  Se148  1  0.91386726  0.57694594  0.54982586  1
  Se  Se149  1  0.91671267  0.91840554  0.05714628  1
  Se  Se150  1  0.91558102  0.90853237  0.54653532  1
  Se  Se151  1  0.07735940  0.25394356  0.44003358  1
  Se  Se152  1  0.08724647  0.25760121  0.95787795  1
  Se  Se153  1  0.08442924  0.57720022  0.44495966  1
  Se  Se154  1  0.05195261  0.61202295  0.94259905  1
  Se  Se155  1  0.08371203  0.91732308  0.43439046  1
  Se  Se156  1  0.08391056  0.92142644  0.95083260  1
  Se  Se157  1  0.40433446  0.25967456  0.43862607  1
  Se  Se158  1  0.41118813  0.25594588  0.93474682  1
  Se  Se159  1  0.42150818  0.57500758  0.45447305  1
  Se  Se160  1  0.42165119  0.58064916  0.94795275  1
  Se  Se161  1  0.41475454  0.91569175  0.44157994  1
  Se  Se162  1  0.40850436  0.91966220  0.94043878  1
  Se  Se163  1  0.74345044  0.26278634  0.43642463  1
  Se  Se164  1  0.75343930  0.24823977  0.94565523  1
  Se  Se165  1  0.75440054  0.57991404  0.44167774  1
  Se  Se166  1  0.74866967  0.57802524  0.95036479  1
  Se  Se167  1  0.75440634  0.92538441  0.44964642  1
  Se  Se168  1  0.75205443  0.91290601  0.94833568  1
  Se  Se169  1  0.25661819  0.08368890  0.43564736  1
  Se  Se170  1  0.24527397  0.09114372  0.94860807  1
  Se  Se171  1  0.24167577  0.41775254  0.44825336  1
  Se  Se172  1  0.25343483  0.41865334  0.94490102  1
  Se  Se173  1  0.25725563  0.73281880  0.44142508  1
  Se  Se174  1  0.25354967  0.75295105  0.94468548  1
  Se  Se175  1  0.59874497  0.07401727  0.44395269  1
  Se  Se176  1  0.59315499  0.07525308  0.94306711  1
  Se  Se177  1  0.57828882  0.41937015  0.44472985  1
  Se  Se178  1  0.58367670  0.41283427  0.94769586  1
  Se  Se179  1  0.59706899  0.74573819  0.43377616  1
  Se  Se180  1  0.58908351  0.74396700  0.93975133  1
  Se  Se181  1  0.93202651  0.08112300  0.44187302  1
  Se  Se182  1  0.91544931  0.08451954  0.95421802  1
  Se  Se183  1  0.91408756  0.41601878  0.44315606  1
  Se  Se184  1  0.90340120  0.42566954  0.95685749  1
  Se  Se185  1  0.92282094  0.74803716  0.43910950  1
  Se  Se186  1  0.89165352  0.77033188  0.94755908  1
  Se  Se187  1  0.24717052  0.24858577  0.29890664  1
  Se  Se188  1  0.24969633  0.25467212  0.80333729  1
  Se  Se189  1  0.24196270  0.57200272  0.30841794  1
  Se  Se190  1  0.24828104  0.58482760  0.80993775  1
  Se  Se191  1  0.25011768  0.91360376  0.29542408  1
  Se  Se192  1  0.25137395  0.93613276  0.80457967  1
  Se  Se193  1  0.57113929  0.24576653  0.29929024  1
  Se  Se194  1  0.58380306  0.25276535  0.80038558  1
  Se  Se195  1  0.57130455  0.57719061  0.30743453  1
  Se  Se196  1  0.58018700  0.57879041  0.80988401  1
  Se  Se197  1  0.58539439  0.91018800  0.31343285  1
  Se  Se198  1  0.57607906  0.91184852  0.81162604  1
  Se  Se199  1  0.92305415  0.26029375  0.29775528  1
  Se  Se200  1  0.92148525  0.25374700  0.81057582  1
  Se  Se201  1  0.92183743  0.58015902  0.30113911  1
  Se  Se202  1  0.91864340  0.56045301  0.81658948  1
  Se  Se203  1  0.92237653  0.92781357  0.29811536  1
  Se  Se204  1  0.92006421  0.90587766  0.80999854  1
  Se  Se205  1  0.08343550  0.08452540  0.29778401  1
  Se  Se206  1  0.07856166  0.09703509  0.81709288  1
  Se  Se207  1  0.08404001  0.41440761  0.30188827  1
  Se  Se208  1  0.08084149  0.41831610  0.82020681  1
  Se  Se209  1  0.08095360  0.74747200  0.29743367  1
  Se  Se210  1  0.09270439  0.75999418  0.81289419  1
  Se  Se211  1  0.41237823  0.06839721  0.29661893  1
  Se  Se212  1  0.41153699  0.08316666  0.79985035  1
  Se  Se213  1  0.40545158  0.41531162  0.30565534  1
  Se  Se214  1  0.41402137  0.41793458  0.80272111  1
  Se  Se215  1  0.42194541  0.75652424  0.30964505  1
  Se  Se216  1  0.41289709  0.74922952  0.80017332  1
  Se  Se217  1  0.76323169  0.09797625  0.31283542  1
  Se  Se218  1  0.75967142  0.08355830  0.81457539  1
  Se  Se219  1  0.74758094  0.42538945  0.29659454  1
  Se  Se220  1  0.74871020  0.40945926  0.80626467  1
  Se  Se221  1  0.76980766  0.75565976  0.29893646  1
  Se  Se222  1  0.75992633  0.73923512  0.81055870  1
  Se  Se223  1  0.25033934  0.07818330  0.19283245  1
  Se  Se224  1  0.24145716  0.08694582  0.69813225  1
  Se  Se225  1  0.25113956  0.41335454  0.19099468  1
  Se  Se226  1  0.24772677  0.41710370  0.70283627  1
  Se  Se227  1  0.23366305  0.74699932  0.18167566  1
  Se  Se228  1  0.24519520  0.74697958  0.70623334  1
  Se  Se229  1  0.58130752  0.09326096  0.19158390  1
  Se  Se230  1  0.57090335  0.09405390  0.68674546  1
  Se  Se231  1  0.58101855  0.41922552  0.19663358  1
  Se  Se232  1  0.58750343  0.42146578  0.69587436  1
  Se  Se233  1  0.58180485  0.75559790  0.19414918  1
  Se  Se234  1  0.57218516  0.76296334  0.68946234  1
  Se  Se235  1  0.92205162  0.08941590  0.19599422  1
  Se  Se236  1  0.90652296  0.08806396  0.69265053  1
  Se  Se237  1  0.92039053  0.41576213  0.19291451  1
  Se  Se238  1  0.92358722  0.41016712  0.69703889  1
  Se  Se239  1  0.92075805  0.74421804  0.19255955  1
  Se  Se240  1  0.91641845  0.74423802  0.69488325  1
  Se  Se241  1  0.08455394  0.25506461  0.19167974  1
  Se  Se242  1  0.07556513  0.25122536  0.69965922  1
  Se  Se243  1  0.08147533  0.58140492  0.19013388  1
  Se  Se244  1  0.08820123  0.57143542  0.69442353  1
  Se  Se245  1  0.07932614  0.92122073  0.19386476  1
  Se  Se246  1  0.09238807  0.90275162  0.69213817  1
  Se  Se247  1  0.42189511  0.24154494  0.19937215  1
  Se  Se248  1  0.41012897  0.25696333  0.69952901  1
  Se  Se249  1  0.41300868  0.57718820  0.18931848  1
  Se  Se250  1  0.41376423  0.58507003  0.69703465  1
  Se  Se251  1  0.41433427  0.91308426  0.19658439  1
  Se  Se252  1  0.40893001  0.92569323  0.69701897  1
  Se  Se253  1  0.75048192  0.25777084  0.19704575  1
  Se  Se254  1  0.75000919  0.25320708  0.70568309  1
  Se  Se255  1  0.76097645  0.58339119  0.17889395  1
  Se  Se256  1  0.76363051  0.57224844  0.69209781  1
  Se  Se257  1  0.76413629  0.91598578  0.19509591  1
  Se  Se258  1  0.75795661  0.90985420  0.69537133  1
