# generated using pymatgen
data_In86Cu29Se144
_symmetry_space_group_name_H-M   'P 1'
_cell_length_a   17.58725448
_cell_length_b   17.59085414
_cell_length_c   23.44581878
_cell_angle_alpha   89.98521487
_cell_angle_beta   89.96047595
_cell_angle_gamma   89.99516818
_symmetry_Int_Tables_number   1
_chemical_formula_structural   In86Cu29Se144
_chemical_formula_sum   'In86 Cu29 Se144'
_cell_volume   7253.54416406
_cell_formula_units_Z   1
loop_
 _symmetry_equiv_pos_site_id
 _symmetry_equiv_pos_as_xyz
  1  'x, y, z'
loop_
 _atom_site_type_symbol
 _atom_site_label
 _atom_site_symmetry_multiplicity
 _atom_site_fract_x
 _atom_site_fract_y
 _atom_site_fract_z
 _atom_site_occupancy
  In  In0  1  -0.01206026  0.16682826  0.12118390  1
  In  In1  1  0.00816857  0.17101801  0.61541325  1
  In  In2  1  0.00848606  0.50094866  0.12497059  1
  In  In3  1  0.01044848  0.48434379  0.64612581  1
  In  In4  1  -0.04011273  0.85777156  0.15898176  1
  In  In5  1  -0.01469962  0.84094493  0.62107973  1
  In  In6  1  0.32605708  0.17165352  0.14039175  1
  In  In7  1  0.32596192  0.16312248  0.61835584  1
  In  In8  1  0.34511334  0.48942342  0.12962014  1
  In  In9  1  0.32782556  0.50712094  0.62054849  1
  In  In10  1  0.31907616  0.83918524  0.13692510  1
  In  In11  1  0.34816407  0.83582538  0.62317150  1
  In  In12  1  0.67091466  0.15763563  0.13307940  1
  In  In13  1  0.66798385  0.16300526  0.62199909  1
  In  In14  1  0.65899796  0.50280416  0.12576916  1
  In  In15  1  0.68659822  0.49155456  0.64694878  1
  In  In16  1  0.68242776  0.83037889  0.13469444  1
  In  In17  1  0.67932489  0.82319059  0.63109577  1
  In  In18  1  0.17405922  0.02139815  0.35792055  1
  In  In19  1  0.16722932  -0.01113664  0.86984628  1
  In  In20  1  0.17898511  0.31747060  0.38188866  1
  In  In21  1  0.15520182  0.34702900  0.87008184  1
  In  In22  1  0.15863070  0.65465920  0.37322040  1
  In  In23  1  0.15866738  0.66499761  0.87133576  1
  In  In24  1  0.51041247  0.00791003  0.37222622  1
  In  In25  1  0.50005400  0.00086708  0.86974364  1
  In  In26  1  0.48943996  0.32302490  0.37148345  1
  In  In27  1  0.51294945  0.32705078  0.87854990  1
  In  In28  1  0.50983432  0.67472033  0.36932618  1
  In  In29  1  0.50120734  0.65346349  0.88161920  1
  In  In30  1  0.83663662  0.00068256  0.37242160  1
  In  In31  1  0.82632099  0.01470097  0.88840025  1
  In  In32  1  0.81685281  0.33138491  0.37354465  1
  In  In33  1  0.82712509  0.32655141  0.86919185  1
  In  In34  1  0.84159419  0.67568084  0.36370229  1
  In  In35  1  0.83879145  0.67221603  0.87080100  1
  In  In36  1  0.00742090  0.15827448  0.37747961  1
  In  In37  1  -0.01764851  0.16757766  0.87691302  1
  In  In38  1  0.00220949  0.50746389  0.37481679  1
  In  In39  1  -0.02328138  0.48635013  0.84586982  1
  In  In40  1  -0.01403270  0.83196466  0.36802565  1
  In  In41  1  -0.00420101  0.82613782  0.87707203  1
  In  In42  1  0.33317966  0.16917184  0.37364273  1
  In  In43  1  0.34449638  0.16550513  0.87371424  1
  In  In44  1  0.32395607  0.48635168  0.37008554  1
  In  In45  1  0.33181656  0.50917196  0.88206901  1
  In  In46  1  0.34474862  0.83854795  0.36565880  1
  In  In47  1  0.32348392  0.83727807  0.87612276  1
  In  In48  1  0.66668168  0.16564471  0.37857935  1
  In  In49  1  0.67603694  0.17308490  0.86801963  1
  In  In50  1  0.66864643  0.50008108  0.36790733  1
  In  In51  1  0.66502361  0.48937018  0.86755468  1
  In  In52  1  0.69274237  0.85296816  0.35206602  1
  In  In53  1  0.67551636  0.84773979  0.87333470  1
  In  In54  1  0.16088452  0.00742541  0.14202190  1
  In  In55  1  0.16651696  0.01588731  0.62037408  1
  In  In56  1  0.17064914  0.33978124  0.12603672  1
  In  In57  1  0.16210215  0.33043208  0.62026127  1
  In  In58  1  0.15467834  0.67448544  0.13666192  1
  In  In59  1  0.16070506  0.65232243  0.61936503  1
  In  In60  1  0.49759348  0.00384437  0.13556624  1
  In  In61  1  0.49747903  0.00762859  0.62720471  1
  In  In62  1  0.49005027  0.34693535  0.12806507  1
  In  In63  1  0.51627455  0.33453092  0.62596065  1
  In  In64  1  0.50679054  0.65482981  0.12848155  1
  In  In65  1  0.51358633  0.67156608  0.62440724  1
  In  In66  1  0.83085292  0.00160168  0.12710174  1
  In  In67  1  0.82754498  -0.01033464  0.61556525  1
  In  In68  1  0.83542513  0.30963776  0.12118088  1
  In  In69  1  0.84134138  0.32558262  0.63064071  1
  In  In70  1  0.82737041  0.67489899  0.13198111  1
  In  In71  1  0.83563191  0.66912322  0.63170290  1
  In  In72  1  0.16340062  0.50196579  -0.00238587  1
  In  In73  1  0.83922467  0.49902913  0.50801870  1
  In  In74  1  0.15587825  0.83035583  0.00022569  1
  In  In75  1  0.16301882  0.16641669  0.00928345  1
  In  In76  1  0.83260258  0.49630296  -0.01172450  1
  In  In77  1  0.50356226  0.83266538  0.01272632  1
  In  In78  1  0.33512974  0.66984282  0.75683843  1
  In  In79  1  0.00134089  0.00024893  0.74681729  1
  In  In80  1  0.50545349  0.17066290  0.00304844  1
  In  In81  1  0.50166708  0.49988268  0.50439552  1
  In  In82  1  0.51039902  0.83184547  0.49881123  1
  In  In83  1  0.00304135  0.33054230  0.24435627  1
  In  In84  1  0.33427848  0.33237013  0.74746547  1
  In  In85  1  0.16153765  0.83823856  0.48550202  1
  Cu  Cu86  1  -0.00416181  0.66832748  0.49528893  1
  Cu  Cu87  1  0.17077879  0.49815642  0.25056671  1
  Cu  Cu88  1  0.33279989  0.65941605  0.00970305  1
  Cu  Cu89  1  0.32918178  0.65660317  0.49173435  1
  Cu  Cu90  1  0.82771611  0.49920073  0.24748517  1
  Cu  Cu91  1  0.50472248  0.17026840  0.25404300  1
  Cu  Cu92  1  0.66807699  0.66951334  0.00633364  1
  Cu  Cu93  1  0.49941009  0.50200677  0.25039408  1
  Cu  Cu94  1  0.32751031  0.32858612  0.49560663  1
  Cu  Cu95  1  0.50574548  0.16058575  0.74982183  1
  Cu  Cu96  1  -0.00584935  0.66574066  -0.00155970  1
  Cu  Cu97  1  0.17486973  0.83387448  0.74845110  1
  Cu  Cu98  1  0.50204257  0.49964528  0.75334568  1
  Cu  Cu99  1  0.67965140  0.66742363  0.50279593  1
  Cu  Cu100  1  0.50537855  0.83975306  0.74833428  1
  Cu  Cu101  1  0.33079995  0.00239383  0.00356895  1
  Cu  Cu102  1  -0.00492569  0.00435188  0.49399645  1
  Cu  Cu103  1  0.32857220  0.00629988  0.49753035  1
  Cu  Cu104  1  0.66261460  0.32544845  0.49971750  1
  Cu  Cu105  1  0.67694264  0.00482049  0.00366493  1
  Cu  Cu106  1  -0.00041685  0.33381850  0.50374501  1
  Cu  Cu107  1  0.66973461  0.00077031  0.49474857  1
  Cu  Cu108  1  0.67006503  0.33338934  -0.00344226  1
  Cu  Cu109  1  0.16500614  0.82783399  0.25997072  1
  Cu  Cu110  1  0.83259732  0.83683647  0.75040938  1
  Cu  Cu111  1  0.16482345  0.17055655  0.74224176  1
  Cu  Cu112  1  0.49690825  0.82816475  0.24485627  1
  Cu  Cu113  1  0.82975229  0.16344332  0.25083645  1
  Cu  Cu114  1  0.83054025  0.16305648  0.74691265  1
  Se  Se115  1  0.07553473  0.06780188  0.06106578  1
  Se  Se116  1  0.08426911  0.08387672  0.54512889  1
  Se  Se117  1  0.07403343  0.40436122  0.05356935  1
  Se  Se118  1  0.07632722  0.42084241  0.55884850  1
  Se  Se119  1  0.06832818  0.74496112  0.06218544  1
  Se  Se120  1  0.07858106  0.75169022  0.55478022  1
  Se  Se121  1  0.40992532  0.08287558  0.06197966  1
  Se  Se122  1  0.41565577  0.08217706  0.55348896  1
  Se  Se123  1  0.41812801  0.42081427  0.04978109  1
  Se  Se124  1  0.40818659  0.40508651  0.56027304  1
  Se  Se125  1  0.40407173  0.74801595  0.06774566  1
  Se  Se126  1  0.41224439  0.73481711  0.55182780  1
  Se  Se127  1  0.75507875  0.09251828  0.05637184  1
  Se  Se128  1  0.75198819  0.08344343  0.55105519  1
  Se  Se129  1  0.74966447  0.41258822  0.05886481  1
  Se  Se130  1  0.74051088  0.40896427  0.56005967  1
  Se  Se131  1  0.75271664  0.75284452  0.05568043  1
  Se  Se132  1  0.76134274  0.75170339  0.55590611  1
  Se  Se133  1  0.26240586  0.25680973  0.05862827  1
  Se  Se134  1  0.24331178  0.24714841  0.55161412  1
  Se  Se135  1  0.24488828  0.58644157  0.06761146  1
  Se  Se136  1  0.24495676  0.57832530  0.54646976  1
  Se  Se137  1  0.24587582  0.92418164  0.05968774  1
  Se  Se138  1  0.25402375  0.91742343  0.55557298  1
  Se  Se139  1  0.59297135  0.25903446  0.06436695  1
  Se  Se140  1  0.57888421  0.24376152  0.55340892  1
  Se  Se141  1  0.58234764  0.58164375  0.05041781  1
  Se  Se142  1  0.60182809  0.58305989  0.56124585  1
  Se  Se143  1  0.59338659  0.92920266  0.06493912  1
  Se  Se144  1  0.59467471  0.92121121  0.56198656  1
  Se  Se145  1  0.92577501  0.25459398  0.04654727  1
  Se  Se146  1  0.91334727  0.24946679  0.55273074  1
  Se  Se147  1  0.91586083  0.58198217  0.05784292  1
  Se  Se148  1  0.93039974  0.58798472  0.56525045  1
  Se  Se149  1  0.91254266  0.90976528  0.06399933  1
  Se  Se150  1  0.91414826  0.91570190  0.54332776  1
  Se  Se151  1  0.07942539  0.25018530  0.44648862  1
  Se  Se152  1  0.08274918  0.25131764  0.93811333  1
  Se  Se153  1  0.08189818  0.58041614  0.45058004  1
  Se  Se154  1  0.06754996  0.58311472  0.93618734  1
  Se  Se155  1  0.07476482  0.93037084  0.42778465  1
  Se  Se156  1  0.07131502  0.92764803  0.94210073  1
  Se  Se157  1  0.41627143  0.24607291  0.44813458  1
  Se  Se158  1  0.40979275  0.25921469  0.94563031  1
  Se  Se159  1  0.41855038  0.58348495  0.43518554  1
  Se  Se160  1  0.41697122  0.58077311  0.95469756  1
  Se  Se161  1  0.41423908  0.92288525  0.44423656  1
  Se  Se162  1  0.41263592  0.92033311  0.94623449  1
  Se  Se163  1  0.75194109  0.24642361  0.44926933  1
  Se  Se164  1  0.75216903  0.24770125  0.94504839  1
  Se  Se165  1  0.75332683  0.58346956  0.44034156  1
  Se  Se166  1  0.73986362  0.59236783  0.93724750  1
  Se  Se167  1  0.75132524  0.91549946  0.44156482  1
  Se  Se168  1  0.75448998  0.91472024  0.95192777  1
  Se  Se169  1  0.24600483  0.08577201  0.44173066  1
  Se  Se170  1  0.25271743  0.07807788  0.93976756  1
  Se  Se171  1  0.24494055  0.41799169  0.44844749  1
  Se  Se172  1  0.25526693  0.40685288  0.94217490  1
  Se  Se173  1  0.25930193  0.74671403  0.43424665  1
  Se  Se174  1  0.25507750  0.73713895  0.94536683  1
  Se  Se175  1  0.58127018  0.08529901  0.44951804  1
  Se  Se176  1  0.59117947  0.07826247  0.94149089  1
  Se  Se177  1  0.58804866  0.41155451  0.44042879  1
  Se  Se178  1  0.58633255  0.41841483  0.94592448  1
  Se  Se179  1  0.60298162  0.74654400  0.43993412  1
  Se  Se180  1  0.58761278  0.74977820  0.94344578  1
  Se  Se181  1  0.91028592  0.08928076  0.44376326  1
  Se  Se182  1  0.92164706  0.08353820  0.95303645  1
  Se  Se183  1  0.92009612  0.40891931  0.43890212  1
  Se  Se184  1  0.92801876  0.40762466  0.93432141  1
  Se  Se185  1  0.91155072  0.75023180  0.44371241  1
  Se  Se186  1  0.91062786  0.75172558  0.94840610  1
  Se  Se187  1  0.25440556  0.25270654  0.30294871  1
  Se  Se188  1  0.24333650  0.24415990  0.80949152  1
  Se  Se189  1  0.25166820  0.58301450  0.30532897  1
  Se  Se190  1  0.24137773  0.57202936  0.80502559  1
  Se  Se191  1  0.25142642  0.91700454  0.30393164  1
  Se  Se192  1  0.25746794  0.91942554  0.79887105  1
  Se  Se193  1  0.58836070  0.25266574  0.30823759  1
  Se  Se194  1  0.58444545  0.24988124  0.80188416  1
  Se  Se195  1  0.58512938  0.58433088  0.30187483  1
  Se  Se196  1  0.58320565  0.58492924  0.80630893  1
  Se  Se197  1  0.57490558  0.91175576  0.30310935  1
  Se  Se198  1  0.58754525  0.92252725  0.80344077  1
  Se  Se199  1  0.91094709  0.24755956  0.30886598  1
  Se  Se200  1  0.91457759  0.24709050  0.79932636  1
  Se  Se201  1  0.91503671  0.57557169  0.30244838  1
  Se  Se202  1  0.92851738  0.60658374  0.79830888  1
  Se  Se203  1  0.90112273  0.90898703  0.29865637  1
  Se  Se204  1  0.91095778  0.91868689  0.81143128  1
  Se  Se205  1  0.07054403  0.08400158  0.29578046  1
  Se  Se206  1  0.08887135  0.09154180  0.80848699  1
  Se  Se207  1  0.08982585  0.41607622  0.31080884  1
  Se  Se208  1  0.08335862  0.41629397  0.79158418  1
  Se  Se209  1  0.07835256  0.74503547  0.30945988  1
  Se  Se210  1  0.08839796  0.75994698  0.80550447  1
  Se  Se211  1  0.42025314  0.08586567  0.30680123  1
  Se  Se212  1  0.41566220  0.08167157  0.80097234  1
  Se  Se213  1  0.41791774  0.41562938  0.30354550  1
  Se  Se214  1  0.42004748  0.42149705  0.81335037  1
  Se  Se215  1  0.41653671  0.74382364  0.30031431  1
  Se  Se216  1  0.42867070  0.76098625  0.81467867  1
  Se  Se217  1  0.74637943  0.08315164  0.30725976  1
  Se  Se218  1  0.75324159  0.07837729  0.80464058  1
  Se  Se219  1  0.74586652  0.41310465  0.29868247  1
  Se  Se220  1  0.76554367  0.42707391  0.80300635  1
  Se  Se221  1  0.73551668  0.73177843  0.30080685  1
  Se  Se222  1  0.74937395  0.75571004  0.80648590  1
  Se  Se223  1  0.26103279  0.07320461  0.20390194  1
  Se  Se224  1  0.25087016  0.08458202  0.69505659  1
  Se  Se225  1  0.25350592  0.41429103  0.19784989  1
  Se  Se226  1  0.24494572  0.42397690  0.69011517  1
  Se  Se227  1  0.24806365  0.74574676  0.20405762  1
  Se  Se228  1  0.25027996  0.75225419  0.68537150  1
  Se  Se229  1  0.58502210  0.08144832  0.20296150  1
  Se  Se230  1  0.58967981  0.07949488  0.69513773  1
  Se  Se231  1  0.58286835  0.41725262  0.19692898  1
  Se  Se232  1  0.58558328  0.41294633  0.70305709  1
  Se  Se233  1  0.58358086  0.74913236  0.19161416  1
  Se  Se234  1  0.58565110  0.75072097  0.69920594  1
  Se  Se235  1  0.91621950  0.08578305  0.19607320  1
  Se  Se236  1  0.91271317  0.08690518  0.68392460  1
  Se  Se237  1  0.90724979  0.41926081  0.18556021  1
  Se  Se238  1  0.88712626  0.43799354  0.69274362  1
  Se  Se239  1  0.93420681  0.72420310  0.19777657  1
  Se  Se240  1  0.92021229  0.75779572  0.69719927  1
  Se  Se241  1  0.09270797  0.23869544  0.18676333  1
  Se  Se242  1  0.07838183  0.25207888  0.69225725  1
  Se  Se243  1  0.08034692  0.57811015  0.20152012  1
  Se  Se244  1  0.07951613  0.59455685  0.69811615  1
  Se  Se245  1  0.08500068  0.91061130  0.20329181  1
  Se  Se246  1  0.09402374  0.91107554  0.68529154  1
  Se  Se247  1  0.42267600  0.25221280  0.19771259  1
  Se  Se248  1  0.42531624  0.24158992  0.68881261  1
  Se  Se249  1  0.41385125  0.58474809  0.19728590  1
  Se  Se250  1  0.42478464  0.57942772  0.69142179  1
  Se  Se251  1  0.41253555  0.91767938  0.19907945  1
  Se  Se252  1  0.41794443  0.91921868  0.69631642  1
  Se  Se253  1  0.74886063  0.25057189  0.19881940  1
  Se  Se254  1  0.74735187  0.24712775  0.69344611  1
  Se  Se255  1  0.74506227  0.58287275  0.19360750  1
  Se  Se256  1  0.73335782  0.60956562  0.69816948  1
  Se  Se257  1  0.74910404  0.92507538  0.20100019  1
  Se  Se258  1  0.75142071  0.92086295  0.69559304  1
