# generated using pymatgen
data_In86Cu29Se144
_symmetry_space_group_name_H-M   'P 1'
_cell_length_a   17.57954774
_cell_length_b   17.57935187
_cell_length_c   23.44014805
_cell_angle_alpha   90.02094615
_cell_angle_beta   90.03205033
_cell_angle_gamma   90.00175961
_symmetry_Int_Tables_number   1
_chemical_formula_structural   In86Cu29Se144
_chemical_formula_sum   'In86 Cu29 Se144'
_cell_volume   7243.87271215
_cell_formula_units_Z   1
loop_
 _symmetry_equiv_pos_site_id
 _symmetry_equiv_pos_as_xyz
  1  'x, y, z'
loop_
 _atom_site_type_symbol
 _atom_site_label
 _atom_site_symmetry_multiplicity
 _atom_site_fract_x
 _atom_site_fract_y
 _atom_site_fract_z
 _atom_site_occupancy
  In  In0  1  -0.00716234  0.17339829  0.13720504  1
  In  In1  1  0.00052436  0.15050171  0.61750967  1
  In  In2  1  -0.01637923  0.51268198  0.13674912  1
  In  In3  1  -0.00960714  0.50993454  0.61801066  1
  In  In4  1  -0.00717404  0.84604806  0.13907066  1
  In  In5  1  0.00056279  0.82879160  0.61638588  1
  In  In6  1  0.34110377  0.15867341  0.12509145  1
  In  In7  1  0.34375761  0.17369445  0.61703590  1
  In  In8  1  0.34242724  0.49067874  0.12165474  1
  In  In9  1  0.35237629  0.49064113  0.63752674  1
  In  In10  1  0.34734512  0.83956225  0.12435409  1
  In  In11  1  0.32534920  0.82041130  0.62098271  1
  In  In12  1  0.67769918  0.18018498  0.11147314  1
  In  In13  1  0.65402356  0.16839216  0.62513762  1
  In  In14  1  0.67040228  0.49861490  0.12326191  1
  In  In15  1  0.66433216  0.49128609  0.61059513  1
  In  In16  1  0.65697528  0.82304443  0.12454788  1
  In  In17  1  0.67885836  0.84635178  0.62066816  1
  In  In18  1  0.17232598  -0.00562968  0.37050947  1
  In  In19  1  0.16939632  0.00188994  0.87366033  1
  In  In20  1  0.14901224  0.33472466  0.37672301  1
  In  In21  1  0.17313109  0.32183769  0.87166651  1
  In  In22  1  0.16085273  0.68730714  0.37246656  1
  In  In23  1  0.16700322  0.65531473  0.87142884  1
  In  In24  1  0.49047800  0.00640867  0.37864957  1
  In  In25  1  0.50333335  -0.02243336  0.88582497  1
  In  In26  1  0.50998283  0.33048139  0.38152296  1
  In  In27  1  0.49792900  0.33981767  0.88216055  1
  In  In28  1  0.51257478  0.65807724  0.38224459  1
  In  In29  1  0.50304840  0.67144948  0.87494634  1
  In  In30  1  0.82991724  -0.01654611  0.37360110  1
  In  In31  1  0.82891715  0.00748977  0.88686449  1
  In  In32  1  0.83261117  0.34016194  0.36951538  1
  In  In33  1  0.80427568  0.34595007  0.90265007  1
  In  In34  1  0.83118703  0.66911320  0.37057876  1
  In  In35  1  0.82521205  0.67188222  0.88402960  1
  In  In36  1  0.00330709  0.17347881  0.37056506  1
  In  In37  1  -0.00620534  0.15982019  0.87849716  1
  In  In38  1  -0.01710493  0.49370053  0.36636557  1
  In  In39  1  -0.00842292  0.49129716  0.87875951  1
  In  In40  1  0.00200692  0.83109595  0.36662555  1
  In  In41  1  -0.00397769  0.82436706  0.87938775  1
  In  In42  1  0.34486594  0.15531151  0.37979720  1
  In  In43  1  0.33182405  0.17383984  0.87238959  1
  In  In44  1  0.34562383  0.50920433  0.37732711  1
  In  In45  1  0.35614133  0.51180865  0.85812791  1
  In  In46  1  0.32353150  0.84555893  0.38316446  1
  In  In47  1  0.34670365  0.83510973  0.87034320  1
  In  In48  1  0.65102951  0.17052133  0.37438944  1
  In  In49  1  0.66910372  0.15785152  0.88544506  1
  In  In50  1  0.66519857  0.50173282  0.37277673  1
  In  In51  1  0.65589795  0.50619271  0.88393106  1
  In  In52  1  0.67738094  0.82389837  0.38232902  1
  In  In53  1  0.66687548  0.83882814  0.87685718  1
  In  In54  1  0.17002170  -0.00410154  0.14144855  1
  In  In55  1  0.16180680  -0.00772980  0.61406570  1
  In  In56  1  0.16168024  0.32128861  0.12850221  1
  In  In57  1  0.18549173  0.33707168  0.61844518  1
  In  In58  1  0.16207698  0.66294648  0.13211251  1
  In  In59  1  0.17644598  0.68155149  0.61934048  1
  In  In60  1  0.49558878  0.00116195  0.12094904  1
  In  In61  1  0.50809276  0.00543321  0.62066534  1
  In  In62  1  0.52279461  0.34998719  0.10351940  1
  In  In63  1  0.50094382  0.32488571  0.61945739  1
  In  In64  1  0.50956799  0.67271399  0.12208130  1
  In  In65  1  0.49141551  0.65970732  0.62083400  1
  In  In66  1  0.84160923  0.00639518  0.12474642  1
  In  In67  1  0.83336166  -0.01090964  0.62677430  1
  In  In68  1  0.82506076  0.33668466  0.12627242  1
  In  In69  1  0.81777341  0.34488560  0.62316156  1
  In  In70  1  0.82660425  0.66710107  0.12538186  1
  In  In71  1  0.83578894  0.66892872  0.61652850  1
  In  In72  1  -0.00036420  -0.00580981  0.74730407  1
  In  In73  1  0.16869374  0.50219583  0.49725727  1
  In  In74  1  0.00641136  0.66896495  0.74158642  1
  In  In75  1  0.33613008  -0.00362783  0.74905813  1
  In  In76  1  0.66513914  0.66936397  0.75253691  1
  In  In77  1  0.16869639  0.83333944  0.00616105  1
  In  In78  1  0.16761139  0.49749051  0.00311349  1
  In  In79  1  0.33129759  0.32791739  0.24768187  1
  In  In80  1  0.83189001  0.17018047  0.49245627  1
  In  In81  1  0.00055792  0.32303678  0.75445624  1
  In  In82  1  0.66430125  0.00200884  0.25152899  1
  In  In83  1  0.65890113  0.33726500  0.75190375  1
  In  In84  1  0.33092757  0.67499803  0.25535895  1
  In  In85  1  0.16584616  0.16493191  -0.00069655  1
  Cu  Cu86  1  0.17787942  0.49770429  0.74684185  1
  Cu  Cu87  1  0.34227252  0.66876120  -0.00399020  1
  Cu  Cu88  1  -0.00289069  0.32891258  0.49394209  1
  Cu  Cu89  1  0.66610645  0.66643694  0.00233946  1
  Cu  Cu90  1  -0.00392513  0.66800189  0.49221901  1
  Cu  Cu91  1  0.66489428  0.00045847  0.49658288  1
  Cu  Cu92  1  0.66485414  -0.00931239  0.00490517  1
  Cu  Cu93  1  0.49963877  0.16273007  0.74776066  1
  Cu  Cu94  1  -0.01326155  0.66680957  0.00744617  1
  Cu  Cu95  1  0.33843974  0.66841999  0.49886300  1
  Cu  Cu96  1  0.66912542  0.67112937  0.49897812  1
  Cu  Cu97  1  -0.00312085  0.00100940  0.00925147  1
  Cu  Cu98  1  -0.01100721  0.33607631  0.00875078  1
  Cu  Cu99  1  0.50653492  0.50129700  0.24726046  1
  Cu  Cu100  1  0.00715739  -0.00787883  0.49359541  1
  Cu  Cu101  1  0.16519373  0.16442251  0.25420105  1
  Cu  Cu102  1  0.34083490  0.33802477  -0.00654737  1
  Cu  Cu103  1  0.17520212  0.16995482  0.74152515  1
  Cu  Cu104  1  0.83131016  0.50602913  0.74998572  1
  Cu  Cu105  1  0.50435320  0.83073550  0.75026487  1
  Cu  Cu106  1  0.82550412  0.50207649  0.24800306  1
  Cu  Cu107  1  0.49846389  0.83473270  0.25166355  1
  Cu  Cu108  1  0.33518890  -0.00197629  0.50172930  1
  Cu  Cu109  1  0.83126453  0.82916756  0.25053286  1
  Cu  Cu110  1  0.15631270  0.50014558  0.25401108  1
  Cu  Cu111  1  0.33632311  0.32726202  0.49966821  1
  Cu  Cu112  1  0.50010952  0.17328009  0.24772200  1
  Cu  Cu113  1  0.82807759  0.16828338  0.76367512  1
  Cu  Cu114  1  0.83216271  0.16876141  0.24579792  1
  Se  Se115  1  0.08115748  0.07999753  0.06721662  1
  Se  Se116  1  0.08643773  0.08135852  0.54524241  1
  Se  Se117  1  0.07492907  0.41413178  0.06628375  1
  Se  Se118  1  0.07576387  0.41011214  0.55752395  1
  Se  Se119  1  0.07376212  0.74500954  0.06306123  1
  Se  Se120  1  0.08256635  0.74539337  0.54825052  1
  Se  Se121  1  0.41912557  0.08737719  0.05045106  1
  Se  Se122  1  0.42123782  0.08334467  0.55176480  1
  Se  Se123  1  0.42245482  0.42635808  0.04362964  1
  Se  Se124  1  0.41472881  0.41293440  0.55543979  1
  Se  Se125  1  0.41990245  0.75086477  0.05469161  1
  Se  Se126  1  0.42051710  0.75332136  0.55216259  1
  Se  Se127  1  0.75016724  0.07588875  0.05503210  1
  Se  Se128  1  0.74762424  0.08048874  0.55808300  1
  Se  Se129  1  0.73797919  0.40538990  0.05321751  1
  Se  Se130  1  0.76151445  0.42587590  0.54426306  1
  Se  Se131  1  0.74820955  0.75221939  0.05456776  1
  Se  Se132  1  0.75337690  0.75532266  0.55185310  1
  Se  Se133  1  0.25906619  0.26078768  0.05544414  1
  Se  Se134  1  0.24853520  0.24340268  0.54805447  1
  Se  Se135  1  0.26035635  0.59360004  0.05963832  1
  Se  Se136  1  0.26163477  0.58248430  0.56069888  1
  Se  Se137  1  0.25517118  0.92959068  0.06117288  1
  Se  Se138  1  0.25123233  0.91077383  0.55133103  1
  Se  Se139  1  0.55724870  0.22253633  0.05624805  1
  Se  Se140  1  0.60100490  0.26300452  0.55309710  1
  Se  Se141  1  0.58285341  0.58160120  0.05458516  1
  Se  Se142  1  0.58527779  0.58880167  0.55266901  1
  Se  Se143  1  0.57784042  0.91074373  0.05741360  1
  Se  Se144  1  0.58458474  0.91651508  0.55232527  1
  Se  Se145  1  0.91346668  0.24731557  0.06248044  1
  Se  Se146  1  0.91871154  0.25627619  0.56226215  1
  Se  Se147  1  0.90633597  0.57746770  0.05633588  1
  Se  Se148  1  0.91180174  0.58415122  0.54430322  1
  Se  Se149  1  0.91596217  0.91160060  0.05804322  1
  Se  Se150  1  0.92022261  0.92042611  0.55343909  1
  Se  Se151  1  0.08400993  0.24345171  0.44901030  1
  Se  Se152  1  0.07151407  0.26191851  0.94490830  1
  Se  Se153  1  0.07720123  0.58537662  0.43357151  1
  Se  Se154  1  0.07112672  0.59035539  0.94646712  1
  Se  Se155  1  0.08745638  0.90945940  0.43825275  1
  Se  Se156  1  0.07695574  0.92640396  0.94438974  1
  Se  Se157  1  0.42215176  0.24656711  0.44560324  1
  Se  Se158  1  0.41758948  0.24574502  0.94428615  1
  Se  Se159  1  0.42366586  0.58138351  0.45251256  1
  Se  Se160  1  0.42121135  0.58267700  0.94202151  1
  Se  Se161  1  0.42060475  0.91514796  0.44924540  1
  Se  Se162  1  0.40557848  0.91066377  0.95148329  1
  Se  Se163  1  0.73871215  0.26063671  0.43900029  1
  Se  Se164  1  0.75823353  0.22917524  0.95586563  1
  Se  Se165  1  0.74858643  0.58797255  0.44076361  1
  Se  Se166  1  0.74918063  0.58144588  0.94909849  1
  Se  Se167  1  0.75264519  0.91445161  0.45139045  1
  Se  Se168  1  0.75224302  0.91238013  0.94978292  1
  Se  Se169  1  0.25203920  0.07774623  0.44357497  1
  Se  Se170  1  0.25992279  0.07504404  0.94312740  1
  Se  Se171  1  0.25880003  0.40869997  0.43710788  1
  Se  Se172  1  0.25453146  0.41569466  0.93556557  1
  Se  Se173  1  0.25001634  0.74824216  0.44789706  1
  Se  Se174  1  0.25178163  0.74199883  0.94002321  1
  Se  Se175  1  0.58023053  0.08504146  0.44674437  1
  Se  Se176  1  0.58194790  0.07133993  0.94813468  1
  Se  Se177  1  0.56700498  0.43822794  0.44132154  1
  Se  Se178  1  0.60578945  0.39540656  0.94492706  1
  Se  Se179  1  0.58147730  0.75469365  0.44932161  1
  Se  Se180  1  0.58702751  0.75042292  0.94399468  1
  Se  Se181  1  0.92173975  0.07382889  0.43751626  1
  Se  Se182  1  0.91782105  0.08722486  0.95475441  1
  Se  Se183  1  0.91431982  0.41512291  0.44477568  1
  Se  Se184  1  0.91078024  0.42314316  0.95442100  1
  Se  Se185  1  0.91571128  0.75390045  0.43811842  1
  Se  Se186  1  0.91083415  0.75389238  0.95149818  1
  Se  Se187  1  0.24473083  0.24558212  0.31538917  1
  Se  Se188  1  0.25586341  0.25177282  0.79676856  1
  Se  Se189  1  0.24131152  0.57674716  0.31220613  1
  Se  Se190  1  0.25416240  0.58658478  0.79978820  1
  Se  Se191  1  0.25964877  0.91687437  0.30163154  1
  Se  Se192  1  0.24114145  0.90715898  0.80652876  1
  Se  Se193  1  0.58205013  0.25699833  0.30083221  1
  Se  Se194  1  0.57930983  0.23936053  0.81212445  1
  Se  Se195  1  0.58468406  0.58772288  0.30154498  1
  Se  Se196  1  0.57487959  0.57212655  0.80389084  1
  Se  Se197  1  0.58027083  0.91138266  0.31505126  1
  Se  Se198  1  0.58322345  0.91598575  0.80455350  1
  Se  Se199  1  0.91350086  0.25080996  0.30415543  1
  Se  Se200  1  0.90237976  0.25471152  0.82157043  1
  Se  Se201  1  0.91195016  0.58623486  0.29902953  1
  Se  Se202  1  0.91458558  0.58397050  0.80878895  1
  Se  Se203  1  0.91456523  0.91626157  0.29958980  1
  Se  Se204  1  0.91210119  0.91488642  0.81481395  1
  Se  Se205  1  0.08250669  0.08110032  0.30730539  1
  Se  Se206  1  0.09156563  0.09543718  0.80362958  1
  Se  Se207  1  0.07387241  0.41195726  0.30207915  1
  Se  Se208  1  0.09197194  0.42418899  0.80779081  1
  Se  Se209  1  0.08226942  0.75056319  0.29447943  1
  Se  Se210  1  0.09117359  0.75706287  0.80827799  1
  Se  Se211  1  0.42050967  0.08576214  0.29994243  1
  Se  Se212  1  0.42448417  0.08244346  0.81208638  1
  Se  Se213  1  0.42123594  0.42218927  0.30476596  1
  Se  Se214  1  0.41911170  0.40356577  0.80244908  1
  Se  Se215  1  0.42422434  0.75546877  0.31807010  1
  Se  Se216  1  0.42003653  0.74700516  0.80113413  1
  Se  Se217  1  0.75587153  0.09199086  0.31263184  1
  Se  Se218  1  0.74719416  0.07886815  0.81074172  1
  Se  Se219  1  0.74409708  0.41695022  0.30149009  1
  Se  Se220  1  0.75437605  0.42534436  0.81155339  1
  Se  Se221  1  0.74319276  0.74884366  0.30114857  1
  Se  Se222  1  0.76064318  0.75894257  0.80632274  1
  Se  Se223  1  0.25418128  0.09127972  0.19877386  1
  Se  Se224  1  0.24758520  0.08218973  0.68350125  1
  Se  Se225  1  0.23946701  0.42615104  0.19154681  1
  Se  Se226  1  0.25736585  0.40818638  0.69744173  1
  Se  Se227  1  0.24686878  0.76157875  0.18932967  1
  Se  Se228  1  0.25066730  0.74828300  0.69883732  1
  Se  Se229  1  0.58204243  0.09181396  0.18810529  1
  Se  Se230  1  0.58587974  0.08028148  0.69769880  1
  Se  Se231  1  0.58345190  0.41480394  0.19157932  1
  Se  Se232  1  0.57562807  0.42606266  0.68817068  1
  Se  Se233  1  0.58077424  0.74779796  0.20166217  1
  Se  Se234  1  0.58282929  0.75594162  0.68475545  1
  Se  Se235  1  0.91795220  0.07902588  0.20275578  1
  Se  Se236  1  0.90747960  0.09470183  0.69695356  1
  Se  Se237  1  0.91031322  0.41416137  0.19796904  1
  Se  Se238  1  0.91447903  0.42188945  0.69469009  1
  Se  Se239  1  0.91330183  0.74600031  0.19540631  1
  Se  Se240  1  0.90810164  0.75928082  0.69158646  1
  Se  Se241  1  0.08223872  0.25208500  0.20465793  1
  Se  Se242  1  0.08749853  0.24424023  0.68306101  1
  Se  Se243  1  0.07708423  0.58798124  0.20206590  1
  Se  Se244  1  0.09569345  0.57253479  0.68434703  1
  Se  Se245  1  0.08519404  0.91564344  0.20600510  1
  Se  Se246  1  0.09120943  0.90424445  0.69048993  1
  Se  Se247  1  0.42836334  0.25655793  0.18290549  1
  Se  Se248  1  0.42026116  0.24787501  0.69378811  1
  Se  Se249  1  0.41763062  0.58081391  0.19272700  1
  Se  Se250  1  0.41694715  0.59157080  0.70034094  1
  Se  Se251  1  0.42069157  0.92176559  0.19857944  1
  Se  Se252  1  0.42440299  0.90874177  0.68672003  1
  Se  Se253  1  0.74388374  0.24946211  0.19572477  1
  Se  Se254  1  0.75562674  0.24616366  0.69559305  1
  Se  Se255  1  0.74258855  0.58653117  0.19525992  1
  Se  Se256  1  0.75218281  0.57948516  0.68656905  1
  Se  Se257  1  0.75176266  0.91194499  0.18966882  1
  Se  Se258  1  0.74759309  0.92320309  0.69946869  1
