# generated using pymatgen
data_In86Cu29Se144
_symmetry_space_group_name_H-M   'P 1'
_cell_length_a   17.58706661
_cell_length_b   17.58507576
_cell_length_c   23.44772391
_cell_angle_alpha   90.00534154
_cell_angle_beta   89.97590612
_cell_angle_gamma   89.99755726
_symmetry_Int_Tables_number   1
_chemical_formula_structural   In86Cu29Se144
_chemical_formula_sum   'In86 Cu29 Se144'
_cell_volume   7251.67452194
_cell_formula_units_Z   1
loop_
 _symmetry_equiv_pos_site_id
 _symmetry_equiv_pos_as_xyz
  1  'x, y, z'
loop_
 _atom_site_type_symbol
 _atom_site_label
 _atom_site_symmetry_multiplicity
 _atom_site_fract_x
 _atom_site_fract_y
 _atom_site_fract_z
 _atom_site_occupancy
  In  In0  1  -0.00707774  0.15310706  0.11890591  1
  In  In1  1  -0.00164201  0.16646719  0.63592990  1
  In  In2  1  0.01148234  0.50677104  0.12498917  1
  In  In3  1  -0.00208256  0.50408409  0.62339880  1
  In  In4  1  -0.00884000  0.83988581  0.13520202  1
  In  In5  1  0.00042946  0.83341471  0.62475553  1
  In  In6  1  0.33862277  0.16909575  0.12837414  1
  In  In7  1  0.33612845  0.16126864  0.62340862  1
  In  In8  1  0.33354718  0.49543117  0.13172760  1
  In  In9  1  0.33549551  0.51619087  0.61922464  1
  In  In10  1  0.34548417  0.82193092  0.13061479  1
  In  In11  1  0.32936416  0.83447938  0.61343337  1
  In  In12  1  0.64904990  0.17572197  0.14325527  1
  In  In13  1  0.67062894  0.16407161  0.63628608  1
  In  In14  1  0.65135140  0.50238049  0.12470558  1
  In  In15  1  0.67238777  0.48599091  0.62893137  1
  In  In16  1  0.67341914  0.84316605  0.12280291  1
  In  In17  1  0.67042869  0.83604822  0.61864696  1
  In  In18  1  0.15465553  -0.01509575  0.36456654  1
  In  In19  1  0.16966887  0.00591623  0.87479906  1
  In  In20  1  0.17561143  0.33171729  0.37389617  1
  In  In21  1  0.15363705  0.32969768  0.87944492  1
  In  In22  1  0.16501098  0.67091437  0.37461208  1
  In  In23  1  0.15784393  0.67718993  0.87162257  1
  In  In24  1  0.49222054  -0.01271265  0.35890891  1
  In  In25  1  0.51279283  -0.00532551  0.88776058  1
  In  In26  1  0.49837065  0.33112522  0.35765075  1
  In  In27  1  0.50765875  0.32266835  0.88766530  1
  In  In28  1  0.50465489  0.68835149  0.37540747  1
  In  In29  1  0.49281428  0.67372355  0.88928568  1
  In  In30  1  0.81698122  -0.02380353  0.35777504  1
  In  In31  1  0.82485030  -0.01095964  0.87154580  1
  In  In32  1  0.82844353  0.34458975  0.37559090  1
  In  In33  1  0.83635040  0.33718462  0.86922870  1
  In  In34  1  0.83209016  0.65897329  0.38545863  1
  In  In35  1  0.84732572  0.67373750  0.87070129  1
  In  In36  1  0.00818954  0.15526801  0.37391140  1
  In  In37  1  0.00660508  0.17073234  0.87388438  1
  In  In38  1  -0.01195390  0.51327768  0.38545255  1
  In  In39  1  0.00008282  0.50032904  0.86730732  1
  In  In40  1  -0.00169859  0.83362593  0.37612647  1
  In  In41  1  -0.00661116  0.82278453  0.86498205  1
  In  In42  1  0.33913805  0.16307243  0.35393796  1
  In  In43  1  0.33388351  0.16651230  0.89010095  1
  In  In44  1  0.32204952  0.49534998  0.36897977  1
  In  In45  1  0.34300508  0.51070626  0.88048617  1
  In  In46  1  0.33278657  0.83023095  0.36935422  1
  In  In47  1  0.33398043  0.84188306  0.87903604  1
  In  In48  1  0.65262888  0.15928977  0.35840502  1
  In  In49  1  0.66410772  0.15713046  0.87605740  1
  In  In50  1  0.67810855  0.50073464  0.37378059  1
  In  In51  1  0.66484617  0.49191078  0.87700887  1
  In  In52  1  0.66073155  0.82738502  0.38625342  1
  In  In53  1  0.65556675  0.85138473  0.88118275  1
  In  In54  1  0.16191594  0.01001765  0.12868145  1
  In  In55  1  0.15982015  -0.01355516  0.62048413  1
  In  In56  1  0.17887160  0.33600666  0.12317642  1
  In  In57  1  0.14959237  0.32997901  0.62465617  1
  In  In58  1  0.16536119  0.66507017  0.13525421  1
  In  In59  1  0.16362682  0.66218610  0.61821181  1
  In  In60  1  0.50202606  -0.00083693  0.12909447  1
  In  In61  1  0.51079024  -0.00154768  0.62786875  1
  In  In62  1  0.49543705  0.33299155  0.12910628  1
  In  In63  1  0.51370538  0.34291245  0.62866260  1
  In  In64  1  0.48603422  0.66278174  0.11079867  1
  In  In65  1  0.49442416  0.67593078  0.62212311  1
  In  In66  1  0.83312611  -0.00991133  0.13559616  1
  In  In67  1  0.84325139  -0.01092267  0.63022109  1
  In  In68  1  0.83156382  0.32020034  0.12366960  1
  In  In69  1  0.82995489  0.33812333  0.63197690  1
  In  In70  1  0.83197799  0.68844567  0.13088952  1
  In  In71  1  0.84242491  0.68643478  0.60797266  1
  In  In72  1  0.83274538  0.16272197  0.49831442  1
  In  In73  1  0.50363337  0.50554002  0.49564090  1
  In  In74  1  0.33122398  0.67186960  0.75417147  1
  In  In75  1  0.66492664  0.66819839  0.25151398  1
  In  In76  1  0.67075651  0.66970343  0.74249726  1
  In  In77  1  0.33163129  -0.00156766  0.75547145  1
  In  In78  1  0.17212806  0.49676591  0.00319034  1
  In  In79  1  0.82931340  0.16017461  0.00127391  1
  In  In80  1  0.17283885  0.83253977  -0.00162368  1
  In  In81  1  0.33442243  0.33344375  0.74873194  1
  In  In82  1  0.83474024  0.50401777  -0.00942095  1
  In  In83  1  0.17017908  0.16200677  0.49411241  1
  In  In84  1  -0.00177482  0.33256268  0.25005784  1
  In  In85  1  0.49898365  0.16369049  0.48788997  1
  Cu  Cu86  1  0.16101289  0.16458927  0.75384431  1
  Cu  Cu87  1  0.83279142  0.16213460  0.24729244  1
  Cu  Cu88  1  -0.00058006  -0.00677361  0.00441114  1
  Cu  Cu89  1  0.51062814  0.49789665  0.75510930  1
  Cu  Cu90  1  0.33870372  0.33224932  0.00878861  1
  Cu  Cu91  1  0.49523649  0.50169844  0.24539400  1
  Cu  Cu92  1  0.66911299  0.33038989  0.49995205  1
  Cu  Cu93  1  0.33640174  0.00250846  0.00701408  1
  Cu  Cu94  1  0.50798657  0.16740879  0.75950931  1
  Cu  Cu95  1  0.66762126  0.67576771  0.00493030  1
  Cu  Cu96  1  0.32959162  0.34038294  0.49396476  1
  Cu  Cu97  1  0.83223724  0.50024742  0.25469122  1
  Cu  Cu98  1  0.83248593  0.16556790  0.75545830  1
  Cu  Cu99  1  -0.00446379  -0.00871990  0.49805217  1
  Cu  Cu100  1  -0.00327426  0.67542560  -0.00002452  1
  Cu  Cu101  1  0.66105725  0.33470058  0.00437973  1
  Cu  Cu102  1  0.66913221  -0.00997603  0.49948382  1
  Cu  Cu103  1  0.16103405  0.49710640  0.74474862  1
  Cu  Cu104  1  0.33011696  0.67227580  0.49475375  1
  Cu  Cu105  1  -0.00273357  0.34419047  0.50318443  1
  Cu  Cu106  1  0.15939459  0.50759653  0.25425168  1
  Cu  Cu107  1  0.16971019  0.16667059  0.24563353  1
  Cu  Cu108  1  0.83036230  0.83461017  0.74356496  1
  Cu  Cu109  1  0.00584857  0.67074276  0.49933615  1
  Cu  Cu110  1  0.17000792  0.83616736  0.25058326  1
  Cu  Cu111  1  0.33389672  -0.00756103  0.48727937  1
  Cu  Cu112  1  0.84118280  0.50330425  0.74869829  1
  Cu  Cu113  1  0.50157467  0.83097397  0.24723919  1
  Cu  Cu114  1  0.66393571  0.00490771  0.00662119  1
  Se  Se115  1  0.08406767  0.08125633  0.04994891  1
  Se  Se116  1  0.07116944  0.08204643  0.55460834  1
  Se  Se117  1  0.07531095  0.40638225  0.05657648  1
  Se  Se118  1  0.08625747  0.42228848  0.55424629  1
  Se  Se119  1  0.08096558  0.74810428  0.06157977  1
  Se  Se120  1  0.08644174  0.75530502  0.55408608  1
  Se  Se121  1  0.42085261  0.08432356  0.05972421  1
  Se  Se122  1  0.41027788  0.07301423  0.55145822  1
  Se  Se123  1  0.41775777  0.42136119  0.05886278  1
  Se  Se124  1  0.41435474  0.41041683  0.55790948  1
  Se  Se125  1  0.41470788  0.75880409  0.04655171  1
  Se  Se126  1  0.41680155  0.75218009  0.54794420  1
  Se  Se127  1  0.74342294  0.08160325  0.07035834  1
  Se  Se128  1  0.74270902  0.07558917  0.56061659  1
  Se  Se129  1  0.74812791  0.41539918  0.05842227  1
  Se  Se130  1  0.75230830  0.41100799  0.55397194  1
  Se  Se131  1  0.75516695  0.75786212  0.05291534  1
  Se  Se132  1  0.73493548  0.74353889  0.54775863  1
  Se  Se133  1  0.25190147  0.24622914  0.05529816  1
  Se  Se134  1  0.25706839  0.25656232  0.55747635  1
  Se  Se135  1  0.25507252  0.59175959  0.06123777  1
  Se  Se136  1  0.25020931  0.58473708  0.54698524  1
  Se  Se137  1  0.25500742  0.92044955  0.06498108  1
  Se  Se138  1  0.24720642  0.92008878  0.54666771  1
  Se  Se139  1  0.58350505  0.25064669  0.06128007  1
  Se  Se140  1  0.58776886  0.24808263  0.55760156  1
  Se  Se141  1  0.58467486  0.58565969  0.04987397  1
  Se  Se142  1  0.58828576  0.58271438  0.56655111  1
  Se  Se143  1  0.58089083  0.91639928  0.05574693  1
  Se  Se144  1  0.57756352  0.91514601  0.55232168  1
  Se  Se145  1  0.92568971  0.25618930  0.05141207  1
  Se  Se146  1  0.92243875  0.25311464  0.55938138  1
  Se  Se147  1  0.91870818  0.59069359  0.05896344  1
  Se  Se148  1  0.91992397  0.58592428  0.55102832  1
  Se  Se149  1  0.91423963  0.91570509  0.05896855  1
  Se  Se150  1  0.91207176  0.91010612  0.55273807  1
  Se  Se151  1  0.07304913  0.25899920  0.44273559  1
  Se  Se152  1  0.09311603  0.23550661  0.94879213  1
  Se  Se153  1  0.08763528  0.58494597  0.44661675  1
  Se  Se154  1  0.07703081  0.58919335  0.94410546  1
  Se  Se155  1  0.08642989  0.91419217  0.44660220  1
  Se  Se156  1  0.07707522  0.91696710  0.93894081  1
  Se  Se157  1  0.40590332  0.25806763  0.43439993  1
  Se  Se158  1  0.42129475  0.24593496  0.95625401  1
  Se  Se159  1  0.41031147  0.58993153  0.43465877  1
  Se  Se160  1  0.42254818  0.57912454  0.95485473  1
  Se  Se161  1  0.42199117  0.91115710  0.43788691  1
  Se  Se162  1  0.41562609  0.91891926  0.94994926  1
  Se  Se163  1  0.73914077  0.24635765  0.43560226  1
  Se  Se164  1  0.74539578  0.25957519  0.94236487  1
  Se  Se165  1  0.74779823  0.57415892  0.45095124  1
  Se  Se166  1  0.74266671  0.59915969  0.93646509  1
  Se  Se167  1  0.75615292  0.91174768  0.44606491  1
  Se  Se168  1  0.74748395  0.92191139  0.95155966  1
  Se  Se169  1  0.25795697  0.07817506  0.42877768  1
  Se  Se170  1  0.24835493  0.07754689  0.95116482  1
  Se  Se171  1  0.24226329  0.42230349  0.44616169  1
  Se  Se172  1  0.26165867  0.40620798  0.93991791  1
  Se  Se173  1  0.24739798  0.75711227  0.44266982  1
  Se  Se174  1  0.26011891  0.73589114  0.94091095  1
  Se  Se175  1  0.59028741  0.06792905  0.43659457  1
  Se  Se176  1  0.58248554  0.09155640  0.95434233  1
  Se  Se177  1  0.58439952  0.40402255  0.43793392  1
  Se  Se178  1  0.58105270  0.42117932  0.95087093  1
  Se  Se179  1  0.59497295  0.73120768  0.45438406  1
  Se  Se180  1  0.58423403  0.75783721  0.94915194  1
  Se  Se181  1  0.91646414  0.07074517  0.43649476  1
  Se  Se182  1  0.92018184  0.07285365  0.94001376  1
  Se  Se183  1  0.90904681  0.41911242  0.44871283  1
  Se  Se184  1  0.92990641  0.40877016  0.94200943  1
  Se  Se185  1  0.91801386  0.74969100  0.44625830  1
  Se  Se186  1  0.91457832  0.75821484  0.94639159  1
  Se  Se187  1  0.24853314  0.25409973  0.29833048  1
  Se  Se188  1  0.24915591  0.24157083  0.81030331  1
  Se  Se189  1  0.24835582  0.58933355  0.30348625  1
  Se  Se190  1  0.24163717  0.57198780  0.80910074  1
  Se  Se191  1  0.25711048  0.92097785  0.30054060  1
  Se  Se192  1  0.23670702  0.90300106  0.80591511  1
  Se  Se193  1  0.58651878  0.25452867  0.29275882  1
  Se  Se194  1  0.58904199  0.25390852  0.81084089  1
  Se  Se195  1  0.57362744  0.57690021  0.31165673  1
  Se  Se196  1  0.58096615  0.58853433  0.81283524  1
  Se  Se197  1  0.59067049  0.90243028  0.30552409  1
  Se  Se198  1  0.57980958  0.92550258  0.80535844  1
  Se  Se199  1  0.90965227  0.24132064  0.31238697  1
  Se  Se200  1  0.91850683  0.24873262  0.80575165  1
  Se  Se201  1  0.91201684  0.58491970  0.30765868  1
  Se  Se202  1  0.92306828  0.58903180  0.80029987  1
  Se  Se203  1  0.93784022  0.93264610  0.30679927  1
  Se  Se204  1  0.91316741  0.91503244  0.80168165  1
  Se  Se205  1  0.08560947  0.08331204  0.29818193  1
  Se  Se206  1  0.07996404  0.07801125  0.80520417  1
  Se  Se207  1  0.08098205  0.42361793  0.31431386  1
  Se  Se208  1  0.08540260  0.41333453  0.80377006  1
  Se  Se209  1  0.08472394  0.75480060  0.30526393  1
  Se  Se210  1  0.08026335  0.74582379  0.79660495  1
  Se  Se211  1  0.44387915  0.09796188  0.29690793  1
  Se  Se212  1  0.42037674  0.09027799  0.81518202  1
  Se  Se213  1  0.40990337  0.41998097  0.29937537  1
  Se  Se214  1  0.42477268  0.41924228  0.81203323  1
  Se  Se215  1  0.41662934  0.74696203  0.29923632  1
  Se  Se216  1  0.42571260  0.76095933  0.80964485  1
  Se  Se217  1  0.74684248  0.07864287  0.29792309  1
  Se  Se218  1  0.74760966  0.08046129  0.80540523  1
  Se  Se219  1  0.74571549  0.41337984  0.29944974  1
  Se  Se220  1  0.75486772  0.42556860  0.80450349  1
  Se  Se221  1  0.75489723  0.75074910  0.31431561  1
  Se  Se222  1  0.75123916  0.75996745  0.80995424  1
  Se  Se223  1  0.25528841  0.08187722  0.19606222  1
  Se  Se224  1  0.24152003  0.08870408  0.69089998  1
  Se  Se225  1  0.23984968  0.42277684  0.19950873  1
  Se  Se226  1  0.24843673  0.42466306  0.68535375  1
  Se  Se227  1  0.25193088  0.74979464  0.19841842  1
  Se  Se228  1  0.24541901  0.75510937  0.68758712  1
  Se  Se229  1  0.59644381  0.06320628  0.20020629  1
  Se  Se230  1  0.58297961  0.08193124  0.70094027  1
  Se  Se231  1  0.58245495  0.41752374  0.19742413  1
  Se  Se232  1  0.59320522  0.41152348  0.70527279  1
  Se  Se233  1  0.57717724  0.74939247  0.18372199  1
  Se  Se234  1  0.57393216  0.76148279  0.69215389  1
  Se  Se235  1  0.91984998  0.08094636  0.19684576  1
  Se  Se236  1  0.91308737  0.08218980  0.69900469  1
  Se  Se237  1  0.90983649  0.42378305  0.18800853  1
  Se  Se238  1  0.92264981  0.41657664  0.69538259  1
  Se  Se239  1  0.92877688  0.74003375  0.20191624  1
  Se  Se240  1  0.91350138  0.74906172  0.69232427  1
  Se  Se241  1  0.08458958  0.24414058  0.18628087  1
  Se  Se242  1  0.08071999  0.25286278  0.70231472  1
  Se  Se243  1  0.07392260  0.58924851  0.20274913  1
  Se  Se244  1  0.08373541  0.58572479  0.69229896  1
  Se  Se245  1  0.08658164  0.91894963  0.19583350  1
  Se  Se246  1  0.07135336  0.92688649  0.69339388  1
  Se  Se247  1  0.40345878  0.26369045  0.19792004  1
  Se  Se248  1  0.42987402  0.24046593  0.69140640  1
  Se  Se249  1  0.41684351  0.58919471  0.19249577  1
  Se  Se250  1  0.42784328  0.57738854  0.69681198  1
  Se  Se251  1  0.41596808  0.91621864  0.19783758  1
  Se  Se252  1  0.41559242  0.91182104  0.68892658  1
  Se  Se253  1  0.75191700  0.25297388  0.20006554  1
  Se  Se254  1  0.75148370  0.25151060  0.70056979  1
  Se  Se255  1  0.75515547  0.57773863  0.18846780  1
  Se  Se256  1  0.76377614  0.58158935  0.68510778  1
  Se  Se257  1  0.75856884  0.89888189  0.20193583  1
  Se  Se258  1  0.74367687  0.91759706  0.69326346  1
