# generated using pymatgen
data_In86Cu29Se144
_symmetry_space_group_name_H-M   'P 1'
_cell_length_a   17.58605591
_cell_length_b   17.58890542
_cell_length_c   23.44097315
_cell_angle_alpha   89.99844653
_cell_angle_beta   90.00671368
_cell_angle_gamma   90.00599633
_symmetry_Int_Tables_number   1
_chemical_formula_structural   In86Cu29Se144
_chemical_formula_sum   'In86 Cu29 Se144'
_cell_volume   7250.74939459
_cell_formula_units_Z   1
loop_
 _symmetry_equiv_pos_site_id
 _symmetry_equiv_pos_as_xyz
  1  'x, y, z'
loop_
 _atom_site_type_symbol
 _atom_site_label
 _atom_site_symmetry_multiplicity
 _atom_site_fract_x
 _atom_site_fract_y
 _atom_site_fract_z
 _atom_site_occupancy
  In  In0  1  -0.00302436  0.16815443  0.12766619  1
  In  In1  1  -0.00238057  0.15770270  0.62399767  1
  In  In2  1  0.00757485  0.49040529  0.12764324  1
  In  In3  1  0.00824965  0.50889085  0.62810318  1
  In  In4  1  0.00343360  0.83235483  0.12406811  1
  In  In5  1  0.00130549  0.83859830  0.63973886  1
  In  In6  1  0.33900349  0.15673085  0.12705021  1
  In  In7  1  0.32699526  0.16025981  0.61481577  1
  In  In8  1  0.32303237  0.51606111  0.13055375  1
  In  In9  1  0.33933533  0.50582762  0.63154583  1
  In  In10  1  0.32836115  0.83186879  0.11905781  1
  In  In11  1  0.32693642  0.83321998  0.64096170  1
  In  In12  1  0.67264988  0.16721304  0.11971948  1
  In  In13  1  0.66081970  0.17684530  0.63528510  1
  In  In14  1  0.65699280  0.49155904  0.12280803  1
  In  In15  1  0.65532929  0.50069275  0.63970119  1
  In  In16  1  0.66786145  0.83945805  0.11000316  1
  In  In17  1  0.67503494  0.83172861  0.63654392  1
  In  In18  1  0.17663131  0.00954541  0.36031176  1
  In  In19  1  0.14982792  -0.02483719  0.85499144  1
  In  In20  1  0.15620284  0.31952585  0.36860736  1
  In  In21  1  0.17399187  0.34047946  0.88192270  1
  In  In22  1  0.16750897  0.66950205  0.36289928  1
  In  In23  1  0.16667482  0.67114830  0.87352495  1
  In  In24  1  0.49746307  0.01016570  0.37569871  1
  In  In25  1  0.49943967  0.00001352  0.87511005  1
  In  In26  1  0.49166617  0.32426967  0.36630834  1
  In  In27  1  0.50001955  0.31894430  0.88016788  1
  In  In28  1  0.49168055  0.67789721  0.37485807  1
  In  In29  1  0.51342402  0.67627595  0.86402393  1
  In  In30  1  0.84080992  -0.01253076  0.37672151  1
  In  In31  1  0.83169218  0.00275558  0.87855160  1
  In  In32  1  0.83868071  0.33945610  0.36622391  1
  In  In33  1  0.82098480  0.33012209  0.87560444  1
  In  In34  1  0.84236771  0.65896782  0.37663988  1
  In  In35  1  0.84193142  0.67897782  0.87078141  1
  In  In36  1  0.01390863  0.18026241  0.36883534  1
  In  In37  1  -0.00053966  0.14866262  0.87537553  1
  In  In38  1  0.00286141  0.50090217  0.36615129  1
  In  In39  1  0.00898724  0.51542632  0.87145777  1
  In  In40  1  0.01951691  0.84573923  0.35238335  1
  In  In41  1  -0.00106936  0.82968371  0.88132314  1
  In  In42  1  0.33027867  0.16508642  0.37137854  1
  In  In43  1  0.34582975  0.16233255  0.88150672  1
  In  In44  1  0.33685082  0.49936213  0.36670871  1
  In  In45  1  0.31739398  0.50694865  0.87553270  1
  In  In46  1  0.32506915  0.83129699  0.35615327  1
  In  In47  1  0.33211969  0.83875074  0.87348672  1
  In  In48  1  0.65091929  0.16619582  0.37962480  1
  In  In49  1  0.66819249  0.16263302  0.87490126  1
  In  In50  1  0.67847495  0.49611728  0.37567818  1
  In  In51  1  0.65718334  0.49422772  0.85950689  1
  In  In52  1  0.65869388  0.83620543  0.37630949  1
  In  In53  1  0.66663143  0.83914250  0.87520617  1
  In  In54  1  0.17717752  -0.01766782  0.13628518  1
  In  In55  1  0.15938970  0.00533599  0.63578097  1
  In  In56  1  0.16025821  0.34453061  0.12933537  1
  In  In57  1  0.17765276  0.33373379  0.61802150  1
  In  In58  1  0.16944022  0.66882544  0.12106308  1
  In  In59  1  0.16203945  0.67182294  0.65147865  1
  In  In60  1  0.48882404  -0.00733141  0.11210062  1
  In  In61  1  0.48820987  0.01251738  0.63005209  1
  In  In62  1  0.50664945  0.32512378  0.13091516  1
  In  In63  1  0.51035021  0.32954534  0.62634131  1
  In  In64  1  0.48649061  0.66946567  0.11937060  1
  In  In65  1  0.49765724  0.66202375  0.64184764  1
  In  In66  1  0.84123660  0.00267128  0.11726183  1
  In  In67  1  0.83645488  0.00909171  0.64512030  1
  In  In68  1  0.84150011  0.32034539  0.13050492  1
  In  In69  1  0.82266710  0.31889604  0.62772199  1
  In  In70  1  0.83393171  0.68034034  0.11817629  1
  In  In71  1  0.83208149  0.66881168  0.63494191  1
  In  In72  1  0.16863547  0.15779855  0.00263338  1
  In  In73  1  0.84174520  0.83112617  0.51155732  1
  In  In74  1  0.83595250  0.50104513  -0.00976676  1
  In  In75  1  0.16955132  0.49872064  0.50253196  1
  In  In76  1  0.33831444  0.34056066  0.75019123  1
  In  In77  1  0.66852445  0.66512167  0.25155018  1
  In  In78  1  0.49681235  0.83546337  0.50123134  1
  In  In79  1  -0.00254477  0.33198374  0.75270147  1
  In  In80  1  0.49383448  0.50285376  -0.00384250  1
  In  In81  1  0.83664643  0.16651420  0.50366815  1
  In  In82  1  0.83274021  0.49728117  0.49563102  1
  In  In83  1  0.50110316  0.49570028  0.51054808  1
  In  In84  1  0.66942775  0.00747354  0.25098567  1
  In  In85  1  0.16674828  0.83531648  0.50318480  1
  Cu  Cu86  1  0.66358400  0.00332203  -0.00679029  1
  Cu  Cu87  1  0.83058249  0.17018373  0.24760924  1
  Cu  Cu88  1  0.66360787  0.00162847  0.50761116  1
  Cu  Cu89  1  0.00971570  0.00559941  0.50266774  1
  Cu  Cu90  1  0.83420603  0.49757031  0.24722606  1
  Cu  Cu91  1  0.66831479  0.67175462  -0.01022167  1
  Cu  Cu92  1  0.00594242  0.66794454  -0.00237520  1
  Cu  Cu93  1  0.49246793  0.83389708  0.23778106  1
  Cu  Cu94  1  0.32841286  0.67663450  -0.00189338  1
  Cu  Cu95  1  0.83054760  0.49709030  0.75280040  1
  Cu  Cu96  1  0.17253251  0.50123136  0.24695532  1
  Cu  Cu97  1  0.33373491  0.32232421  0.49137195  1
  Cu  Cu98  1  0.32963236  0.00293670  0.49630461  1
  Cu  Cu99  1  0.66938342  0.32340090  0.00304581  1
  Cu  Cu100  1  0.50435071  0.16523853  0.75411062  1
  Cu  Cu101  1  0.50154629  0.49444399  0.24694780  1
  Cu  Cu102  1  0.33376771  0.33792861  0.00464508  1
  Cu  Cu103  1  0.50267166  0.83986939  0.75308274  1
  Cu  Cu104  1  0.84086242  0.83322194  0.24554222  1
  Cu  Cu105  1  0.17443395  0.16800939  0.74895511  1
  Cu  Cu106  1  0.66385941  0.32933823  0.50281562  1
  Cu  Cu107  1  0.49538205  0.16363726  0.24975679  1
  Cu  Cu108  1  0.32875264  -0.00329255  -0.00405398  1
  Cu  Cu109  1  0.00111263  0.67515269  0.49844139  1
  Cu  Cu110  1  0.83311433  0.83628907  0.76015406  1
  Cu  Cu111  1  0.33121387  0.66851138  0.50475270  1
  Cu  Cu112  1  0.16665151  0.17023534  0.24477400  1
  Cu  Cu113  1  0.00116688  -0.00890975  -0.00017590  1
  Cu  Cu114  1  -0.00115869  0.33060411  0.00483704  1
  Se  Se115  1  0.07941729  0.07081620  0.06368840  1
  Se  Se116  1  0.09236880  0.08662629  0.55693364  1
  Se  Se117  1  0.08495115  0.41717648  0.05026194  1
  Se  Se118  1  0.07293773  0.41107113  0.55773205  1
  Se  Se119  1  0.08623166  0.75265173  0.05267855  1
  Se  Se120  1  0.07963579  0.74562501  0.56572718  1
  Se  Se121  1  0.41094578  0.08496247  0.04652138  1
  Se  Se122  1  0.41833808  0.08301846  0.54775092  1
  Se  Se123  1  0.41433228  0.41703622  0.06588089  1
  Se  Se124  1  0.40278598  0.40257084  0.56032020  1
  Se  Se125  1  0.41845174  0.75705825  0.04769279  1
  Se  Se126  1  0.41020133  0.74692076  0.56561496  1
  Se  Se127  1  0.74925120  0.07978396  0.05201656  1
  Se  Se128  1  0.74854032  0.07745791  0.56555307  1
  Se  Se129  1  0.75082685  0.41116372  0.05681358  1
  Se  Se130  1  0.74013601  0.41431724  0.56144461  1
  Se  Se131  1  0.75131020  0.75270948  0.04519866  1
  Se  Se132  1  0.74236076  0.74118889  0.55938808  1
  Se  Se133  1  0.25228767  0.25498369  0.06251809  1
  Se  Se134  1  0.24638057  0.24563268  0.54653059  1
  Se  Se135  1  0.25108468  0.58490529  0.04942618  1
  Se  Se136  1  0.24876151  0.59475769  0.56644487  1
  Se  Se137  1  0.24436174  0.91681479  0.05106089  1
  Se  Se138  1  0.25837093  0.92309232  0.56206642  1
  Se  Se139  1  0.57964779  0.24598899  0.05480954  1
  Se  Se140  1  0.58274318  0.24324844  0.55428552  1
  Se  Se141  1  0.59131162  0.59278358  0.05399874  1
  Se  Se142  1  0.58777231  0.59333277  0.56369923  1
  Se  Se143  1  0.57924504  0.91761628  0.04489638  1
  Se  Se144  1  0.58675601  0.91836209  0.56654216  1
  Se  Se145  1  0.91537603  0.24483628  0.05299361  1
  Se  Se146  1  0.92646839  0.26161109  0.55843331  1
  Se  Se147  1  0.92284283  0.58567350  0.05671528  1
  Se  Se148  1  0.92051084  0.59311859  0.55657367  1
  Se  Se149  1  0.91511680  0.90862105  0.05258763  1
  Se  Se150  1  0.92689037  0.93139648  0.56529047  1
  Se  Se151  1  0.08461680  0.25022940  0.44872872  1
  Se  Se152  1  0.07901912  0.25118426  0.94130639  1
  Se  Se153  1  0.08076685  0.59146898  0.44102966  1
  Se  Se154  1  0.09025628  0.58358922  0.94745410  1
  Se  Se155  1  0.08161646  0.92367529  0.43885988  1
  Se  Se156  1  0.08902456  0.91497699  0.94510929  1
  Se  Se157  1  0.42122712  0.24178735  0.44114473  1
  Se  Se158  1  0.41492131  0.25061115  0.95443925  1
  Se  Se159  1  0.41106156  0.58695814  0.44624043  1
  Se  Se160  1  0.41105840  0.59771013  0.93694971  1
  Se  Se161  1  0.40312932  0.91585382  0.43578459  1
  Se  Se162  1  0.41813710  0.91646047  0.94521952  1
  Se  Se163  1  0.74816645  0.25712253  0.43977000  1
  Se  Se164  1  0.75270441  0.24296584  0.94807318  1
  Se  Se165  1  0.73997219  0.59659766  0.44611284  1
  Se  Se166  1  0.74019057  0.58449195  0.93090065  1
  Se  Se167  1  0.74303451  0.92006101  0.44918740  1
  Se  Se168  1  0.75053313  0.91644854  0.94724783  1
  Se  Se169  1  0.24575387  0.08271800  0.44102429  1
  Se  Se170  1  0.24626210  0.07173763  0.93294511  1
  Se  Se171  1  0.25618668  0.41161172  0.43735407  1
  Se  Se172  1  0.25137037  0.42226954  0.95305748  1
  Se  Se173  1  0.25562557  0.74538386  0.44000523  1
  Se  Se174  1  0.24631916  0.75835255  0.94288887  1
  Se  Se175  1  0.57973369  0.07960885  0.45153271  1
  Se  Se176  1  0.57800445  0.08821387  0.94452466  1
  Se  Se177  1  0.58606800  0.41069567  0.44081359  1
  Se  Se178  1  0.59310626  0.41112944  0.94479897  1
  Se  Se179  1  0.59064764  0.74042070  0.44648794  1
  Se  Se180  1  0.57989145  0.75514451  0.94305072  1
  Se  Se181  1  0.92515004  0.07865167  0.44030318  1
  Se  Se182  1  0.91845017  0.08001147  0.95149143  1
  Se  Se183  1  0.92914097  0.41051763  0.44093427  1
  Se  Se184  1  0.92894823  0.40877320  0.93457614  1
  Se  Se185  1  0.92759197  0.75736160  0.43667444  1
  Se  Se186  1  0.91359438  0.74875447  0.95164468  1
  Se  Se187  1  0.25142652  0.25069293  0.30132844  1
  Se  Se188  1  0.24974140  0.24641383  0.81221397  1
  Se  Se189  1  0.25578257  0.58527644  0.30067140  1
  Se  Se190  1  0.24762991  0.58825221  0.80217750  1
  Se  Se191  1  0.22549796  0.89996878  0.29683264  1
  Se  Se192  1  0.26982909  0.93409444  0.80196766  1
  Se  Se193  1  0.58402381  0.24503355  0.30132573  1
  Se  Se194  1  0.58516288  0.25081979  0.80666453  1
  Se  Se195  1  0.57580459  0.57582598  0.31267157  1
  Se  Se196  1  0.57768607  0.58065871  0.79558850  1
  Se  Se197  1  0.57158450  0.91041242  0.30306018  1
  Se  Se198  1  0.58707135  0.92359915  0.80506107  1
  Se  Se199  1  0.91792669  0.25070056  0.30156886  1
  Se  Se200  1  0.91145513  0.24089389  0.81229336  1
  Se  Se201  1  0.91548264  0.58321855  0.30033834  1
  Se  Se202  1  0.91243249  0.58181812  0.80506007  1
  Se  Se203  1  0.91814735  0.92441710  0.29659713  1
  Se  Se204  1  0.91845222  0.91774733  0.81266081  1
  Se  Se205  1  0.08111150  0.08761375  0.29882151  1
  Se  Se206  1  0.08569440  0.08639935  0.79910387  1
  Se  Se207  1  0.08892154  0.41817597  0.30178761  1
  Se  Se208  1  0.09402554  0.42087196  0.80745985  1
  Se  Se209  1  0.06840479  0.73102103  0.29772607  1
  Se  Se210  1  0.07061908  0.74384198  0.80921002  1
  Se  Se211  1  0.41273106  0.07839418  0.30223691  1
  Se  Se212  1  0.41662689  0.08440059  0.80463459  1
  Se  Se213  1  0.41533925  0.41276382  0.29905327  1
  Se  Se214  1  0.42165131  0.42165286  0.81988955  1
  Se  Se215  1  0.41727757  0.74708727  0.29606040  1
  Se  Se216  1  0.41803697  0.75610627  0.80461138  1
  Se  Se217  1  0.75940041  0.09251335  0.31712962  1
  Se  Se218  1  0.74774156  0.07800306  0.80683831  1
  Se  Se219  1  0.74799277  0.41633230  0.29960967  1
  Se  Se220  1  0.74789736  0.40848325  0.79989188  1
  Se  Se221  1  0.75924748  0.75975041  0.31072708  1
  Se  Se222  1  0.74494217  0.74970526  0.80596822  1
  Se  Se223  1  0.25069613  0.08270371  0.19664553  1
  Se  Se224  1  0.25745055  0.08570734  0.69468354  1
  Se  Se225  1  0.25596620  0.41572008  0.19548881  1
  Se  Se226  1  0.23877033  0.42572925  0.69360231  1
  Se  Se227  1  0.26286390  0.73861179  0.18905859  1
  Se  Se228  1  0.25442047  0.74901381  0.71151793  1
  Se  Se229  1  0.57442066  0.08382788  0.18662061  1
  Se  Se230  1  0.58398799  0.08107373  0.69750450  1
  Se  Se231  1  0.58888333  0.41141368  0.19904739  1
  Se  Se232  1  0.57017036  0.41571909  0.70146624  1
  Se  Se233  1  0.58399144  0.75580939  0.18614197  1
  Se  Se234  1  0.58456153  0.75234922  0.70088060  1
  Se  Se235  1  0.91011098  0.08443681  0.19403931  1
  Se  Se236  1  0.93047194  0.08697860  0.70454830  1
  Se  Se237  1  0.91839382  0.41309031  0.19496851  1
  Se  Se238  1  0.90838080  0.42092855  0.68756955  1
  Se  Se239  1  0.91860079  0.74561291  0.19299959  1
  Se  Se240  1  0.91317250  0.75350377  0.70143393  1
  Se  Se241  1  0.08059382  0.25348694  0.19379608  1
  Se  Se242  1  0.09370574  0.24894276  0.68983394  1
  Se  Se243  1  0.08833127  0.58090185  0.19051941  1
  Se  Se244  1  0.07034524  0.58583869  0.70699747  1
  Se  Se245  1  0.07115016  0.92151560  0.19650770  1
  Se  Se246  1  0.09722905  0.90818371  0.70282791  1
  Se  Se247  1  0.41370154  0.24807997  0.19551520  1
  Se  Se248  1  0.41955821  0.24073802  0.69109769  1
  Se  Se249  1  0.42343313  0.58408585  0.19561324  1
  Se  Se250  1  0.41040315  0.58289488  0.70664235  1
  Se  Se251  1  0.41014104  0.92044190  0.18846857  1
  Se  Se252  1  0.41796965  0.92040511  0.69858568  1
  Se  Se253  1  0.74338085  0.24981561  0.19569441  1
  Se  Se254  1  0.75577516  0.24167840  0.70381669  1
  Se  Se255  1  0.75507963  0.57733901  0.18499741  1
  Se  Se256  1  0.74839726  0.58303990  0.69975867  1
  Se  Se257  1  0.75176199  0.91087042  0.19019303  1
  Se  Se258  1  0.75099262  0.91934165  0.70478673  1
