# generated using pymatgen
data_In86Cu29Se144
_symmetry_space_group_name_H-M   'P 1'
_cell_length_a   17.57924594
_cell_length_b   17.57670688
_cell_length_c   23.43312070
_cell_angle_alpha   90.00501462
_cell_angle_beta   89.98271195
_cell_angle_gamma   89.97171153
_symmetry_Int_Tables_number   1
_chemical_formula_structural   In86Cu29Se144
_chemical_formula_sum   'In86 Cu29 Se144'
_cell_volume   7240.48748932
_cell_formula_units_Z   1
loop_
 _symmetry_equiv_pos_site_id
 _symmetry_equiv_pos_as_xyz
  1  'x, y, z'
loop_
 _atom_site_type_symbol
 _atom_site_label
 _atom_site_symmetry_multiplicity
 _atom_site_fract_x
 _atom_site_fract_y
 _atom_site_fract_z
 _atom_site_occupancy
  In  In0  1  0.00230941  0.15778576  0.14236272  1
  In  In1  1  -0.00093055  0.16653197  0.61927846  1
  In  In2  1  -0.00171066  0.50486290  0.12778585  1
  In  In3  1  -0.01716684  0.49944552  0.62564670  1
  In  In4  1  -0.01007657  0.83731213  0.13462370  1
  In  In5  1  0.01933796  0.84562494  0.61995509  1
  In  In6  1  0.37106093  0.14438960  0.15848441  1
  In  In7  1  0.34133298  0.18654080  0.59883825  1
  In  In8  1  0.34253877  0.49143496  0.13365920  1
  In  In9  1  0.35658273  0.49231251  0.62268697  1
  In  In10  1  0.33737139  0.82378694  0.13817444  1
  In  In11  1  0.33365152  0.83931026  0.61638087  1
  In  In12  1  0.65384717  0.16847293  0.13490614  1
  In  In13  1  0.67887484  0.18414838  0.60425489  1
  In  In14  1  0.66689536  0.49284014  0.11310401  1
  In  In15  1  0.65425454  0.50274026  0.63731332  1
  In  In16  1  0.67467086  0.83823287  0.11910969  1
  In  In17  1  0.65430344  0.83281534  0.62601062  1
  In  In18  1  0.17573768  -0.00401104  0.36809646  1
  In  In19  1  0.16662048  0.01021185  0.87288304  1
  In  In20  1  0.16052231  0.32630463  0.37361050  1
  In  In21  1  0.16468467  0.33961488  0.87035035  1
  In  In22  1  0.18244752  0.68475616  0.35890249  1
  In  In23  1  0.16115186  0.66994578  0.87453249  1
  In  In24  1  0.49246555  0.00415796  0.36711437  1
  In  In25  1  0.49901160  0.00289275  0.88726938  1
  In  In26  1  0.49387207  0.33771438  0.39036344  1
  In  In27  1  0.50937556  0.32907814  0.87722222  1
  In  In28  1  0.49013643  0.67861545  0.38403212  1
  In  In29  1  0.51696748  0.65008200  0.88960299  1
  In  In30  1  0.84632082  0.03093318  0.35255579  1
  In  In31  1  0.83420478  -0.01114282  0.87574298  1
  In  In32  1  0.83248585  0.29802913  0.37713540  1
  In  In33  1  0.83724911  0.34007959  0.87069695  1
  In  In34  1  0.84432583  0.66212033  0.37310971  1
  In  In35  1  0.82176913  0.67644423  0.88109716  1
  In  In36  1  0.00549738  0.16821270  0.37474273  1
  In  In37  1  -0.00142937  0.16626613  0.86638993  1
  In  In38  1  0.00487604  0.50286116  0.36764174  1
  In  In39  1  0.00182523  0.48489517  0.87345445  1
  In  In40  1  0.02688089  0.85546186  0.34924740  1
  In  In41  1  -0.00999686  0.82884397  0.87329816  1
  In  In42  1  0.33875815  0.16546550  0.37338420  1
  In  In43  1  0.34280305  0.17437717  0.87687365  1
  In  In44  1  0.33912915  0.51032567  0.37237715  1
  In  In45  1  0.33684971  0.50805053  0.87725939  1
  In  In46  1  0.33309774  0.83626046  0.37014950  1
  In  In47  1  0.33911477  0.84800808  0.87764446  1
  In  In48  1  0.66345231  0.16906633  0.38211002  1
  In  In49  1  0.65204262  0.16347429  0.87395637  1
  In  In50  1  0.65563391  0.47908658  0.38117822  1
  In  In51  1  0.66508384  0.50063428  0.87471246  1
  In  In52  1  0.65078675  0.84178349  0.37886436  1
  In  In53  1  0.67234081  0.82595310  0.88215061  1
  In  In54  1  0.16389471  -0.00983610  0.14310341  1
  In  In55  1  0.16272435  0.00054473  0.61366823  1
  In  In56  1  0.17780082  0.32544727  0.13390698  1
  In  In57  1  0.17144653  0.31742780  0.61812202  1
  In  In58  1  0.17278719  0.67397135  0.14147248  1
  In  In59  1  0.16658133  0.67981772  0.61654454  1
  In  In60  1  0.51007330  -0.00000452  0.13096098  1
  In  In61  1  0.50120016  -0.00029888  0.61754495  1
  In  In62  1  0.49995929  0.33032701  0.12432362  1
  In  In63  1  0.51809414  0.35078393  0.59199657  1
  In  In64  1  0.49562672  0.65816105  0.12207527  1
  In  In65  1  0.50167206  0.67181117  0.62602742  1
  In  In66  1  0.84247916  -0.00883488  0.13709590  1
  In  In67  1  0.83257935  0.01869684  0.61949815  1
  In  In68  1  0.82906610  0.34047378  0.12462224  1
  In  In69  1  0.84058239  0.32715311  0.63188409  1
  In  In70  1  0.83159684  0.66412187  0.11947447  1
  In  In71  1  0.82835547  0.65461882  0.62763449  1
  In  In72  1  0.82808848  0.49776583  0.49769094  1
  In  In73  1  0.17045296  0.50037502  0.50200572  1
  In  In74  1  0.17321348  0.16551687  0.01355681  1
  In  In75  1  0.66463636  0.66619847  0.24759846  1
  In  In76  1  0.16672267  0.83263289  0.01093011  1
  In  In77  1  0.82903533  0.83795106  0.49271184  1
  In  In78  1  0.17199757  0.49936191  -0.00148827  1
  In  In79  1  0.66583427  0.32551902  0.25602081  1
  In  In80  1  0.67105558  0.00214699  0.74901561  1
  In  In81  1  0.83126774  0.16527141  0.00768359  1
  In  In82  1  -0.00829894  0.66767635  0.75159056  1
  In  In83  1  0.33241084  0.33261265  0.74651547  1
  In  In84  1  0.33510661  0.67161052  0.74410393  1
  In  In85  1  0.32508642  0.00189575  0.73891240  1
  Cu  Cu86  1  0.50612425  0.82543293  0.75576133  1
  Cu  Cu87  1  0.35087795  0.32955535  0.00641709  1
  Cu  Cu88  1  -0.00766213  0.33033071  0.49887039  1
  Cu  Cu89  1  0.66340441  -0.00017488  0.49410623  1
  Cu  Cu90  1  -0.00496734  -0.00940902  0.00586286  1
  Cu  Cu91  1  0.82296500  0.49578392  0.75213450  1
  Cu  Cu92  1  0.33681024  0.66808610  0.00559407  1
  Cu  Cu93  1  0.00324292  0.33106593  -0.00084279  1
  Cu  Cu94  1  0.66861574  0.33470245  -0.00128905  1
  Cu  Cu95  1  0.82620472  0.82744033  0.24605395  1
  Cu  Cu96  1  0.34619574  0.00463724  0.01166572  1
  Cu  Cu97  1  -0.01271480  0.66646055  0.00394327  1
  Cu  Cu98  1  0.16990061  0.49563647  0.25349192  1
  Cu  Cu99  1  0.49845645  0.50467514  0.25359900  1
  Cu  Cu100  1  0.33017211  -0.00579279  0.48915521  1
  Cu  Cu101  1  0.00913698  0.67636614  0.49124300  1
  Cu  Cu102  1  0.66472027  -0.00059884  0.00345090  1
  Cu  Cu103  1  0.15688627  0.16305995  0.74030710  1
  Cu  Cu104  1  0.65856726  0.66206510  0.50223127  1
  Cu  Cu105  1  0.83764035  0.49080093  0.24940396  1
  Cu  Cu106  1  0.83827687  0.83448053  0.75145084  1
  Cu  Cu107  1  0.15862174  0.49796235  0.74489057  1
  Cu  Cu108  1  0.83523180  0.17391033  0.74360784  1
  Cu  Cu109  1  0.66452343  0.66736175  -0.00049804  1
  Cu  Cu110  1  0.50079499  0.16474450  0.74499253  1
  Cu  Cu111  1  0.00069260  0.00408342  0.48709416  1
  Cu  Cu112  1  0.16831768  0.17143961  0.25814565  1
  Cu  Cu113  1  0.49702450  0.83637588  0.25320619  1
  Cu  Cu114  1  0.34027475  0.67120405  0.49467091  1
  Se  Se115  1  0.07734657  0.06986904  0.06416904  1
  Se  Se116  1  0.07991740  0.08607403  0.54727040  1
  Se  Se117  1  0.08747610  0.40687820  0.05992957  1
  Se  Se118  1  0.07025815  0.41448289  0.55887163  1
  Se  Se119  1  0.07460180  0.73867094  0.06492383  1
  Se  Se120  1  0.08905236  0.76074960  0.54509440  1
  Se  Se121  1  0.42629336  0.09025934  0.06411792  1
  Se  Se122  1  0.40921907  0.07193369  0.55034251  1
  Se  Se123  1  0.42512658  0.42397579  0.05648174  1
  Se  Se124  1  0.39118734  0.39467357  0.54712676  1
  Se  Se125  1  0.41552807  0.75352696  0.05998076  1
  Se  Se126  1  0.42031719  0.75238600  0.55490304  1
  Se  Se127  1  0.74368954  0.07555277  0.06800802  1
  Se  Se128  1  0.75159190  0.08470183  0.54240478  1
  Se  Se129  1  0.75814093  0.41658226  0.04639574  1
  Se  Se130  1  0.74869106  0.41873900  0.56961052  1
  Se  Se131  1  0.75084663  0.74875898  0.05165114  1
  Se  Se132  1  0.74519069  0.74242113  0.55790146  1
  Se  Se133  1  0.27206466  0.24934569  0.06660939  1
  Se  Se134  1  0.23700505  0.24807058  0.53650081  1
  Se  Se135  1  0.25280517  0.59015397  0.06473698  1
  Se  Se136  1  0.26552013  0.59133065  0.56150936  1
  Se  Se137  1  0.25802785  0.92609008  0.06609878  1
  Se  Se138  1  0.24697874  0.91502184  0.54761053  1
  Se  Se139  1  0.59019103  0.25272975  0.05722474  1
  Se  Se140  1  0.55505903  0.21947935  0.55253268  1
  Se  Se141  1  0.58233054  0.58224867  0.05216095  1
  Se  Se142  1  0.57982097  0.58067057  0.55966672  1
  Se  Se143  1  0.58071310  0.91510928  0.05528099  1
  Se  Se144  1  0.58559221  0.91521997  0.55080020  1
  Se  Se145  1  0.93057313  0.24988461  0.06381804  1
  Se  Se146  1  0.90881279  0.24827522  0.55306571  1
  Se  Se147  1  0.91174200  0.57345882  0.05355878  1
  Se  Se148  1  0.92493205  0.59715317  0.54933177  1
  Se  Se149  1  0.90967773  0.91003578  0.05798338  1
  Se  Se150  1  0.92225055  0.92656885  0.55335809  1
  Se  Se151  1  0.08205498  0.25041570  0.44910723  1
  Se  Se152  1  0.08496421  0.24908996  0.94228281  1
  Se  Se153  1  0.08851203  0.59022781  0.43653510  1
  Se  Se154  1  0.07159351  0.59005632  0.94333599  1
  Se  Se155  1  0.08556443  0.91773058  0.43864601  1
  Se  Se156  1  0.08159710  0.92045816  0.94275940  1
  Se  Se157  1  0.41871688  0.23864725  0.44948309  1
  Se  Se158  1  0.42792411  0.24509305  0.94820323  1
  Se  Se159  1  0.42190182  0.57940994  0.44954896  1
  Se  Se160  1  0.41547038  0.58017954  0.95245599  1
  Se  Se161  1  0.41990494  0.91348263  0.43930900  1
  Se  Se162  1  0.41936363  0.91556213  0.95463220  1
  Se  Se163  1  0.72708006  0.27049209  0.44820246  1
  Se  Se164  1  0.74661868  0.25027848  0.93929570  1
  Se  Se165  1  0.73837539  0.59030984  0.43712404  1
  Se  Se166  1  0.74827488  0.58269065  0.94572351  1
  Se  Se167  1  0.75068784  0.93262900  0.43007301  1
  Se  Se168  1  0.74950905  0.91862458  0.94823554  1
  Se  Se169  1  0.24881164  0.08248511  0.43976717  1
  Se  Se170  1  0.26325194  0.07703165  0.94656025  1
  Se  Se171  1  0.25331886  0.41563187  0.43612177  1
  Se  Se172  1  0.26435916  0.40148685  0.94355945  1
  Se  Se173  1  0.25301130  0.75081448  0.44256438  1
  Se  Se174  1  0.25542467  0.74486466  0.94372686  1
  Se  Se175  1  0.57554893  0.07946403  0.44203178  1
  Se  Se176  1  0.58325710  0.08723370  0.95300556  1
  Se  Se177  1  0.58121565  0.41433060  0.46085010  1
  Se  Se178  1  0.58359137  0.41799790  0.94639425  1
  Se  Se179  1  0.58204866  0.75367929  0.45110219  1
  Se  Se180  1  0.57942807  0.75603008  0.95096674  1
  Se  Se181  1  0.91260403  0.08923382  0.44121105  1
  Se  Se182  1  0.92439395  0.07865357  0.94442492  1
  Se  Se183  1  0.91919904  0.41254882  0.43582606  1
  Se  Se184  1  0.91885467  0.41273572  0.94700246  1
  Se  Se185  1  0.92685918  0.75653401  0.43408790  1
  Se  Se186  1  0.91271117  0.75452508  0.94803938  1
  Se  Se187  1  0.25528662  0.25473237  0.30690485  1
  Se  Se188  1  0.23989487  0.23668956  0.80578303  1
  Se  Se189  1  0.25568383  0.58449845  0.29906154  1
  Se  Se190  1  0.23887503  0.57665654  0.80473314  1
  Se  Se191  1  0.24011768  0.89925827  0.29719122  1
  Se  Se192  1  0.24233919  0.91168498  0.80653484  1
  Se  Se193  1  0.56652943  0.24774436  0.31377663  1
  Se  Se194  1  0.58181920  0.24785273  0.80042684  1
  Se  Se195  1  0.58067295  0.58032364  0.31552783  1
  Se  Se196  1  0.58359164  0.58585726  0.80662915  1
  Se  Se197  1  0.58317519  0.92053650  0.30122042  1
  Se  Se198  1  0.57916816  0.91678325  0.81257352  1
  Se  Se199  1  0.92864924  0.25480336  0.30375593  1
  Se  Se200  1  0.91773259  0.25399966  0.80235086  1
  Se  Se201  1  0.91705522  0.58106134  0.29894245  1
  Se  Se202  1  0.90679671  0.57542008  0.81319594  1
  Se  Se203  1  0.90434445  0.91078183  0.30388955  1
  Se  Se204  1  0.92077444  0.91988195  0.80217435  1
  Se  Se205  1  0.08558947  0.08223131  0.30580142  1
  Se  Se206  1  0.08134223  0.08035562  0.80020105  1
  Se  Se207  1  0.08326142  0.41266631  0.30288922  1
  Se  Se208  1  0.07987379  0.41077068  0.79728183  1
  Se  Se209  1  0.05876641  0.72410155  0.30777166  1
  Se  Se210  1  0.09005816  0.75971553  0.80298800  1
  Se  Se211  1  0.39802348  0.07234723  0.29855762  1
  Se  Se212  1  0.42123212  0.08392237  0.80536276  1
  Se  Se213  1  0.42437794  0.41887143  0.31167339  1
  Se  Se214  1  0.41917513  0.41994243  0.81082290  1
  Se  Se215  1  0.41710996  0.74692527  0.30342995  1
  Se  Se216  1  0.42043517  0.75186196  0.81562184  1
  Se  Se217  1  0.73312089  0.09304811  0.30242213  1
  Se  Se218  1  0.76090958  0.09351548  0.81030797  1
  Se  Se219  1  0.75982779  0.41699443  0.31434265  1
  Se  Se220  1  0.74146700  0.41024255  0.80486754  1
  Se  Se221  1  0.74983063  0.75331892  0.31376004  1
  Se  Se222  1  0.75062143  0.75516375  0.80351304  1
  Se  Se223  1  0.24507894  0.08825550  0.19917778  1
  Se  Se224  1  0.24800194  0.09947480  0.67800698  1
  Se  Se225  1  0.25583917  0.41364632  0.20111903  1
  Se  Se226  1  0.24295133  0.42439809  0.68380237  1
  Se  Se227  1  0.23277923  0.77481746  0.20803942  1
  Se  Se228  1  0.24234305  0.76483847  0.69128552  1
  Se  Se229  1  0.57799057  0.08752558  0.20525474  1
  Se  Se230  1  0.58509675  0.08875469  0.68495813  1
  Se  Se231  1  0.58448667  0.42661857  0.19507243  1
  Se  Se232  1  0.56891335  0.40244120  0.68658265  1
  Se  Se233  1  0.57597307  0.75717624  0.18894033  1
  Se  Se234  1  0.58794045  0.74531937  0.69967606  1
  Se  Se235  1  0.91429369  0.07938159  0.20623995  1
  Se  Se236  1  0.91741376  0.08652185  0.69354899  1
  Se  Se237  1  0.92078368  0.41192374  0.19299044  1
  Se  Se238  1  0.91456179  0.41824090  0.70131555  1
  Se  Se239  1  0.90815726  0.74139285  0.19450453  1
  Se  Se240  1  0.91284808  0.75887610  0.68289205  1
  Se  Se241  1  0.08537980  0.25173468  0.20060823  1
  Se  Se242  1  0.07917732  0.25415543  0.68975926  1
  Se  Se243  1  0.08810465  0.57817606  0.19664790  1
  Se  Se244  1  0.08553798  0.58427239  0.68509589  1
  Se  Se245  1  0.07064760  0.91473670  0.20564828  1
  Se  Se246  1  0.08682739  0.92916935  0.69286212  1
  Se  Se247  1  0.41180827  0.27245646  0.20050668  1
  Se  Se248  1  0.41764912  0.24203190  0.68637312  1
  Se  Se249  1  0.41584210  0.58775418  0.19925448  1
  Se  Se250  1  0.42935922  0.57368330  0.69900186  1
  Se  Se251  1  0.41714681  0.92021083  0.19683486  1
  Se  Se252  1  0.42765781  0.90706468  0.69402634  1
  Se  Se253  1  0.76120028  0.24280289  0.19360655  1
  Se  Se254  1  0.74224054  0.24826981  0.69235300  1
  Se  Se255  1  0.75160268  0.56854236  0.19145834  1
  Se  Se256  1  0.74487221  0.58549510  0.70106824  1
  Se  Se257  1  0.74276225  0.91518266  0.19813386  1
  Se  Se258  1  0.75992057  0.91231080  0.68598790  1
