# generated using pymatgen
data_In86Cu29Se144
_symmetry_space_group_name_H-M   'P 1'
_cell_length_a   17.58586725
_cell_length_b   17.58091511
_cell_length_c   23.44480663
_cell_angle_alpha   89.99756125
_cell_angle_beta   89.99804280
_cell_angle_gamma   90.02322102
_symmetry_Int_Tables_number   1
_chemical_formula_structural   In86Cu29Se144
_chemical_formula_sum   'In86 Cu29 Se144'
_cell_volume   7248.56247195
_cell_formula_units_Z   1
loop_
 _symmetry_equiv_pos_site_id
 _symmetry_equiv_pos_as_xyz
  1  'x, y, z'
loop_
 _atom_site_type_symbol
 _atom_site_label
 _atom_site_symmetry_multiplicity
 _atom_site_fract_x
 _atom_site_fract_y
 _atom_site_fract_z
 _atom_site_occupancy
  In  In0  1  0.00581334  0.18676462  0.11948633  1
  In  In1  1  0.00132711  0.15210879  0.62269426  1
  In  In2  1  -0.00950013  0.48272968  0.12519635  1
  In  In3  1  0.00922507  0.52268279  0.62847417  1
  In  In4  1  0.00014442  0.82597162  0.12895716  1
  In  In5  1  -0.01208302  0.82555438  0.61460471  1
  In  In6  1  0.33729547  0.16312107  0.12687201  1
  In  In7  1  0.33224970  0.17652324  0.62625495  1
  In  In8  1  0.33807262  0.50081756  0.12372164  1
  In  In9  1  0.33390995  0.49356077  0.63156290  1
  In  In10  1  0.34880777  0.83260895  0.13615757  1
  In  In11  1  0.32953493  0.82668817  0.62693702  1
  In  In12  1  0.66924795  0.16799500  0.11003550  1
  In  In13  1  0.65712183  0.17109866  0.63783778  1
  In  In14  1  0.66146314  0.51024556  0.13116905  1
  In  In15  1  0.66504158  0.50427726  0.61664334  1
  In  In16  1  0.65049398  0.82538355  0.12755808  1
  In  In17  1  0.66852996  0.82721753  0.61988376  1
  In  In18  1  0.17960537  -0.00873484  0.38691731  1
  In  In19  1  0.17379196  -0.00923528  0.86684749  1
  In  In20  1  0.16312736  0.33781023  0.36848711  1
  In  In21  1  0.18845816  0.33254952  0.87312609  1
  In  In22  1  0.18764071  0.66706343  0.37697504  1
  In  In23  1  0.15880418  0.65091041  0.85188286  1
  In  In24  1  0.49022337  -0.00196145  0.37757727  1
  In  In25  1  0.50337190  0.00681175  0.86585620  1
  In  In26  1  0.49154377  0.38435767  0.37089248  1
  In  In27  1  0.49899783  0.33484279  0.87678186  1
  In  In28  1  0.49513464  0.66810983  0.38366457  1
  In  In29  1  0.49201058  0.65554808  0.86709895  1
  In  In30  1  0.82288626  -0.00438998  0.37899205  1
  In  In31  1  0.82485331  0.00894584  0.87667367  1
  In  In32  1  0.83853888  0.33572618  0.37599937  1
  In  In33  1  0.81428568  0.33801451  0.87363868  1
  In  In34  1  0.81865070  0.66375533  0.39251247  1
  In  In35  1  0.83180117  0.66530559  0.86353124  1
  In  In36  1  0.00628583  0.18996822  0.37133242  1
  In  In37  1  -0.00790768  0.15616989  0.87755234  1
  In  In38  1  0.00885319  0.48261178  0.37320426  1
  In  In39  1  0.00169458  0.51117769  0.87174560  1
  In  In40  1  -0.00042437  0.83619475  0.38555499  1
  In  In41  1  0.01213758  0.82412313  0.86382281  1
  In  In42  1  0.33144414  0.15800673  0.37258801  1
  In  In43  1  0.34524614  0.17798272  0.86681783  1
  In  In44  1  0.33555340  0.52272973  0.34964650  1
  In  In45  1  0.33854478  0.50271395  0.87526228  1
  In  In46  1  0.33788490  0.83210455  0.38259494  1
  In  In47  1  0.32292738  0.82838406  0.85444688  1
  In  In48  1  0.67029173  0.17277976  0.37437814  1
  In  In49  1  0.65704675  0.16509821  0.87834388  1
  In  In50  1  0.62822263  0.53557634  0.43289314  1
  In  In51  1  0.65775098  0.49297960  0.86565470  1
  In  In52  1  0.67589178  0.81108115  0.40461039  1
  In  In53  1  0.66446467  0.83314336  0.86230728  1
  In  In54  1  0.18106196  0.01255733  0.12370591  1
  In  In55  1  0.17139748  0.00600892  0.61890933  1
  In  In56  1  0.16666680  0.34766630  0.13845750  1
  In  In57  1  0.18854049  0.33900191  0.62343273  1
  In  In58  1  0.19117340  0.66322866  0.12996203  1
  In  In59  1  0.15219794  0.67643094  0.64723681  1
  In  In60  1  0.49274291  0.00119563  0.12370243  1
  In  In61  1  0.50969703  -0.01073957  0.63524658  1
  In  In62  1  0.49999289  0.33295254  0.12326133  1
  In  In63  1  0.49692718  0.34268581  0.62194119  1
  In  In64  1  0.50147679  0.66296829  0.13296355  1
  In  In65  1  0.50263755  0.66515437  0.61899443  1
  In  In66  1  0.81454021  0.00670089  0.12728013  1
  In  In67  1  0.83197412  -0.01316393  0.62353742  1
  In  In68  1  0.83890885  0.33163309  0.12524836  1
  In  In69  1  0.81432393  0.33810716  0.62061508  1
  In  In70  1  0.82911111  0.65160888  0.12879473  1
  In  In71  1  0.83059494  0.66765684  0.61748220  1
  In  In72  1  0.00665004  0.65849316  0.25629310  1
  In  In73  1  0.17087808  0.50098955  0.49906734  1
  In  In74  1  0.16928942  0.17177962  -0.00239948  1
  In  In75  1  0.49957081  0.84054003  -0.00552489  1
  In  In76  1  -0.00492926  -0.00493679  0.75171601  1
  In  In77  1  0.17188006  0.82997540  -0.01132551  1
  In  In78  1  0.83052447  0.83218849  -0.01269772  1
  In  In79  1  0.49461803  0.17109157  0.49897682  1
  In  In80  1  0.84127592  0.16165468  0.49633703  1
  In  In81  1  0.00029410  0.33685269  0.74675533  1
  In  In82  1  0.65386857  -0.00443231  0.25340664  1
  In  In83  1  0.82685513  0.49653640  0.00183999  1
  In  In84  1  0.66234383  0.34347588  0.25530120  1
  In  In85  1  0.00769689  0.00017302  0.25028726  1
  Cu  Cu86  1  0.33486743  -0.00022928  -0.00195511  1
  Cu  Cu87  1  0.01776981  0.66078709  -0.00547252  1
  Cu  Cu88  1  0.18047871  0.83793446  0.25802799  1
  Cu  Cu89  1  0.82287846  0.50486263  0.25662530  1
  Cu  Cu90  1  0.66532318  -0.00027589  0.50669174  1
  Cu  Cu91  1  -0.01362664  -0.00232906  0.00054495  1
  Cu  Cu92  1  0.17229730  0.16982838  0.74415931  1
  Cu  Cu93  1  0.17095219  0.16611328  0.24815740  1
  Cu  Cu94  1  0.84055063  0.17188503  0.24615295  1
  Cu  Cu95  1  0.00772875  0.32964228  0.50154785  1
  Cu  Cu96  1  0.82890404  0.82599960  0.74140180  1
  Cu  Cu97  1  0.49600115  0.17052457  0.75165334  1
  Cu  Cu98  1  0.65775385  0.33004115  -0.00508793  1
  Cu  Cu99  1  0.82900830  0.50663258  0.74228474  1
  Cu  Cu100  1  0.01045554  0.00095840  0.49860758  1
  Cu  Cu101  1  0.66240773  0.66570069  0.00136759  1
  Cu  Cu102  1  0.82123613  0.17041694  0.75432785  1
  Cu  Cu103  1  0.33822988  0.65648030  -0.00306163  1
  Cu  Cu104  1  0.33319451  0.33730591  0.49506510  1
  Cu  Cu105  1  0.32931982  0.66522841  0.50496697  1
  Cu  Cu106  1  0.00238554  0.66983127  0.50188279  1
  Cu  Cu107  1  0.50446788  0.82634600  0.26019096  1
  Cu  Cu108  1  0.50682342  0.49668544  0.74728821  1
  Cu  Cu109  1  0.33673209  -0.00530090  0.50396635  1
  Cu  Cu110  1  0.50113060  0.17250615  0.25330286  1
  Cu  Cu111  1  -0.00112763  0.33512384  0.00122338  1
  Cu  Cu112  1  0.33956827  0.33922399  0.00086720  1
  Cu  Cu113  1  0.50084893  0.83362398  0.73985277  1
  Cu  Cu114  1  0.82261249  0.82152795  0.26374192  1
  Se  Se115  1  0.07580859  0.07613030  0.05596091  1
  Se  Se116  1  0.08945010  0.09026046  0.54841914  1
  Se  Se117  1  0.08343704  0.41144473  0.05767373  1
  Se  Se118  1  0.08054374  0.41354009  0.56385625  1
  Se  Se119  1  0.08654805  0.74441106  0.05875635  1
  Se  Se120  1  0.08929975  0.74380350  0.55988227  1
  Se  Se121  1  0.41569183  0.08341985  0.05216121  1
  Se  Se122  1  0.41727541  0.07675644  0.56436838  1
  Se  Se123  1  0.42366747  0.42127530  0.05399181  1
  Se  Se124  1  0.41115907  0.42065806  0.55236409  1
  Se  Se125  1  0.41263687  0.74709658  0.05511674  1
  Se  Se126  1  0.41452081  0.74962853  0.55476288  1
  Se  Se127  1  0.75414647  0.08311740  0.04751415  1
  Se  Se128  1  0.74451641  0.08513664  0.56304031  1
  Se  Se129  1  0.73497273  0.40784731  0.06201598  1
  Se  Se130  1  0.75905498  0.43182533  0.54707505  1
  Se  Se131  1  0.74734813  0.74394245  0.05937270  1
  Se  Se132  1  0.75559485  0.75576393  0.54811933  1
  Se  Se133  1  0.25454094  0.25960288  0.06106989  1
  Se  Se134  1  0.25352165  0.25152650  0.54893521  1
  Se  Se135  1  0.25068038  0.57942605  0.05146634  1
  Se  Se136  1  0.24839456  0.58888491  0.56760958  1
  Se  Se137  1  0.25969328  0.91538258  0.05861424  1
  Se  Se138  1  0.25009880  0.91278343  0.55584795  1
  Se  Se139  1  0.57573695  0.24820982  0.05096442  1
  Se  Se140  1  0.59107860  0.25348875  0.55827061  1
  Se  Se141  1  0.58089488  0.58606677  0.05789194  1
  Se  Se142  1  0.57620902  0.57882815  0.54659759  1
  Se  Se143  1  0.59235552  0.92663788  0.05752154  1
  Se  Se144  1  0.58077152  0.91525822  0.55591106  1
  Se  Se145  1  0.91130327  0.25111403  0.04927397  1
  Se  Se146  1  0.92269409  0.25560923  0.56243881  1
  Se  Se147  1  0.92691910  0.58927423  0.05396699  1
  Se  Se148  1  0.92185330  0.58277964  0.55341278  1
  Se  Se149  1  0.91398414  0.91375846  0.06270308  1
  Se  Se150  1  0.91859366  0.92299083  0.54829918  1
  Se  Se151  1  0.09388681  0.25311902  0.44644443  1
  Se  Se152  1  0.07591589  0.25844527  0.93496919  1
  Se  Se153  1  0.07892550  0.59034133  0.43766800  1
  Se  Se154  1  0.09786939  0.58018901  0.93871969  1
  Se  Se155  1  0.09150990  0.90987697  0.45185795  1
  Se  Se156  1  0.07081986  0.92509566  0.93859944  1
  Se  Se157  1  0.41470031  0.26014268  0.43268530  1
  Se  Se158  1  0.41578589  0.25045488  0.94684554  1
  Se  Se159  1  0.39746186  0.58056278  0.44069006  1
  Se  Se160  1  0.42795001  0.57709009  0.94754417  1
  Se  Se161  1  0.42286254  0.91391374  0.45254670  1
  Se  Se162  1  0.40250522  0.91752568  0.93093605  1
  Se  Se163  1  0.74699641  0.25597425  0.44701415  1
  Se  Se164  1  0.74640594  0.24985297  0.94463923  1
  Se  Se165  1  0.76986570  0.55547575  0.45881739  1
  Se  Se166  1  0.74398786  0.58895852  0.93931697  1
  Se  Se167  1  0.75343024  0.91851388  0.45533274  1
  Se  Se168  1  0.73131151  0.92290063  0.94025723  1
  Se  Se169  1  0.25733930  0.08372225  0.45183092  1
  Se  Se170  1  0.25496615  0.07908005  0.93618208  1
  Se  Se171  1  0.25946612  0.42101847  0.43221397  1
  Se  Se172  1  0.25493077  0.41930292  0.94621957  1
  Se  Se173  1  0.24882938  0.75364787  0.45237388  1
  Se  Se174  1  0.26088564  0.73726698  0.93378846  1
  Se  Se175  1  0.59258299  0.07874075  0.44150766  1
  Se  Se176  1  0.57001167  0.08322563  0.94444117  1
  Se  Se177  1  0.58432830  0.39585943  0.45297236  1
  Se  Se178  1  0.58288928  0.42191894  0.94434158  1
  Se  Se179  1  0.56970394  0.74671579  0.46018064  1
  Se  Se180  1  0.58748065  0.74418547  0.93749074  1
  Se  Se181  1  0.93265608  0.07681023  0.43178372  1
  Se  Se182  1  0.90708321  0.08565150  0.94995164  1
  Se  Se183  1  0.92507970  0.41139279  0.44717234  1
  Se  Se184  1  0.91998506  0.41302877  0.93798835  1
  Se  Se185  1  0.91473870  0.75072887  0.44920322  1
  Se  Se186  1  0.93050458  0.73785592  0.93736951  1
  Se  Se187  1  0.24872798  0.24594311  0.30780169  1
  Se  Se188  1  0.25657756  0.25248897  0.79649453  1
  Se  Se189  1  0.21536335  0.57197118  0.29784181  1
  Se  Se190  1  0.27871538  0.59990416  0.80351612  1
  Se  Se191  1  0.26178255  0.92184642  0.31116246  1
  Se  Se192  1  0.23285438  0.90823256  0.79038369  1
  Se  Se193  1  0.57202847  0.25353254  0.31656559  1
  Se  Se194  1  0.58077178  0.25145416  0.80685019  1
  Se  Se195  1  0.58014671  0.56671219  0.33193934  1
  Se  Se196  1  0.58696516  0.58674993  0.79867974  1
  Se  Se197  1  0.58513999  0.90280114  0.32314941  1
  Se  Se198  1  0.57969038  0.91707539  0.79804599  1
  Se  Se199  1  0.91716354  0.25850927  0.30010388  1
  Se  Se200  1  0.91017774  0.24633670  0.80932151  1
  Se  Se201  1  0.90975793  0.57885048  0.31763622  1
  Se  Se202  1  0.91718548  0.58184141  0.79829762  1
  Se  Se203  1  0.90900667  0.91053063  0.30830629  1
  Se  Se204  1  0.90158674  0.90452285  0.81102298  1
  Se  Se205  1  0.09291326  0.08747829  0.31393352  1
  Se  Se206  1  0.08950953  0.09330890  0.80453622  1
  Se  Se207  1  0.08562567  0.41713423  0.29489315  1
  Se  Se208  1  0.09030477  0.41670076  0.81224966  1
  Se  Se209  1  0.08973575  0.76158486  0.31206433  1
  Se  Se210  1  0.08560837  0.74912876  0.79014220  1
  Se  Se211  1  0.42175416  0.08207799  0.30324751  1
  Se  Se212  1  0.41079712  0.08134898  0.79880841  1
  Se  Se213  1  0.39077700  0.40661506  0.29372764  1
  Se  Se214  1  0.42189078  0.41920810  0.80548625  1
  Se  Se215  1  0.41434421  0.74770164  0.31016254  1
  Se  Se216  1  0.42445791  0.75162954  0.79948480  1
  Se  Se217  1  0.75879657  0.08989542  0.30332451  1
  Se  Se218  1  0.74110753  0.08367515  0.80588743  1
  Se  Se219  1  0.74734992  0.42729233  0.32023368  1
  Se  Se220  1  0.75020836  0.42070090  0.79709816  1
  Se  Se221  1  0.73993855  0.74191776  0.31847596  1
  Se  Se222  1  0.74500129  0.74461753  0.79749644  1
  Se  Se223  1  0.25788716  0.08090968  0.20060682  1
  Se  Se224  1  0.25246408  0.08440055  0.69113576  1
  Se  Se225  1  0.27691524  0.40387239  0.19678533  1
  Se  Se226  1  0.25182157  0.41375366  0.70273940  1
  Se  Se227  1  0.25862757  0.75339059  0.20130201  1
  Se  Se228  1  0.26772211  0.73219239  0.69922346  1
  Se  Se229  1  0.58131171  0.09514372  0.19012232  1
  Se  Se230  1  0.58159034  0.08202403  0.70405284  1
  Se  Se231  1  0.56839494  0.42998380  0.19661296  1
  Se  Se232  1  0.58922804  0.41753225  0.68880033  1
  Se  Se233  1  0.58539971  0.74419341  0.20404565  1
  Se  Se234  1  0.58379259  0.74762514  0.68942705  1
  Se  Se235  1  0.91717377  0.08810465  0.18683371  1
  Se  Se236  1  0.90203773  0.08925348  0.69483865  1
  Se  Se237  1  0.90232536  0.41985057  0.20022697  1
  Se  Se238  1  0.91033055  0.42348587  0.68448642  1
  Se  Se239  1  0.90668795  0.74937692  0.19895985  1
  Se  Se240  1  0.91668095  0.74545750  0.69085215  1
  Se  Se241  1  0.08490497  0.25077231  0.19804664  1
  Se  Se242  1  0.08677239  0.24394788  0.68561210  1
  Se  Se243  1  0.08259167  0.57886650  0.18120349  1
  Se  Se244  1  0.09665222  0.56643819  0.70825210  1
  Se  Se245  1  0.09955864  0.90874791  0.19013344  1
  Se  Se246  1  0.07639474  0.91700286  0.68047293  1
  Se  Se247  1  0.42011292  0.24897489  0.19307263  1
  Se  Se248  1  0.42071104  0.25535117  0.69252204  1
  Se  Se249  1  0.39464392  0.60381292  0.19227216  1
  Se  Se250  1  0.42701890  0.57851080  0.69033000  1
  Se  Se251  1  0.43158890  0.91726114  0.20275949  1
  Se  Se252  1  0.40900078  0.91687243  0.69535834  1
  Se  Se253  1  0.74735509  0.24547493  0.19151755  1
  Se  Se254  1  0.74617590  0.25806903  0.69851538  1
  Se  Se255  1  0.74154226  0.58967196  0.20380376  1
  Se  Se256  1  0.74605260  0.58735536  0.68762095  1
  Se  Se257  1  0.75143745  0.90375332  0.19677385  1
  Se  Se258  1  0.74573282  0.91426542  0.69378328  1
