# generated using pymatgen
data_In86Cu29Se144
_symmetry_space_group_name_H-M   'P 1'
_cell_length_a   17.58540233
_cell_length_b   17.58776060
_cell_length_c   23.44710881
_cell_angle_alpha   89.98863989
_cell_angle_beta   90.01259270
_cell_angle_gamma   90.01988802
_symmetry_Int_Tables_number   1
_chemical_formula_structural   In86Cu29Se144
_chemical_formula_sum   'In86 Cu29 Se144'
_cell_volume   7251.90503063
_cell_formula_units_Z   1
loop_
 _symmetry_equiv_pos_site_id
 _symmetry_equiv_pos_as_xyz
  1  'x, y, z'
loop_
 _atom_site_type_symbol
 _atom_site_label
 _atom_site_symmetry_multiplicity
 _atom_site_fract_x
 _atom_site_fract_y
 _atom_site_fract_z
 _atom_site_occupancy
  In  In0  1  0.00156814  0.16801164  0.13678681  1
  In  In1  1  -0.01419062  0.18164748  0.62510920  1
  In  In2  1  -0.00968931  0.49069607  0.11578697  1
  In  In3  1  -0.01531484  0.47418238  0.60492772  1
  In  In4  1  0.00650128  0.83401710  0.12973374  1
  In  In5  1  -0.00704226  0.85238751  0.62958897  1
  In  In6  1  0.34065520  0.15791297  0.12642706  1
  In  In7  1  0.37091616  0.17971974  0.61267944  1
  In  In8  1  0.33761924  0.50399953  0.12249965  1
  In  In9  1  0.32103718  0.47920886  0.60864888  1
  In  In10  1  0.32863587  0.83573948  0.13522704  1
  In  In11  1  0.34092612  0.82892091  0.61837664  1
  In  In12  1  0.65111871  0.16867213  0.12393387  1
  In  In13  1  0.66277405  0.16365044  0.63038432  1
  In  In14  1  0.66655480  0.50010900  0.11250854  1
  In  In15  1  0.66492953  0.49865237  0.62718780  1
  In  In16  1  0.67732495  0.84031298  0.12629885  1
  In  In17  1  0.67414206  0.83652870  0.62578773  1
  In  In18  1  0.16795964  0.00387008  0.36885180  1
  In  In19  1  0.16692670  0.01448551  0.87481481  1
  In  In20  1  0.16517130  0.34915402  0.38463905  1
  In  In21  1  0.17571106  0.33855065  0.86700404  1
  In  In22  1  0.17025830  0.65277971  0.37399141  1
  In  In23  1  0.15822025  0.64886490  0.87937308  1
  In  In24  1  0.49826471  0.00044114  0.37845555  1
  In  In25  1  0.50658149  -0.00299512  0.87690349  1
  In  In26  1  0.48945799  0.33024233  0.39764389  1
  In  In27  1  0.49869320  0.33349401  0.86741170  1
  In  In28  1  0.49464049  0.67388973  0.37775529  1
  In  In29  1  0.49907324  0.65365364  0.87058681  1
  In  In30  1  0.82821618  0.00438479  0.37725970  1
  In  In31  1  0.83517930  0.00136061  0.86289075  1
  In  In32  1  0.84848196  0.31755229  0.39697345  1
  In  In33  1  0.83875505  0.34085201  0.86436352  1
  In  In34  1  0.83442511  0.66728766  0.38581920  1
  In  In35  1  0.82392142  0.66245700  0.86942075  1
  In  In36  1  -0.00388892  0.16367734  0.37383570  1
  In  In37  1  -0.00440858  0.16465786  0.86471519  1
  In  In38  1  0.00225136  0.49276731  0.38681915  1
  In  In39  1  0.01003635  0.49078367  0.88429422  1
  In  In40  1  -0.01570600  0.83836224  0.37949159  1
  In  In41  1  -0.01494476  0.83401094  0.87081664  1
  In  In42  1  0.34707863  0.16540670  0.38449326  1
  In  In43  1  0.32840812  0.17920401  0.87497094  1
  In  In44  1  0.32917430  0.50135697  0.38143385  1
  In  In45  1  0.34242654  0.49192004  0.88142035  1
  In  In46  1  0.34766949  0.84489854  0.36657451  1
  In  In47  1  0.34628369  0.83769084  0.87590537  1
  In  In48  1  0.67052568  0.16312952  0.38346355  1
  In  In49  1  0.64993355  0.16142784  0.85757734  1
  In  In50  1  0.67069694  0.49309806  0.38469233  1
  In  In51  1  0.66448529  0.49601709  0.86524940  1
  In  In52  1  0.65214667  0.84783834  0.38582013  1
  In  In53  1  0.68060132  0.83948491  0.85435661  1
  In  In54  1  0.16833299  -0.00032495  0.13576408  1
  In  In55  1  0.16559383  -0.00350771  0.62789106  1
  In  In56  1  0.15306576  0.32812849  0.12787230  1
  In  In57  1  0.15676906  0.33947861  0.62969601  1
  In  In58  1  0.17233312  0.66990283  0.12527669  1
  In  In59  1  0.17653871  0.65648196  0.62268558  1
  In  In60  1  0.49156631  0.00964666  0.13451262  1
  In  In61  1  0.52291988  0.02066377  0.60861976  1
  In  In62  1  0.49980503  0.33241123  0.11552838  1
  In  In63  1  0.49812708  0.33258152  0.62913300  1
  In  In64  1  0.49920358  0.65535139  0.12425548  1
  In  In65  1  0.50907327  0.67101165  0.62072199  1
  In  In66  1  0.83301822  0.00051273  0.13607240  1
  In  In67  1  0.82636823  0.00209896  0.62496686  1
  In  In68  1  0.83501876  0.34404332  0.12327184  1
  In  In69  1  0.83275192  0.32753489  0.62225551  1
  In  In70  1  0.83846102  0.65812112  0.12461057  1
  In  In71  1  0.82604386  0.66027853  0.62265223  1
  In  In72  1  0.16826087  0.16943962  0.49717746  1
  In  In73  1  0.50479937  0.83015828  -0.00603832  1
  In  In74  1  0.16617968  0.82815081  0.01039691  1
  In  In75  1  0.66507796  0.67038647  0.24775115  1
  In  In76  1  0.82769406  0.17118182  -0.01137024  1
  In  In77  1  0.17264811  0.17247368  0.00382627  1
  In  In78  1  -0.00160112  0.66233221  0.74443895  1
  In  In79  1  0.33121047  0.33103969  0.26164071  1
  In  In80  1  0.67042151  0.32800115  0.25327679  1
  In  In81  1  0.00333661  0.66856630  0.24759517  1
  In  In82  1  0.33714271  0.00901294  0.74273980  1
  In  In83  1  0.83013096  0.82372601  -0.00794502  1
  In  In84  1  0.16641348  0.82629815  0.49896890  1
  In  In85  1  0.33624999  0.66129158  0.74131753  1
  Cu  Cu86  1  0.49900607  0.49653397  0.74683991  1
  Cu  Cu87  1  0.16339348  0.16726110  0.25380739  1
  Cu  Cu88  1  0.66882990  0.00114127  0.50218402  1
  Cu  Cu89  1  0.83129121  0.16762086  0.74480553  1
  Cu  Cu90  1  0.66025493  0.33835136  -0.00891713  1
  Cu  Cu91  1  -0.00870623  0.00701239  0.50180345  1
  Cu  Cu92  1  0.00118288  0.33228668  -0.00196196  1
  Cu  Cu93  1  0.66865650  0.66594082  0.50356290  1
  Cu  Cu94  1  0.50290133  0.16289915  0.25620558  1
  Cu  Cu95  1  0.33515376  0.34468935  -0.00486006  1
  Cu  Cu96  1  0.82421372  0.84186742  0.25893645  1
  Cu  Cu97  1  0.84167642  0.49174365  0.25260104  1
  Cu  Cu98  1  0.16307841  0.16774774  0.74594832  1
  Cu  Cu99  1  0.16785432  0.49809556  0.25477012  1
  Cu  Cu100  1  0.66453391  0.33255137  0.51039590  1
  Cu  Cu101  1  0.83324946  0.16678656  0.25920414  1
  Cu  Cu102  1  0.00115995  0.66813681  0.50174905  1
  Cu  Cu103  1  0.49730553  0.83825674  0.25673078  1
  Cu  Cu104  1  0.00387532  -0.00781820  0.00270594  1
  Cu  Cu105  1  0.16427991  0.49355199  0.74770816  1
  Cu  Cu106  1  0.32875753  0.66503030  0.00074891  1
  Cu  Cu107  1  0.16634096  0.83533090  0.25206576  1
  Cu  Cu108  1  0.34083881  0.66301202  0.49878922  1
  Cu  Cu109  1  0.66307545  0.00694667  -0.00203337  1
  Cu  Cu110  1  0.16152970  0.83880316  0.75304621  1
  Cu  Cu111  1  0.50100528  0.50082228  0.24777622  1
  Cu  Cu112  1  0.66283703  0.65650111  -0.01023564  1
  Cu  Cu113  1  0.83463349  0.49582594  0.74217795  1
  Cu  Cu114  1  0.51015457  0.83631665  0.74189315  1
  Se  Se115  1  0.07809299  0.07824557  0.06124476  1
  Se  Se116  1  0.07695433  0.08132190  0.56056927  1
  Se  Se117  1  0.08586805  0.41237112  0.05299749  1
  Se  Se118  1  0.10118239  0.42566113  0.55010674  1
  Se  Se119  1  0.06618433  0.73568445  0.05834965  1
  Se  Se120  1  0.07638485  0.74644935  0.56694049  1
  Se  Se121  1  0.43243034  0.09430891  0.05654497  1
  Se  Se122  1  0.40330387  0.06215434  0.55294786  1
  Se  Se123  1  0.42008452  0.42342577  0.05254294  1
  Se  Se124  1  0.43244347  0.42152778  0.55395709  1
  Se  Se125  1  0.40893190  0.74829850  0.05948362  1
  Se  Se126  1  0.42243590  0.74881674  0.54995486  1
  Se  Se127  1  0.74959405  0.07979139  0.05860206  1
  Se  Se128  1  0.74791517  0.08861559  0.55578660  1
  Se  Se129  1  0.74848929  0.41120699  0.04910430  1
  Se  Se130  1  0.75019358  0.41874062  0.55778499  1
  Se  Se131  1  0.73715880  0.73655776  0.05586047  1
  Se  Se132  1  0.75266785  0.75144250  0.55413194  1
  Se  Se133  1  0.26326911  0.26399182  0.06316462  1
  Se  Se134  1  0.25171416  0.25161702  0.56598841  1
  Se  Se135  1  0.24742925  0.58285836  0.05577712  1
  Se  Se136  1  0.25043641  0.58155830  0.54652993  1
  Se  Se137  1  0.25668090  0.92677586  0.06049093  1
  Se  Se138  1  0.25375801  0.92085755  0.55567621  1
  Se  Se139  1  0.58440210  0.25119890  0.04767344  1
  Se  Se140  1  0.58056383  0.24653235  0.55992273  1
  Se  Se141  1  0.57763370  0.58205515  0.04844483  1
  Se  Se142  1  0.58514016  0.58032463  0.55408755  1
  Se  Se143  1  0.58851751  0.92204429  0.05899628  1
  Se  Se144  1  0.58767359  0.91145976  0.55256734  1
  Se  Se145  1  0.92245509  0.24831378  0.05700152  1
  Se  Se146  1  0.91968918  0.25949954  0.54743642  1
  Se  Se147  1  0.90554989  0.57521775  0.05202925  1
  Se  Se148  1  0.91590007  0.58514740  0.55352202  1
  Se  Se149  1  0.91600141  0.91653281  0.05902560  1
  Se  Se150  1  0.91092753  0.91956165  0.55351475  1
  Se  Se151  1  0.07236007  0.25924349  0.44370321  1
  Se  Se152  1  0.07912048  0.25026386  0.93773291  1
  Se  Se153  1  0.08470387  0.58616061  0.44810448  1
  Se  Se154  1  0.08147626  0.57980109  0.95453025  1
  Se  Se155  1  0.07673625  0.92607783  0.44417292  1
  Se  Se156  1  0.08227384  0.91619256  0.93987040  1
  Se  Se157  1  0.41490146  0.24007348  0.46321646  1
  Se  Se158  1  0.41457463  0.25786288  0.94256542  1
  Se  Se159  1  0.42316915  0.57951803  0.44469279  1
  Se  Se160  1  0.41640821  0.58708085  0.94676663  1
  Se  Se161  1  0.42626818  0.90573554  0.44556129  1
  Se  Se162  1  0.40848696  0.92970284  0.95018063  1
  Se  Se163  1  0.74535012  0.24754629  0.45507551  1
  Se  Se164  1  0.73814898  0.25801975  0.92864975  1
  Se  Se165  1  0.75102256  0.58155625  0.45017118  1
  Se  Se166  1  0.74869714  0.57530961  0.93832596  1
  Se  Se167  1  0.75262119  0.91730137  0.44822781  1
  Se  Se168  1  0.74401017  0.92563469  0.93921472  1
  Se  Se169  1  0.25620327  0.07025558  0.44442029  1
  Se  Se170  1  0.26130931  0.07848125  0.94727472  1
  Se  Se171  1  0.27296136  0.39839245  0.44753179  1
  Se  Se172  1  0.24269002  0.42066112  0.94493700  1
  Se  Se173  1  0.25963915  0.74356591  0.43670112  1
  Se  Se174  1  0.25519567  0.74739866  0.93784116  1
  Se  Se175  1  0.58172783  0.08242030  0.44853848  1
  Se  Se176  1  0.58418269  0.08908424  0.94225157  1
  Se  Se177  1  0.58437519  0.41550385  0.45328138  1
  Se  Se178  1  0.57744935  0.42130938  0.93721012  1
  Se  Se179  1  0.58471090  0.74599665  0.44714783  1
  Se  Se180  1  0.59593967  0.74746972  0.92936583  1
  Se  Se181  1  0.91089758  0.08925101  0.44580841  1
  Se  Se182  1  0.92526559  0.07267253  0.94189608  1
  Se  Se183  1  0.89954832  0.43377776  0.45083256  1
  Se  Se184  1  0.91331599  0.41066749  0.94492185  1
  Se  Se185  1  0.91565198  0.75359248  0.45301158  1
  Se  Se186  1  0.92540080  0.73271380  0.94025643  1
  Se  Se187  1  0.24085877  0.24063666  0.32004290  1
  Se  Se188  1  0.24961760  0.24957601  0.79803137  1
  Se  Se189  1  0.25668269  0.57939527  0.30310115  1
  Se  Se190  1  0.24625088  0.57594631  0.80601859  1
  Se  Se191  1  0.25140720  0.91929389  0.30286474  1
  Se  Se192  1  0.24931729  0.91504922  0.80979010  1
  Se  Se193  1  0.57372695  0.25040955  0.31693897  1
  Se  Se194  1  0.58367504  0.26072850  0.79480824  1
  Se  Se195  1  0.58360623  0.57590811  0.31025157  1
  Se  Se196  1  0.58204783  0.58398466  0.79694990  1
  Se  Se197  1  0.58337454  0.92203404  0.30552425  1
  Se  Se198  1  0.58323861  0.92310979  0.80021560  1
  Se  Se199  1  0.91388106  0.25510340  0.30921180  1
  Se  Se200  1  0.91681505  0.25051627  0.79815645  1
  Se  Se201  1  0.91362292  0.58206936  0.31025281  1
  Se  Se202  1  0.91609408  0.56977655  0.80796831  1
  Se  Se203  1  0.91463707  0.92339861  0.30640921  1
  Se  Se204  1  0.92053624  0.91952600  0.79847156  1
  Se  Se205  1  0.07807573  0.08192714  0.30380956  1
  Se  Se206  1  0.08356082  0.08158700  0.79998482  1
  Se  Se207  1  0.08225640  0.42070517  0.30971701  1
  Se  Se208  1  0.07918374  0.41490868  0.80432484  1
  Se  Se209  1  0.08692093  0.75756795  0.31492065  1
  Se  Se210  1  0.08978672  0.75004004  0.81055243  1
  Se  Se211  1  0.41428040  0.08339467  0.30758652  1
  Se  Se212  1  0.42000074  0.08951802  0.81298795  1
  Se  Se213  1  0.43091164  0.41886218  0.31329077  1
  Se  Se214  1  0.41041798  0.41881321  0.80113787  1
  Se  Se215  1  0.41563796  0.74507688  0.30047439  1
  Se  Se216  1  0.42589380  0.75711163  0.80120211  1
  Se  Se217  1  0.74385667  0.08544898  0.30661460  1
  Se  Se218  1  0.74875590  0.08375085  0.79866233  1
  Se  Se219  1  0.76076080  0.41457873  0.31394428  1
  Se  Se220  1  0.74855521  0.41450228  0.79607993  1
  Se  Se221  1  0.74906337  0.75492183  0.31582122  1
  Se  Se222  1  0.76366043  0.75037955  0.79558652  1
  Se  Se223  1  0.25039033  0.09031684  0.19818058  1
  Se  Se224  1  0.24809671  0.09841264  0.68257345  1
  Se  Se225  1  0.24686448  0.41670769  0.19306964  1
  Se  Se226  1  0.25311575  0.41556865  0.69481005  1
  Se  Se227  1  0.24699067  0.74760735  0.20032541  1
  Se  Se228  1  0.24117364  0.76101358  0.69166267  1
  Se  Se229  1  0.58699449  0.08382021  0.20022987  1
  Se  Se230  1  0.57511749  0.08401120  0.69778343  1
  Se  Se231  1  0.58240990  0.42043335  0.18959996  1
  Se  Se232  1  0.58625352  0.41364975  0.69751371  1
  Se  Se233  1  0.57301368  0.76179141  0.18829861  1
  Se  Se234  1  0.59065094  0.74755642  0.69314611  1
  Se  Se235  1  0.91657133  0.08420369  0.20173717  1
  Se  Se236  1  0.91585553  0.08548617  0.69113742  1
  Se  Se237  1  0.92339597  0.41160091  0.19630973  1
  Se  Se238  1  0.91943202  0.41155114  0.69158537  1
  Se  Se239  1  0.90134953  0.76016875  0.19579797  1
  Se  Se240  1  0.90904896  0.75585183  0.68981519  1
  Se  Se241  1  0.07958984  0.25466604  0.20553881  1
  Se  Se242  1  0.07679400  0.25252040  0.69642251  1
  Se  Se243  1  0.08825108  0.57308083  0.18943172  1
  Se  Se244  1  0.08579244  0.57064940  0.68483830  1
  Se  Se245  1  0.07976412  0.91804303  0.20078555  1
  Se  Se246  1  0.08095997  0.92392902  0.70094053  1
  Se  Se247  1  0.42615700  0.24978381  0.19655954  1
  Se  Se248  1  0.41907622  0.24915755  0.70057138  1
  Se  Se249  1  0.41521304  0.58330554  0.19743070  1
  Se  Se250  1  0.42064149  0.57179492  0.68058322  1
  Se  Se251  1  0.41354950  0.91979698  0.20008561  1
  Se  Se252  1  0.42460601  0.91410853  0.68581438  1
  Se  Se253  1  0.75928419  0.24052086  0.18801204  1
  Se  Se254  1  0.74780749  0.25260144  0.69428769  1
  Se  Se255  1  0.75489032  0.56889892  0.19442893  1
  Se  Se256  1  0.74877203  0.58279318  0.69700151  1
  Se  Se257  1  0.74248555  0.92325815  0.20271689  1
  Se  Se258  1  0.74066090  0.92850790  0.69652750  1
