# generated using pymatgen
data_In86Cu29Se144
_symmetry_space_group_name_H-M   'P 1'
_cell_length_a   17.60012707
_cell_length_b   17.60720698
_cell_length_c   23.45543293
_cell_angle_alpha   90.02139494
_cell_angle_beta   89.98232634
_cell_angle_gamma   90.01562150
_symmetry_Int_Tables_number   1
_chemical_formula_structural   In86Cu29Se144
_chemical_formula_sum   'In86 Cu29 Se144'
_cell_volume   7268.58141437
_cell_formula_units_Z   1
loop_
 _symmetry_equiv_pos_site_id
 _symmetry_equiv_pos_as_xyz
  1  'x, y, z'
loop_
 _atom_site_type_symbol
 _atom_site_label
 _atom_site_symmetry_multiplicity
 _atom_site_fract_x
 _atom_site_fract_y
 _atom_site_fract_z
 _atom_site_occupancy
  In  In0  1  -0.00080922  0.16579464  0.12487348  1
  In  In1  1  0.00033513  0.17601782  0.62259406  1
  In  In2  1  -0.00489740  0.49962440  0.12505958  1
  In  In3  1  -0.00244509  0.50196737  0.61593498  1
  In  In4  1  -0.02208814  0.83874892  0.13833028  1
  In  In5  1  -0.01973283  0.83116070  0.62349227  1
  In  In6  1  0.33716916  0.18437158  0.13092468  1
  In  In7  1  0.34387220  0.15746760  0.62562957  1
  In  In8  1  0.32471992  0.50059474  0.11612905  1
  In  In9  1  0.33256548  0.49532903  0.62274256  1
  In  In10  1  0.33708848  0.80882691  0.11471942  1
  In  In11  1  0.33369793  0.83902932  0.62953219  1
  In  In12  1  0.66577970  0.15448676  0.12889537  1
  In  In13  1  0.66707263  0.15995219  0.61881128  1
  In  In14  1  0.67783801  0.50347042  0.10553477  1
  In  In15  1  0.67475011  0.51527902  0.61596116  1
  In  In16  1  0.68227615  0.82805755  0.11666184  1
  In  In17  1  0.67953958  0.82011692  0.63573069  1
  In  In18  1  0.15695195  0.01471243  0.37254601  1
  In  In19  1  0.17416926  0.00294891  0.88661342  1
  In  In20  1  0.17537944  0.33899435  0.36749077  1
  In  In21  1  0.14998083  0.34845550  0.88443229  1
  In  In22  1  0.14881110  0.66397275  0.37110605  1
  In  In23  1  0.14705585  0.66296444  0.87975217  1
  In  In24  1  0.52290488  -0.00796443  0.37008036  1
  In  In25  1  0.50654704  -0.01244637  0.87747115  1
  In  In26  1  0.49571270  0.35080449  0.37821125  1
  In  In27  1  0.51261121  0.35739999  0.87988355  1
  In  In28  1  0.51295472  0.64490934  0.37313538  1
  In  In29  1  0.52234195  0.64765598  0.90224721  1
  In  In30  1  0.83302193  0.00170038  0.37289013  1
  In  In31  1  0.82493890  0.00820039  0.87747243  1
  In  In32  1  0.83607875  0.32389110  0.37884392  1
  In  In33  1  0.81628623  0.33664295  0.89346281  1
  In  In34  1  0.82827770  0.66035437  0.36996560  1
  In  In35  1  0.83437786  0.67190596  0.88325565  1
  In  In36  1  -0.01383891  0.15608234  0.36334128  1
  In  In37  1  -0.00830184  0.18071977  0.88737561  1
  In  In38  1  0.00176826  0.49645032  0.37441471  1
  In  In39  1  -0.03211924  0.53185994  0.90744095  1
  In  In40  1  -0.03878450  0.80994678  0.34336437  1
  In  In41  1  -0.01347551  0.80644242  0.88223110  1
  In  In42  1  0.33077607  0.18605420  0.37253751  1
  In  In43  1  0.33517980  0.15525870  0.88254057  1
  In  In44  1  0.34391020  0.48575291  0.37803239  1
  In  In45  1  0.32999027  0.51042610  0.88724157  1
  In  In46  1  0.33765701  0.82585338  0.36754209  1
  In  In47  1  0.33909370  0.84054255  0.88103180  1
  In  In48  1  0.67954708  0.16489938  0.38528153  1
  In  In49  1  0.68129571  0.16585888  0.87493562  1
  In  In50  1  0.65606770  0.50727657  0.37672291  1
  In  In51  1  0.67102113  0.51448944  0.90125159  1
  In  In52  1  0.69266222  0.84398931  0.34950103  1
  In  In53  1  0.66854854  0.83106577  0.87940002  1
  In  In54  1  0.14393042  -0.00344293  0.12444463  1
  In  In55  1  0.17104051  0.00677122  0.62388280  1
  In  In56  1  0.16637675  0.33697824  0.12851017  1
  In  In57  1  0.15300741  0.33822148  0.62536849  1
  In  In58  1  0.15777426  0.64781873  0.11806155  1
  In  In59  1  0.15745806  0.64872111  0.62228438  1
  In  In60  1  0.52137975  -0.00869150  0.13452668  1
  In  In61  1  0.51013524  0.01581572  0.61842499  1
  In  In62  1  0.48667139  0.33806573  0.13494778  1
  In  In63  1  0.52439058  0.34535124  0.60677271  1
  In  In64  1  0.50735982  0.66936030  0.10433856  1
  In  In65  1  0.51203887  0.67493831  0.62578430  1
  In  In66  1  0.82725749  0.00068138  0.12962208  1
  In  In67  1  0.82884683  -0.01506463  0.61943372  1
  In  In68  1  0.84112529  0.34280495  0.11863425  1
  In  In69  1  0.82719668  0.33869559  0.60471905  1
  In  In70  1  0.83153234  0.66285602  0.12085623  1
  In  In71  1  0.83204705  0.66489758  0.62450944  1
  In  In72  1  0.33413928  0.65750291  0.24087304  1
  In  In73  1  0.33575428  0.00026770  0.24603761  1
  In  In74  1  -0.00911787  0.34047911  0.74717049  1
  In  In75  1  0.66516795  0.33960279  0.25094654  1
  In  In76  1  0.67099398  0.33941947  0.74969325  1
  In  In77  1  0.34439408  -0.01075550  0.75464400  1
  In  In78  1  0.33980206  0.67126317  0.75672914  1
  In  In79  1  0.49723376  0.17031858  0.00408115  1
  In  In80  1  0.33674347  0.32739550  0.74861792  1
  In  In81  1  -0.00139398  -0.00375825  0.75015441  1
  In  In82  1  0.50818230  0.82428051  0.49642243  1
  In  In83  1  0.16590148  0.17241502  0.50362141  1
  In  In84  1  0.15482078  0.83246115  0.48904742  1
  In  In85  1  0.15770962  0.83139602  0.00392323  1
  Cu  Cu86  1  0.66846141  0.67267635  0.49578849  1
  Cu  Cu87  1  0.67230998  -0.00530518  0.49665875  1
  Cu  Cu88  1  0.15684801  0.82101390  0.75303165  1
  Cu  Cu89  1  0.51758028  0.82729377  0.75667131  1
  Cu  Cu90  1  0.51298842  0.16917955  0.74467534  1
  Cu  Cu91  1  0.01476185  0.32791268  0.01059281  1
  Cu  Cu92  1  -0.00694810  0.00460939  0.00143205  1
  Cu  Cu93  1  0.33703595  0.33646946  0.49749154  1
  Cu  Cu94  1  0.50951213  0.81775397  0.23813764  1
  Cu  Cu95  1  0.32540162  0.33325151  0.00200593  1
  Cu  Cu96  1  0.83225767  0.16840093  0.25306820  1
  Cu  Cu97  1  0.50156381  0.16884577  0.25589797  1
  Cu  Cu98  1  0.17062232  0.16519860  0.76599776  1
  Cu  Cu99  1  0.16074888  0.83346903  0.24738626  1
  Cu  Cu100  1  0.83185523  0.82413394  0.75338880  1
  Cu  Cu101  1  0.34162063  -0.00017196  0.49900404  1
  Cu  Cu102  1  0.67133333  -0.00308277  0.00494789  1
  Cu  Cu103  1  0.83186795  0.16865307  0.74976782  1
  Cu  Cu104  1  0.15067557  0.50468639  0.75109604  1
  Cu  Cu105  1  0.50956409  0.51168559  0.76020446  1
  Cu  Cu106  1  -0.01176616  -0.00480349  0.48892468  1
  Cu  Cu107  1  -0.00933094  0.66311035  0.49210903  1
  Cu  Cu108  1  0.33189300  0.65688922  0.49844965  1
  Cu  Cu109  1  0.83230739  0.51048370  0.75533080  1
  Cu  Cu110  1  0.33027211  0.00958284  0.01203187  1
  Cu  Cu111  1  0.83642840  0.49943243  0.24391356  1
  Cu  Cu112  1  0.16388109  0.50176225  0.24663341  1
  Cu  Cu113  1  0.16289127  0.17071665  0.24682850  1
  Cu  Cu114  1  0.00452290  0.33256257  0.49483173  1
  Se  Se115  1  0.08173913  0.08557352  0.05097003  1
  Se  Se116  1  0.07117436  0.07049667  0.55326351  1
  Se  Se117  1  0.08852343  0.42315522  0.05836066  1
  Se  Se118  1  0.08440144  0.41749104  0.54973033  1
  Se  Se119  1  0.06726693  0.75017662  0.06811445  1
  Se  Se120  1  0.07291719  0.74324432  0.55595393  1
  Se  Se121  1  0.41772750  0.07823808  0.07289172  1
  Se  Se122  1  0.42196598  0.08771603  0.54818528  1
  Se  Se123  1  0.41344686  0.41115104  0.05550471  1
  Se  Se124  1  0.41857029  0.42011221  0.55302026  1
  Se  Se125  1  0.42559745  0.75773064  0.03807825  1
  Se  Se126  1  0.40514395  0.74428862  0.55843833  1
  Se  Se127  1  0.75121838  0.08566410  0.05518750  1
  Se  Se128  1  0.75449345  0.07713777  0.55313259  1
  Se  Se129  1  0.74406829  0.39749620  0.04666340  1
  Se  Se130  1  0.72449858  0.40926766  0.54901031  1
  Se  Se131  1  0.77340034  0.75920659  0.04611632  1
  Se  Se132  1  0.75096892  0.75109036  0.55470528  1
  Se  Se133  1  0.24842101  0.24945544  0.05863687  1
  Se  Se134  1  0.26040790  0.26035050  0.56565780  1
  Se  Se135  1  0.26735033  0.60830510  0.05339077  1
  Se  Se136  1  0.24875753  0.57777447  0.55482336  1
  Se  Se137  1  0.25212662  0.92015366  0.06559777  1
  Se  Se138  1  0.25461462  0.92017778  0.55253013  1
  Se  Se139  1  0.58165407  0.25340888  0.06993618  1
  Se  Se140  1  0.57392944  0.23124933  0.55213582  1
  Se  Se141  1  0.59485403  0.58784325  0.03849082  1
  Se  Se142  1  0.58110286  0.59340767  0.55066410  1
  Se  Se143  1  0.58587376  0.91387474  0.05547814  1
  Se  Se144  1  0.59321146  0.91472058  0.55991232  1
  Se  Se145  1  0.91975935  0.24920447  0.05443205  1
  Se  Se146  1  0.92126787  0.25039402  0.54963633  1
  Se  Se147  1  0.90237505  0.56560700  0.05322361  1
  Se  Se148  1  0.90935703  0.58206214  0.55053603  1
  Se  Se149  1  0.91491097  0.92208425  0.05906306  1
  Se  Se150  1  0.91247848  0.90942560  0.54650126  1
  Se  Se151  1  0.07961575  0.24908908  0.43288201  1
  Se  Se152  1  0.09375664  0.24436560  0.95083809  1
  Se  Se153  1  0.08243510  0.58116324  0.44696324  1
  Se  Se154  1  0.08544477  0.58502211  0.95934150  1
  Se  Se155  1  0.06816618  0.91918066  0.42715438  1
  Se  Se156  1  0.06881623  0.91996291  0.93913410  1
  Se  Se157  1  0.41831092  0.25381475  0.44354322  1
  Se  Se158  1  0.41227489  0.26264776  0.93863226  1
  Se  Se159  1  0.41872952  0.58108905  0.44342700  1
  Se  Se160  1  0.41492167  0.58211782  0.95741488  1
  Se  Se161  1  0.41526261  0.91775591  0.43721153  1
  Se  Se162  1  0.40858579  0.93304215  0.94962084  1
  Se  Se163  1  0.75002805  0.25598253  0.45309249  1
  Se  Se164  1  0.74206796  0.24238122  0.95523360  1
  Se  Se165  1  0.74800549  0.58392849  0.44407968  1
  Se  Se166  1  0.79457910  0.55897718  0.95141451  1
  Se  Se167  1  0.75052481  0.91116114  0.43826318  1
  Se  Se168  1  0.75244586  0.91780464  0.94573137  1
  Se  Se169  1  0.25749723  0.08051059  0.44213598  1
  Se  Se170  1  0.24787118  0.09019850  0.95711178  1
  Se  Se171  1  0.24798454  0.41541694  0.44561581  1
  Se  Se172  1  0.24578678  0.42085325  0.94880055  1
  Se  Se173  1  0.25622555  0.74040597  0.43825895  1
  Se  Se174  1  0.24752487  0.74955267  0.93789962  1
  Se  Se175  1  0.58670096  0.07681406  0.44553635  1
  Se  Se176  1  0.58837335  0.07790791  0.94501246  1
  Se  Se177  1  0.58434180  0.42011742  0.44821029  1
  Se  Se178  1  0.59459047  0.41299245  0.95831447  1
  Se  Se179  1  0.59780015  0.75070855  0.42692380  1
  Se  Se180  1  0.56555589  0.77349810  0.94713573  1
  Se  Se181  1  0.91033079  0.09005941  0.44408969  1
  Se  Se182  1  0.91086757  0.08704643  0.94666956  1
  Se  Se183  1  0.91818741  0.41478172  0.44391798  1
  Se  Se184  1  0.94130388  0.39146007  0.93588792  1
  Se  Se185  1  0.91273241  0.74922351  0.43687400  1
  Se  Se186  1  0.89599762  0.76291955  0.96098539  1
  Se  Se187  1  0.25102618  0.25265893  0.29576393  1
  Se  Se188  1  0.24812517  0.25130459  0.81991704  1
  Se  Se189  1  0.24626331  0.57758760  0.31056676  1
  Se  Se190  1  0.24072810  0.57939708  0.80817835  1
  Se  Se191  1  0.24151491  0.91149220  0.30845185  1
  Se  Se192  1  0.23727719  0.90710085  0.80858837  1
  Se  Se193  1  0.58254821  0.24806956  0.31639938  1
  Se  Se194  1  0.57964893  0.25049346  0.81258420  1
  Se  Se195  1  0.59339193  0.58388612  0.29508240  1
  Se  Se196  1  0.59503711  0.58272297  0.81950929  1
  Se  Se197  1  0.58402021  0.90962747  0.29143142  1
  Se  Se198  1  0.59426210  0.92003583  0.80551310  1
  Se  Se199  1  0.91708191  0.25628328  0.30014511  1
  Se  Se200  1  0.90332705  0.25222035  0.81059267  1
  Se  Se201  1  0.91819998  0.57747263  0.30505157  1
  Se  Se202  1  0.91801465  0.58769006  0.81174546  1
  Se  Se203  1  0.92413457  0.93706834  0.29962271  1
  Se  Se204  1  0.91268059  0.90750073  0.81290874  1
  Se  Se205  1  0.07971120  0.08381444  0.29553044  1
  Se  Se206  1  0.08279915  0.08630422  0.81792711  1
  Se  Se207  1  0.08440688  0.41619724  0.30219488  1
  Se  Se208  1  0.07055141  0.43050190  0.81243741  1
  Se  Se209  1  0.07855223  0.74481856  0.29645016  1
  Se  Se210  1  0.07149432  0.74257226  0.80563492  1
  Se  Se211  1  0.42007547  0.08367385  0.31438172  1
  Se  Se212  1  0.43088945  0.09187186  0.80722014  1
  Se  Se213  1  0.42141085  0.42013156  0.29922578  1
  Se  Se214  1  0.41871380  0.42952098  0.80877673  1
  Se  Se215  1  0.42880317  0.74569714  0.30290692  1
  Se  Se216  1  0.43005915  0.75732927  0.81725117  1
  Se  Se217  1  0.74634794  0.08668851  0.30592966  1
  Se  Se218  1  0.74919189  0.08262102  0.79919502  1
  Se  Se219  1  0.75875655  0.42459993  0.31151526  1
  Se  Se220  1  0.75418427  0.42766815  0.81498408  1
  Se  Se221  1  0.77002032  0.74830788  0.28941845  1
  Se  Se222  1  0.74923260  0.74561655  0.81045718  1
  Se  Se223  1  0.24222976  0.08565108  0.18684505  1
  Se  Se224  1  0.24897890  0.08860763  0.70160332  1
  Se  Se225  1  0.25244782  0.42285601  0.19428983  1
  Se  Se226  1  0.23692437  0.42286565  0.69772014  1
  Se  Se227  1  0.23851393  0.75214215  0.18861480  1
  Se  Se228  1  0.24169645  0.74988137  0.69042347  1
  Se  Se229  1  0.58549011  0.08397077  0.20596283  1
  Se  Se230  1  0.59297899  0.08019593  0.69593363  1
  Se  Se231  1  0.58638697  0.42836185  0.18419841  1
  Se  Se232  1  0.57946958  0.43049507  0.69292089  1
  Se  Se233  1  0.58981276  0.74243053  0.17904655  1
  Se  Se234  1  0.59351033  0.73879114  0.70325339  1
  Se  Se235  1  0.91369819  0.08717213  0.19501264  1
  Se  Se236  1  0.91285861  0.08984125  0.68860896  1
  Se  Se237  1  0.92034562  0.41117185  0.19662305  1
  Se  Se238  1  0.89704700  0.42571530  0.68648596  1
  Se  Se239  1  0.89373017  0.74974078  0.20042550  1
  Se  Se240  1  0.91570980  0.74493116  0.69719107  1
  Se  Se241  1  0.07960207  0.25266099  0.19349726  1
  Se  Se242  1  0.09247195  0.24061794  0.70089854  1
  Se  Se243  1  0.07743856  0.58380326  0.19656612  1
  Se  Se244  1  0.06806149  0.58269224  0.69405298  1
  Se  Se245  1  0.07377997  0.91881073  0.20086975  1
  Se  Se246  1  0.09159510  0.90763728  0.68700090  1
  Se  Se247  1  0.41518229  0.25310887  0.20896196  1
  Se  Se248  1  0.43342308  0.24978352  0.68583895  1
  Se  Se249  1  0.42780583  0.58024101  0.17793740  1
  Se  Se250  1  0.42408083  0.57917936  0.69301713  1
  Se  Se251  1  0.41700814  0.89953307  0.18767620  1
  Se  Se252  1  0.43898737  0.90641359  0.69222645  1
  Se  Se253  1  0.75400971  0.24834960  0.19061743  1
  Se  Se254  1  0.75832805  0.25071016  0.68680694  1
  Se  Se255  1  0.74936929  0.57378834  0.18749379  1
  Se  Se256  1  0.74768009  0.58532036  0.69631476  1
  Se  Se257  1  0.73430652  0.92255450  0.19233878  1
  Se  Se258  1  0.75548050  0.91489279  0.69991842  1
