# generated using pymatgen
data_In86Cu29Se144
_symmetry_space_group_name_H-M   'P 1'
_cell_length_a   17.58366444
_cell_length_b   17.58398286
_cell_length_c   23.44095832
_cell_angle_alpha   90.02969996
_cell_angle_beta   90.01823221
_cell_angle_gamma   90.00794520
_symmetry_Int_Tables_number   1
_chemical_formula_structural   In86Cu29Se144
_chemical_formula_sum   'In86 Cu29 Se144'
_cell_volume   7247.72851462
_cell_formula_units_Z   1
loop_
 _symmetry_equiv_pos_site_id
 _symmetry_equiv_pos_as_xyz
  1  'x, y, z'
loop_
 _atom_site_type_symbol
 _atom_site_label
 _atom_site_symmetry_multiplicity
 _atom_site_fract_x
 _atom_site_fract_y
 _atom_site_fract_z
 _atom_site_occupancy
  In  In0  1  -0.00445349  0.17045291  0.13301957  1
  In  In1  1  0.01209478  0.17101790  0.62473927  1
  In  In2  1  0.00778599  0.50096767  0.13695092  1
  In  In3  1  -0.00038443  0.50260211  0.61884907  1
  In  In4  1  0.01089629  0.80952936  0.14371658  1
  In  In5  1  -0.01367954  0.83587571  0.62514917  1
  In  In6  1  0.32490047  0.16319444  0.12473899  1
  In  In7  1  0.35663053  0.17399277  0.62248603  1
  In  In8  1  0.33603919  0.50857548  0.12362566  1
  In  In9  1  0.31674214  0.49587606  0.61361225  1
  In  In10  1  0.33756309  0.82783474  0.12510356  1
  In  In11  1  0.33257341  0.82605717  0.62332239  1
  In  In12  1  0.67007982  0.16250610  0.13319990  1
  In  In13  1  0.64007868  0.19016074  0.64465100  1
  In  In14  1  0.66199568  0.50716245  0.13605581  1
  In  In15  1  0.64973670  0.47441699  0.60045599  1
  In  In16  1  0.65545638  0.83976540  0.13406601  1
  In  In17  1  0.67818869  0.82889007  0.62541299  1
  In  In18  1  0.15577422  -0.01374283  0.36123631  1
  In  In19  1  0.16277323  -0.00829371  0.88177246  1
  In  In20  1  0.16665572  0.35339420  0.37204039  1
  In  In21  1  0.17664461  0.34471928  0.86661829  1
  In  In22  1  0.16890960  0.64952269  0.36668010  1
  In  In23  1  0.15893640  0.67288890  0.88262484  1
  In  In24  1  0.50883423  0.00358040  0.36806478  1
  In  In25  1  0.49931000  -0.00195638  0.87825888  1
  In  In26  1  0.50674519  0.33158377  0.38637996  1
  In  In27  1  0.51043190  0.34114436  0.86544989  1
  In  In28  1  0.49137847  0.64930728  0.36557473  1
  In  In29  1  0.49773021  0.66989687  0.88621553  1
  In  In30  1  0.82202350  -0.01283177  0.36229814  1
  In  In31  1  0.83459795  0.00898614  0.87781510  1
  In  In32  1  0.83461029  0.33549060  0.37608657  1
  In  In33  1  0.82953158  0.33237814  0.86170853  1
  In  In34  1  0.83061652  0.66501475  0.37125759  1
  In  In35  1  0.83912434  0.65599870  0.87132486  1
  In  In36  1  -0.00456859  0.16506812  0.36839117  1
  In  In37  1  -0.00967652  0.16889025  0.87391102  1
  In  In38  1  0.00138288  0.49703372  0.37247988  1
  In  In39  1  0.00754252  0.51447983  0.86435928  1
  In  In40  1  -0.02273984  0.81349012  0.35350954  1
  In  In41  1  0.01531024  0.82391220  0.88181703  1
  In  In42  1  0.34822166  0.16897847  0.37694621  1
  In  In43  1  0.33056631  0.17157942  0.87080515  1
  In  In44  1  0.32947683  0.51075899  0.39102038  1
  In  In45  1  0.33738923  0.49752633  0.87998941  1
  In  In46  1  0.32598702  0.82244550  0.36364859  1
  In  In47  1  0.33210036  0.83614589  0.88417251  1
  In  In48  1  0.66135928  0.16468474  0.37519345  1
  In  In49  1  0.66234959  0.16494829  0.86170539  1
  In  In50  1  0.66553070  0.49729923  0.37572409  1
  In  In51  1  0.66389088  0.49243505  0.87310677  1
  In  In52  1  0.67690898  0.83520857  0.36366725  1
  In  In53  1  0.65508485  0.83766275  0.88267680  1
  In  In54  1  0.18367791  -0.01226836  0.13358050  1
  In  In55  1  0.16045414  -0.00541170  0.62369655  1
  In  In56  1  0.15115764  0.34041753  0.12714679  1
  In  In57  1  0.15628348  0.34831822  0.63317363  1
  In  In58  1  0.16669105  0.66549999  0.12631268  1
  In  In59  1  0.17106707  0.65332475  0.62317695  1
  In  In60  1  0.51582564  -0.01887642  0.13193510  1
  In  In61  1  0.50597811  0.01641745  0.62372510  1
  In  In62  1  0.50064593  0.34867263  0.12514041  1
  In  In63  1  0.49815915  0.33223350  0.63018862  1
  In  In64  1  0.49641703  0.66253119  0.12844229  1
  In  In65  1  0.50927602  0.66754235  0.62044903  1
  In  In66  1  0.82653038  -0.00555185  0.13880730  1
  In  In67  1  0.82284109  -0.01361987  0.61887949  1
  In  In68  1  0.83017873  0.33407572  0.13427738  1
  In  In69  1  0.82458129  0.34498574  0.62323328  1
  In  In70  1  0.84415802  0.66808647  0.14512472  1
  In  In71  1  0.83553551  0.66780442  0.61468994  1
  In  In72  1  0.82951866  0.16659180  0.00826716  1
  In  In73  1  0.17448587  0.16671200  0.49797251  1
  In  In74  1  0.16060106  0.82323638  0.48952833  1
  In  In75  1  0.32888513  0.66435035  0.74349681  1
  In  In76  1  0.83116278  0.83509984  0.01518580  1
  In  In77  1  0.50191868  0.82623801  0.49285703  1
  In  In78  1  0.33332586  0.33679394  0.24947954  1
  In  In79  1  0.83054037  0.50038353  -0.00089378  1
  In  In80  1  0.16720855  0.16669199  -0.00416779  1
  In  In81  1  0.49877519  0.16704151  -0.00726359  1
  In  In82  1  0.67753779  0.66166168  0.74332831  1
  In  In83  1  0.82136769  0.17236318  0.50324445  1
  In  In84  1  0.33438112  0.00567378  0.75725963  1
  In  In85  1  -0.00191214  0.00273286  0.75457863  1
  Cu  Cu86  1  0.83514369  0.16609676  0.74638952  1
  Cu  Cu87  1  0.50194710  0.49887356  0.74675391  1
  Cu  Cu88  1  0.66562012  -0.00035972  0.49354457  1
  Cu  Cu89  1  0.66113221  0.33414534  -0.00439726  1
  Cu  Cu90  1  0.16722362  0.16674509  0.24785404  1
  Cu  Cu91  1  0.49714759  0.84228421  0.75682433  1
  Cu  Cu92  1  -0.01527324  -0.00494717  0.49298376  1
  Cu  Cu93  1  0.00396297  0.34065019  0.49791304  1
  Cu  Cu94  1  0.83267496  0.83342952  0.74860851  1
  Cu  Cu95  1  -0.00228909  0.66625327  0.48987114  1
  Cu  Cu96  1  0.50204684  0.16466164  0.25284358  1
  Cu  Cu97  1  0.01047549  -0.00766885  0.01209101  1
  Cu  Cu98  1  0.32924614  0.34793485  -0.00132997  1
  Cu  Cu99  1  0.83437090  0.49818621  0.73943359  1
  Cu  Cu100  1  0.34431748  -0.00967770  0.00721445  1
  Cu  Cu101  1  0.17515581  0.17269879  0.74617617  1
  Cu  Cu102  1  0.17468551  0.83356363  0.24539278  1
  Cu  Cu103  1  0.82696050  0.17023040  0.25545886  1
  Cu  Cu104  1  0.33198634  0.66529569  0.00498798  1
  Cu  Cu105  1  0.50446116  0.49641843  0.25427311  1
  Cu  Cu106  1  0.00265943  0.66768051  0.00574229  1
  Cu  Cu107  1  0.67544297  0.66741030  0.49255278  1
  Cu  Cu108  1  0.33552397  -0.00112065  0.49486751  1
  Cu  Cu109  1  0.83673888  0.49537103  0.25757327  1
  Cu  Cu110  1  0.49812958  0.82589019  0.25027282  1
  Cu  Cu111  1  0.65851803  0.66666135  0.01112793  1
  Cu  Cu112  1  0.16360254  0.49921854  0.74689386  1
  Cu  Cu113  1  0.33761181  0.33328994  0.50231431  1
  Cu  Cu114  1  0.00275771  0.34747191  -0.00196132  1
  Se  Se115  1  0.08647032  0.08264130  0.06673643  1
  Se  Se116  1  0.07267584  0.07151128  0.54977767  1
  Se  Se117  1  0.08096459  0.42837442  0.05532346  1
  Se  Se118  1  0.08948010  0.42125342  0.55161273  1
  Se  Se119  1  0.08418935  0.75356046  0.05757404  1
  Se  Se120  1  0.07275078  0.74342408  0.55866206  1
  Se  Se121  1  0.41869059  0.07947446  0.06276182  1
  Se  Se122  1  0.41723678  0.08076968  0.54917507  1
  Se  Se123  1  0.41692032  0.42291860  0.05397896  1
  Se  Se124  1  0.41733914  0.41663116  0.55889983  1
  Se  Se125  1  0.42060179  0.74660422  0.05532091  1
  Se  Se126  1  0.40813759  0.73864694  0.55282233  1
  Se  Se127  1  0.74167058  0.06943091  0.06045680  1
  Se  Se128  1  0.73425414  0.08003422  0.56190074  1
  Se  Se129  1  0.74173488  0.41021266  0.05934214  1
  Se  Se130  1  0.76146626  0.41964513  0.54228667  1
  Se  Se131  1  0.74669760  0.73643011  0.07084215  1
  Se  Se132  1  0.75167317  0.75444841  0.54844071  1
  Se  Se133  1  0.25302895  0.26234973  0.05734188  1
  Se  Se134  1  0.25304350  0.25692673  0.56469286  1
  Se  Se135  1  0.24554697  0.58183908  0.05459622  1
  Se  Se136  1  0.24946806  0.58932211  0.54560792  1
  Se  Se137  1  0.25258219  0.91113202  0.05497046  1
  Se  Se138  1  0.25321944  0.91890484  0.55256929  1
  Se  Se139  1  0.58769160  0.25243238  0.05964316  1
  Se  Se140  1  0.57830544  0.25060058  0.55806840  1
  Se  Se141  1  0.57972371  0.57534801  0.05962817  1
  Se  Se142  1  0.58923504  0.59125077  0.54892597  1
  Se  Se143  1  0.58797555  0.91149254  0.05256360  1
  Se  Se144  1  0.58682370  0.91692439  0.55706516  1
  Se  Se145  1  0.92431333  0.26431664  0.05701914  1
  Se  Se146  1  0.92707148  0.25559201  0.55716477  1
  Se  Se147  1  0.91689948  0.58903896  0.06259175  1
  Se  Se148  1  0.91745576  0.58285758  0.54762991  1
  Se  Se149  1  0.92805040  0.91857635  0.07329011  1
  Se  Se150  1  0.90826214  0.90979400  0.54896634  1
  Se  Se151  1  0.08037819  0.25366610  0.43931828  1
  Se  Se152  1  0.07642196  0.25980426  0.93888818  1
  Se  Se153  1  0.08435444  0.58181144  0.44227781  1
  Se  Se154  1  0.07790831  0.58206362  0.94755719  1
  Se  Se155  1  0.06821781  0.91550091  0.43601324  1
  Se  Se156  1  0.08805904  0.91016988  0.95434615  1
  Se  Se157  1  0.42013462  0.24672049  0.45271781  1
  Se  Se158  1  0.40780219  0.26406480  0.93977911  1
  Se  Se159  1  0.43768997  0.57186341  0.44989845  1
  Se  Se160  1  0.41579232  0.58269601  0.94961940  1
  Se  Se161  1  0.40987607  0.91529814  0.43361163  1
  Se  Se162  1  0.42566813  0.91157312  0.94894844  1
  Se  Se163  1  0.73424810  0.26291799  0.44367940  1
  Se  Se164  1  0.74563260  0.25426534  0.93928845  1
  Se  Se165  1  0.75539060  0.57913890  0.44206727  1
  Se  Se166  1  0.73694866  0.59409253  0.94300265  1
  Se  Se167  1  0.74826714  0.91516865  0.44193474  1
  Se  Se168  1  0.75057814  0.92278062  0.94583430  1
  Se  Se169  1  0.25068590  0.07117000  0.43285282  1
  Se  Se170  1  0.26601431  0.07206854  0.94425995  1
  Se  Se171  1  0.25014769  0.41360513  0.45095265  1
  Se  Se172  1  0.24024329  0.42518987  0.94605307  1
  Se  Se173  1  0.25925117  0.73528713  0.43989929  1
  Se  Se174  1  0.25042292  0.74886027  0.94875078  1
  Se  Se175  1  0.57854229  0.08317752  0.44572602  1
  Se  Se176  1  0.59842319  0.07893139  0.94221126  1
  Se  Se177  1  0.57015926  0.43616705  0.44772260  1
  Se  Se178  1  0.57843743  0.42019164  0.94557843  1
  Se  Se179  1  0.59181026  0.74214507  0.42985866  1
  Se  Se180  1  0.58229584  0.75160546  0.95355228  1
  Se  Se181  1  0.90817518  0.08343345  0.43888807  1
  Se  Se182  1  0.93096422  0.07479870  0.95281107  1
  Se  Se183  1  0.91736677  0.41856647  0.44429180  1
  Se  Se184  1  0.91791578  0.41538718  0.93342409  1
  Se  Se185  1  0.91306496  0.75178998  0.44105162  1
  Se  Se186  1  0.91470437  0.74355023  0.94742825  1
  Se  Se187  1  0.24519656  0.24475511  0.31231612  1
  Se  Se188  1  0.25654223  0.25628377  0.80012998  1
  Se  Se189  1  0.26324960  0.57195862  0.30481184  1
  Se  Se190  1  0.24359020  0.57924038  0.80975748  1
  Se  Se191  1  0.25740349  0.91995333  0.29802183  1
  Se  Se192  1  0.24191098  0.90808002  0.80799635  1
  Se  Se193  1  0.57781775  0.25144015  0.30871591  1
  Se  Se194  1  0.59353156  0.26050890  0.79861496  1
  Se  Se195  1  0.59225197  0.58345357  0.30102518  1
  Se  Se196  1  0.57596020  0.58628456  0.80707511  1
  Se  Se197  1  0.58216745  0.91279920  0.30072479  1
  Se  Se198  1  0.58537830  0.92119877  0.80749004  1
  Se  Se199  1  0.91455237  0.25367729  0.30419116  1
  Se  Se200  1  0.91969485  0.24924561  0.79873325  1
  Se  Se201  1  0.91988910  0.58429862  0.30489105  1
  Se  Se202  1  0.91414720  0.58408032  0.79433180  1
  Se  Se203  1  0.94128793  0.94204521  0.30857176  1
  Se  Se204  1  0.91229629  0.90726598  0.81499499  1
  Se  Se205  1  0.08158611  0.08524980  0.30063300  1
  Se  Se206  1  0.09722445  0.09339212  0.81077385  1
  Se  Se207  1  0.08284425  0.41962709  0.29893244  1
  Se  Se208  1  0.07991360  0.41586337  0.80119890  1
  Se  Se209  1  0.09840618  0.75506855  0.30811495  1
  Se  Se210  1  0.07447847  0.73826019  0.80632052  1
  Se  Se211  1  0.41537702  0.08239640  0.30326313  1
  Se  Se212  1  0.43171312  0.09725388  0.80778726  1
  Se  Se213  1  0.42147992  0.41846488  0.31486318  1
  Se  Se214  1  0.41659111  0.42294048  0.80443837  1
  Se  Se215  1  0.41392504  0.74029217  0.29969434  1
  Se  Se216  1  0.41794723  0.75410521  0.80925159  1
  Se  Se217  1  0.74160764  0.08383969  0.30377640  1
  Se  Se218  1  0.75690948  0.08148144  0.80250466  1
  Se  Se219  1  0.74824052  0.41319860  0.30627644  1
  Se  Se220  1  0.74880206  0.42382423  0.79899200  1
  Se  Se221  1  0.76907803  0.75997311  0.29743866  1
  Se  Se222  1  0.75247998  0.75597414  0.81340067  1
  Se  Se223  1  0.25555591  0.08330706  0.20059146  1
  Se  Se224  1  0.24699695  0.08730247  0.68521795  1
  Se  Se225  1  0.24216072  0.42527072  0.19103780  1
  Se  Se226  1  0.25499293  0.42004516  0.69704795  1
  Se  Se227  1  0.25512892  0.74541515  0.19418140  1
  Se  Se228  1  0.23501199  0.75980788  0.69201734  1
  Se  Se229  1  0.58321964  0.08030939  0.19780535  1
  Se  Se230  1  0.59257723  0.07273895  0.70010791  1
  Se  Se231  1  0.58681429  0.41128139  0.20114184  1
  Se  Se232  1  0.58880494  0.42047346  0.69263648  1
  Se  Se233  1  0.58260502  0.74236241  0.19767796  1
  Se  Se234  1  0.57642316  0.75941232  0.69631222  1
  Se  Se235  1  0.90927195  0.08904520  0.19801176  1
  Se  Se236  1  0.91256223  0.08468269  0.68432058  1
  Se  Se237  1  0.91844994  0.41516193  0.19831458  1
  Se  Se238  1  0.92150163  0.41519496  0.68915758  1
  Se  Se239  1  0.90044487  0.77120554  0.21192819  1
  Se  Se240  1  0.90869501  0.74781632  0.69282459  1
  Se  Se241  1  0.08234539  0.25240184  0.19875421  1
  Se  Se242  1  0.08328158  0.25246655  0.69884734  1
  Se  Se243  1  0.06347361  0.61114807  0.19535637  1
  Se  Se244  1  0.08154938  0.58286841  0.69277567  1
  Se  Se245  1  0.08553959  0.91732452  0.19752391  1
  Se  Se246  1  0.08534164  0.90865272  0.69570937  1
  Se  Se247  1  0.42416967  0.24384508  0.18856343  1
  Se  Se248  1  0.42050327  0.24851582  0.70185759  1
  Se  Se249  1  0.41870101  0.57689443  0.19993794  1
  Se  Se250  1  0.42344093  0.57795255  0.68529993  1
  Se  Se251  1  0.41712521  0.91288564  0.19618307  1
  Se  Se252  1  0.41915178  0.91445501  0.68947486  1
  Se  Se253  1  0.74409265  0.25316091  0.20045024  1
  Se  Se254  1  0.75550296  0.25386315  0.69447236  1
  Se  Se255  1  0.75503259  0.57906578  0.20262910  1
  Se  Se256  1  0.74971845  0.56916257  0.67579057  1
  Se  Se257  1  0.74818040  0.90765273  0.20391885  1
  Se  Se258  1  0.74695881  0.91656481  0.69891410  1
