# generated using pymatgen
data_In86Cu29Se144
_symmetry_space_group_name_H-M   'P 1'
_cell_length_a   17.58564475
_cell_length_b   17.58538156
_cell_length_c   23.44709168
_cell_angle_alpha   89.94916633
_cell_angle_beta   90.02718046
_cell_angle_gamma   89.98636622
_symmetry_Int_Tables_number   1
_chemical_formula_structural   In86Cu29Se144
_chemical_formula_sum   'In86 Cu29 Se144'
_cell_volume   7251.01562351
_cell_formula_units_Z   1
loop_
 _symmetry_equiv_pos_site_id
 _symmetry_equiv_pos_as_xyz
  1  'x, y, z'
loop_
 _atom_site_type_symbol
 _atom_site_label
 _atom_site_symmetry_multiplicity
 _atom_site_fract_x
 _atom_site_fract_y
 _atom_site_fract_z
 _atom_site_occupancy
  In  In0  1  0.00227399  0.16098878  0.13202945  1
  In  In1  1  -0.01425052  0.14862955  0.61309882  1
  In  In2  1  0.00049748  0.49700510  0.11615653  1
  In  In3  1  0.01739818  0.51018717  0.63334529  1
  In  In4  1  0.00079756  0.84287059  0.12215166  1
  In  In5  1  -0.00199657  0.83735086  0.62759571  1
  In  In6  1  0.34503077  0.16389085  0.12786418  1
  In  In7  1  0.34224462  0.17746705  0.61852221  1
  In  In8  1  0.32105567  0.50917829  0.13153455  1
  In  In9  1  0.33642184  0.48953067  0.63441446  1
  In  In10  1  0.31096683  0.82980593  0.12906931  1
  In  In11  1  0.31849289  0.83720187  0.62432653  1
  In  In12  1  0.65659856  0.16201256  0.12286312  1
  In  In13  1  0.66250102  0.15499076  0.62730699  1
  In  In14  1  0.67270060  0.49358683  0.12113325  1
  In  In15  1  0.65955262  0.52415075  0.62288352  1
  In  In16  1  0.68379859  0.83828282  0.12577640  1
  In  In17  1  0.68320681  0.82253574  0.62738946  1
  In  In18  1  0.15999125  0.00214411  0.38084724  1
  In  In19  1  0.15108109  -0.00656812  0.87503279  1
  In  In20  1  0.15887380  0.32288694  0.36561686  1
  In  In21  1  0.17901862  0.33154656  0.87550263  1
  In  In22  1  0.17516537  0.66300199  0.37896563  1
  In  In23  1  0.16413161  0.66816469  0.87846428  1
  In  In24  1  0.51391619  0.00260577  0.37786626  1
  In  In25  1  0.51002840  -0.00051435  0.87225695  1
  In  In26  1  0.49555448  0.33716627  0.38192440  1
  In  In27  1  0.48626245  0.33764795  0.87396866  1
  In  In28  1  0.48671840  0.66689363  0.37954468  1
  In  In29  1  0.49477548  0.66051909  0.86141850  1
  In  In30  1  0.83654511  -0.00198817  0.37311262  1
  In  In31  1  0.82586272  -0.00580967  0.87009686  1
  In  In32  1  0.82823062  0.32182225  0.37500661  1
  In  In33  1  0.84442943  0.33464981  0.87588610  1
  In  In34  1  0.84143954  0.67793533  0.37856489  1
  In  In35  1  0.83652924  0.67054112  0.87241506  1
  In  In36  1  -0.00064007  0.16260314  0.37402159  1
  In  In37  1  -0.00370776  0.15630219  0.86448035  1
  In  In38  1  0.01189223  0.50100573  0.37175292  1
  In  In39  1  -0.00795637  0.50795675  0.88067476  1
  In  In40  1  -0.01210063  0.84604542  0.38218923  1
  In  In41  1  0.00307393  0.83633161  0.87946702  1
  In  In42  1  0.32310704  0.17518351  0.38229244  1
  In  In43  1  0.33227125  0.18122337  0.87231677  1
  In  In44  1  0.33899352  0.50269911  0.37260560  1
  In  In45  1  0.32002667  0.49618801  0.86468538  1
  In  In46  1  0.33028880  0.82051063  0.37522417  1
  In  In47  1  0.32771058  0.81580359  0.87287392  1
  In  In48  1  0.67911069  0.15809102  0.38937431  1
  In  In49  1  0.66328755  0.14727488  0.86682443  1
  In  In50  1  0.66521115  0.48498928  0.37948625  1
  In  In51  1  0.66872516  0.51446127  0.86917386  1
  In  In52  1  0.66919387  0.84875748  0.37190515  1
  In  In53  1  0.67789102  0.84337824  0.86609186  1
  In  In54  1  0.14860652  -0.02011475  0.12020976  1
  In  In55  1  0.15394630  -0.01087148  0.61679612  1
  In  In56  1  0.15706908  0.34000167  0.13131372  1
  In  In57  1  0.18028362  0.33481954  0.62794816  1
  In  In58  1  0.17484343  0.67675463  0.12008180  1
  In  In59  1  0.15570197  0.67279596  0.63986294  1
  In  In60  1  0.49870791  0.01387276  0.12599877  1
  In  In61  1  0.50817150  0.02122948  0.62541289  1
  In  In62  1  0.50338667  0.31874154  0.12567381  1
  In  In63  1  0.48517095  0.31963426  0.62107153  1
  In  In64  1  0.49340413  0.65572483  0.12755403  1
  In  In65  1  0.51050159  0.65677363  0.62635985  1
  In  In66  1  0.84859863  -0.02052870  0.14753676  1
  In  In67  1  0.83659496  0.00092187  0.63023996  1
  In  In68  1  0.83714674  0.34149264  0.12264739  1
  In  In69  1  0.84266560  0.32421428  0.61998515  1
  In  In70  1  0.84470743  0.67591678  0.11220840  1
  In  In71  1  0.82538362  0.68200852  0.63185014  1
  In  In72  1  0.17100966  0.49912849  0.50650311  1
  In  In73  1  0.50285050  0.49921094  -0.00115539  1
  In  In74  1  0.66482723  0.66979681  0.25373316  1
  In  In75  1  0.32829719  0.00067240  0.25000960  1
  In  In76  1  0.16975197  0.16543328  0.00320233  1
  In  In77  1  0.83095789  0.15867538  -0.00488798  1
  In  In78  1  0.50464158  0.83381914  0.49847776  1
  In  In79  1  0.66901981  0.32889184  0.24714772  1
  In  In80  1  0.00680091  0.33291772  0.75035160  1
  In  In81  1  0.82959189  0.50146457  0.50320862  1
  In  In82  1  0.33709567  0.00444150  0.74301853  1
  In  In83  1  0.66199440  0.32992097  0.74132681  1
  In  In84  1  0.49914780  0.83187479  -0.00797179  1
  In  In85  1  0.00875107  0.67682301  0.24288820  1
  Cu  Cu86  1  0.33361740  0.33407460  0.50032835  1
  Cu  Cu87  1  0.49537742  0.83206228  0.25379212  1
  Cu  Cu88  1  0.00543701  0.33335342  -0.00190292  1
  Cu  Cu89  1  0.65783707  0.33127284  0.50563842  1
  Cu  Cu90  1  0.50646576  0.83420985  0.74656247  1
  Cu  Cu91  1  0.84306473  0.50495688  0.24085557  1
  Cu  Cu92  1  0.16186867  0.83287739  0.75085766  1
  Cu  Cu93  1  0.67669465  0.67208378  -0.00863647  1
  Cu  Cu94  1  0.83934979  0.83245427  0.75146273  1
  Cu  Cu95  1  -0.00171405  0.66581191  -0.00278171  1
  Cu  Cu96  1  0.16720665  0.16431086  0.74610736  1
  Cu  Cu97  1  0.66842096  -0.00195151  -0.00257580  1
  Cu  Cu98  1  0.33265522  0.00159899  0.00395599  1
  Cu  Cu99  1  0.83583549  0.16319424  0.25783248  1
  Cu  Cu100  1  -0.00301230  0.67771556  0.50925247  1
  Cu  Cu101  1  -0.00465213  0.00036797  0.49967994  1
  Cu  Cu102  1  0.33121396  0.00209523  0.50341476  1
  Cu  Cu103  1  0.48837195  0.49809862  0.25396207  1
  Cu  Cu104  1  0.00221474  0.32640296  0.49395817  1
  Cu  Cu105  1  0.67328940  0.00140382  0.50223612  1
  Cu  Cu106  1  0.16741612  0.16329667  0.25225409  1
  Cu  Cu107  1  0.49704810  0.50062385  0.74821921  1
  Cu  Cu108  1  0.17162603  0.49490036  0.25099787  1
  Cu  Cu109  1  0.67089496  0.33083042  0.00189118  1
  Cu  Cu110  1  0.32767837  0.66746652  -0.00096647  1
  Cu  Cu111  1  0.33562453  0.33801268  -0.00139370  1
  Cu  Cu112  1  0.83511301  0.50524972  0.75060185  1
  Cu  Cu113  1  0.33321134  0.66465737  0.50185597  1
  Cu  Cu114  1  0.50159878  0.16953845  0.25398487  1
  Se  Se115  1  0.07072814  0.07606744  0.05315110  1
  Se  Se116  1  0.08594444  0.08391117  0.54765410  1
  Se  Se117  1  0.09017604  0.41565631  0.05038241  1
  Se  Se118  1  0.07315056  0.40782508  0.55953221  1
  Se  Se119  1  0.07575028  0.74706901  0.05777498  1
  Se  Se120  1  0.08742017  0.75297135  0.56204026  1
  Se  Se121  1  0.41845483  0.08678471  0.05043085  1
  Se  Se122  1  0.41795702  0.08513154  0.55194424  1
  Se  Se123  1  0.41482669  0.41411854  0.06381427  1
  Se  Se124  1  0.41328697  0.41803051  0.55606983  1
  Se  Se125  1  0.41156899  0.74573244  0.05853932  1
  Se  Se126  1  0.41239211  0.74874195  0.56106292  1
  Se  Se127  1  0.74747445  0.07353584  0.06238665  1
  Se  Se128  1  0.75433942  0.08393923  0.55848587  1
  Se  Se129  1  0.75439106  0.41722320  0.04964764  1
  Se  Se130  1  0.73969767  0.41167831  0.56560636  1
  Se  Se131  1  0.75188988  0.75627220  0.04955215  1
  Se  Se132  1  0.74993483  0.74304399  0.54993622  1
  Se  Se133  1  0.25832932  0.25751702  0.06223765  1
  Se  Se134  1  0.24776657  0.25160112  0.55169094  1
  Se  Se135  1  0.24731791  0.58166421  0.05283240  1
  Se  Se136  1  0.25355203  0.59171038  0.56777384  1
  Se  Se137  1  0.24836562  0.91653494  0.05272008  1
  Se  Se138  1  0.24574869  0.91435512  0.54818934  1
  Se  Se139  1  0.58363596  0.24758505  0.05005037  1
  Se  Se140  1  0.58142519  0.24327307  0.55959068  1
  Se  Se141  1  0.59579111  0.59537447  0.05514188  1
  Se  Se142  1  0.58206576  0.58956335  0.54445338  1
  Se  Se143  1  0.58367605  0.92009778  0.05832373  1
  Se  Se144  1  0.59098451  0.92184101  0.56271398  1
  Se  Se145  1  0.92409185  0.25051738  0.05609270  1
  Se  Se146  1  0.91519654  0.24471084  0.54525977  1
  Se  Se147  1  0.91480661  0.57851181  0.04894708  1
  Se  Se148  1  0.92296307  0.58646301  0.56504667  1
  Se  Se149  1  0.90492442  0.91677892  0.05901867  1
  Se  Se150  1  0.91493460  0.91769290  0.55738231  1
  Se  Se151  1  0.08719144  0.24469217  0.44230607  1
  Se  Se152  1  0.07682156  0.24862577  0.93615837  1
  Se  Se153  1  0.07398375  0.59175672  0.45004989  1
  Se  Se154  1  0.08444039  0.58209942  0.94766635  1
  Se  Se155  1  0.08228669  0.91546682  0.45054444  1
  Se  Se156  1  0.08940310  0.91108052  0.95129664  1
  Se  Se157  1  0.41757723  0.24761012  0.44880333  1
  Se  Se158  1  0.41662250  0.25121824  0.94784376  1
  Se  Se159  1  0.41441318  0.57862705  0.45012112  1
  Se  Se160  1  0.41212148  0.58861291  0.94079918  1
  Se  Se161  1  0.40993489  0.92304645  0.43894197  1
  Se  Se162  1  0.40539978  0.92306858  0.93559025  1
  Se  Se163  1  0.75020134  0.25553008  0.45395178  1
  Se  Se164  1  0.74271507  0.25173350  0.93502022  1
  Se  Se165  1  0.74549405  0.58842355  0.43698492  1
  Se  Se166  1  0.75571397  0.58147594  0.94199655  1
  Se  Se167  1  0.75265610  0.91820607  0.44612224  1
  Se  Se168  1  0.75154300  0.91395497  0.94607833  1
  Se  Se169  1  0.24735471  0.08332234  0.44750970  1
  Se  Se170  1  0.25568605  0.07859801  0.93701381  1
  Se  Se171  1  0.25020887  0.41016496  0.43834316  1
  Se  Se172  1  0.25196607  0.41999656  0.94589901  1
  Se  Se173  1  0.24880604  0.74870660  0.45106059  1
  Se  Se174  1  0.24370444  0.75457711  0.95071683  1
  Se  Se175  1  0.58260567  0.08434345  0.45396764  1
  Se  Se176  1  0.58352188  0.08184264  0.94683960  1
  Se  Se177  1  0.57887242  0.41758475  0.45247265  1
  Se  Se178  1  0.59359516  0.41135202  0.93715376  1
  Se  Se179  1  0.59148893  0.74635726  0.43507031  1
  Se  Se180  1  0.58792727  0.74219077  0.93137634  1
  Se  Se181  1  0.91392756  0.08394361  0.44382909  1
  Se  Se182  1  0.92532074  0.07089642  0.93941763  1
  Se  Se183  1  0.92291352  0.41516705  0.43953455  1
  Se  Se184  1  0.91660190  0.41601189  0.94905981  1
  Se  Se185  1  0.91325113  0.75689037  0.45378990  1
  Se  Se186  1  0.91560138  0.75081904  0.94483114  1
  Se  Se187  1  0.25375433  0.24755560  0.30062915  1
  Se  Se188  1  0.24751249  0.25091568  0.79795776  1
  Se  Se189  1  0.24943781  0.58143613  0.30596007  1
  Se  Se190  1  0.27010908  0.61304422  0.81243424  1
  Se  Se191  1  0.24315580  0.91040974  0.31122367  1
  Se  Se192  1  0.24853633  0.91474381  0.80683552  1
  Se  Se193  1  0.58543251  0.24523004  0.31552293  1
  Se  Se194  1  0.57653371  0.24899336  0.81041184  1
  Se  Se195  1  0.57706695  0.57296927  0.31122421  1
  Se  Se196  1  0.58621795  0.58471610  0.79481346  1
  Se  Se197  1  0.57937469  0.91897629  0.30094708  1
  Se  Se198  1  0.58639894  0.91985302  0.79952551  1
  Se  Se199  1  0.91812461  0.25236199  0.30574216  1
  Se  Se200  1  0.90562151  0.24214379  0.80096054  1
  Se  Se201  1  0.91579580  0.58355865  0.30657456  1
  Se  Se202  1  0.92015372  0.58610724  0.80347586  1
  Se  Se203  1  0.91801324  0.91788301  0.30260133  1
  Se  Se204  1  0.91971383  0.91560599  0.80725827  1
  Se  Se205  1  0.08418097  0.08030437  0.30523576  1
  Se  Se206  1  0.08613137  0.07919693  0.79856040  1
  Se  Se207  1  0.08117058  0.41489801  0.29987717  1
  Se  Se208  1  0.08718619  0.42197833  0.81558950  1
  Se  Se209  1  0.08365621  0.75347043  0.31998010  1
  Se  Se210  1  0.08153276  0.75127266  0.80833700  1
  Se  Se211  1  0.41953555  0.08761118  0.31261200  1
  Se  Se212  1  0.42120215  0.09066819  0.80883774  1
  Se  Se213  1  0.41277757  0.40795646  0.30639816  1
  Se  Se214  1  0.41243799  0.41758697  0.80018068  1
  Se  Se215  1  0.41434080  0.74531050  0.30305396  1
  Se  Se216  1  0.41835698  0.75501387  0.79820007  1
  Se  Se217  1  0.74654930  0.08456647  0.30874816  1
  Se  Se218  1  0.75585831  0.08306191  0.79910087  1
  Se  Se219  1  0.76145324  0.42551080  0.30270625  1
  Se  Se220  1  0.75515158  0.41841910  0.80543320  1
  Se  Se221  1  0.75989393  0.76086506  0.30548972  1
  Se  Se222  1  0.75091221  0.74833223  0.80128145  1
  Se  Se223  1  0.23870194  0.08408149  0.18364201  1
  Se  Se224  1  0.24303084  0.08607884  0.68074248  1
  Se  Se225  1  0.25398223  0.41039378  0.19734536  1
  Se  Se226  1  0.23138700  0.43241660  0.69887621  1
  Se  Se227  1  0.24644808  0.74367685  0.20204853  1
  Se  Se228  1  0.25190155  0.75412795  0.70019092  1
  Se  Se229  1  0.58264595  0.08510029  0.20020988  1
  Se  Se230  1  0.58243895  0.08714050  0.70508608  1
  Se  Se231  1  0.57476868  0.42547823  0.19241382  1
  Se  Se232  1  0.57451926  0.42369850  0.68325767  1
  Se  Se233  1  0.57544624  0.75605386  0.18776315  1
  Se  Se234  1  0.58705139  0.74880386  0.69239944  1
  Se  Se235  1  0.92186348  0.08260364  0.20397396  1
  Se  Se236  1  0.92452880  0.08093140  0.69724226  1
  Se  Se237  1  0.92405707  0.41662482  0.19196278  1
  Se  Se238  1  0.91236291  0.42380925  0.68969477  1
  Se  Se239  1  0.90478478  0.75952000  0.19276602  1
  Se  Se240  1  0.92280375  0.74853596  0.69832537  1
  Se  Se241  1  0.08327710  0.24755453  0.19789137  1
  Se  Se242  1  0.08487317  0.24127924  0.68375853  1
  Se  Se243  1  0.09207739  0.57527740  0.18850764  1
  Se  Se244  1  0.09096937  0.57963053  0.71057463  1
  Se  Se245  1  0.08416224  0.90630189  0.20028755  1
  Se  Se246  1  0.08188962  0.91975774  0.69786555  1
  Se  Se247  1  0.41772441  0.25058731  0.20018597  1
  Se  Se248  1  0.40640309  0.25342821  0.69917927  1
  Se  Se249  1  0.41001864  0.58569308  0.20085240  1
  Se  Se250  1  0.41630686  0.58661871  0.69428276  1
  Se  Se251  1  0.41918716  0.91053488  0.18761476  1
  Se  Se252  1  0.42717660  0.91222451  0.68335297  1
  Se  Se253  1  0.76113507  0.23870801  0.18816928  1
  Se  Se254  1  0.76067966  0.24173293  0.69040615  1
  Se  Se255  1  0.75603129  0.58432628  0.18707235  1
  Se  Se256  1  0.75009278  0.58635585  0.69670276  1
  Se  Se257  1  0.73040265  0.93150700  0.20157888  1
  Se  Se258  1  0.75315123  0.91348149  0.69697764  1
