# generated using pymatgen
data_In86Cu29Se144
_symmetry_space_group_name_H-M   'P 1'
_cell_length_a   17.59649499
_cell_length_b   17.59451012
_cell_length_c   23.44758420
_cell_angle_alpha   90.01656071
_cell_angle_beta   89.98517747
_cell_angle_gamma   90.02490986
_symmetry_Int_Tables_number   1
_chemical_formula_structural   In86Cu29Se144
_chemical_formula_sum   'In86 Cu29 Se144'
_cell_volume   7259.41091342
_cell_formula_units_Z   1
loop_
 _symmetry_equiv_pos_site_id
 _symmetry_equiv_pos_as_xyz
  1  'x, y, z'
loop_
 _atom_site_type_symbol
 _atom_site_label
 _atom_site_symmetry_multiplicity
 _atom_site_fract_x
 _atom_site_fract_y
 _atom_site_fract_z
 _atom_site_occupancy
  In  In0  1  0.00630001  0.16222154  0.13061649  1
  In  In1  1  -0.00608862  0.17248925  0.61781818  1
  In  In2  1  -0.00446320  0.50392687  0.12194182  1
  In  In3  1  0.01523296  0.51375340  0.59916959  1
  In  In4  1  0.00204847  0.83080522  0.12705802  1
  In  In5  1  -0.00564417  0.82287805  0.61275580  1
  In  In6  1  0.33349118  0.18169472  0.12681821  1
  In  In7  1  0.31911836  0.15692305  0.62575354  1
  In  In8  1  0.33025201  0.50588021  0.13305336  1
  In  In9  1  0.32828917  0.50968175  0.62114632  1
  In  In10  1  0.32360598  0.82334098  0.12477408  1
  In  In11  1  0.33660601  0.83291072  0.61908487  1
  In  In12  1  0.66629006  0.16689883  0.13376773  1
  In  In13  1  0.67810026  0.16464070  0.62018921  1
  In  In14  1  0.66432027  0.49791850  0.12591167  1
  In  In15  1  0.67315811  0.49098083  0.62581487  1
  In  In16  1  0.67440579  0.83671055  0.12678858  1
  In  In17  1  0.66728905  0.83835320  0.61518833  1
  In  In18  1  0.15180470  0.00436910  0.37187154  1
  In  In19  1  0.17864058  -0.01454564  0.88194588  1
  In  In20  1  0.17175361  0.34805488  0.37004790  1
  In  In21  1  0.15765759  0.34065225  0.88726514  1
  In  In22  1  0.16112712  0.66732106  0.37578703  1
  In  In23  1  0.15671918  0.67267092  0.88692702  1
  In  In24  1  0.50226726  -0.02485255  0.36435127  1
  In  In25  1  0.48909267  0.00230777  0.87782786  1
  In  In26  1  0.48945966  0.33939117  0.36115292  1
  In  In27  1  0.50593556  0.33638247  0.88401644  1
  In  In28  1  0.49679402  0.68062229  0.36101724  1
  In  In29  1  0.49959320  0.66772921  0.89413158  1
  In  In30  1  0.83240796  -0.00326715  0.37369450  1
  In  In31  1  0.82726710  -0.00285374  0.86946725  1
  In  In32  1  0.84179191  0.33728513  0.37288853  1
  In  In33  1  0.83935853  0.33612003  0.87654847  1
  In  In34  1  0.85133965  0.65191847  0.39022489  1
  In  In35  1  0.84333151  0.65837425  0.88465127  1
  In  In36  1  -0.00911038  0.15754606  0.36796978  1
  In  In37  1  0.00095997  0.18035680  0.87577581  1
  In  In38  1  0.00327127  0.50402665  0.37597017  1
  In  In39  1  -0.01170640  0.51336441  0.89522585  1
  In  In40  1  -0.00412453  0.83029118  0.37836987  1
  In  In41  1  0.01120355  0.81896618  0.88827640  1
  In  In42  1  0.32472715  0.18042277  0.37324604  1
  In  In43  1  0.33463266  0.15164643  0.87708373  1
  In  In44  1  0.31761464  0.49126378  0.36056248  1
  In  In45  1  0.32291521  0.51060215  0.88816929  1
  In  In46  1  0.34148353  0.82260084  0.37273367  1
  In  In47  1  0.32981294  0.83798895  0.88102067  1
  In  In48  1  0.67903534  0.17544444  0.36553423  1
  In  In49  1  0.66913594  0.15973889  0.87348435  1
  In  In50  1  0.68124875  0.49765967  0.37053073  1
  In  In51  1  0.66591143  0.49818698  0.89195794  1
  In  In52  1  0.66382286  0.83616334  0.37415221  1
  In  In53  1  0.67476074  0.82462477  0.88769897  1
  In  In54  1  0.15504763  -0.01270273  0.12018929  1
  In  In55  1  0.18125661  -0.00580114  0.62799795  1
  In  In56  1  0.16349900  0.33717943  0.12669157  1
  In  In57  1  0.15634135  0.33392932  0.61533993  1
  In  In58  1  0.16199617  0.67010306  0.12444225  1
  In  In59  1  0.15140236  0.65881954  0.60578576  1
  In  In60  1  0.51396516  -0.00544193  0.13193966  1
  In  In61  1  0.49630886  -0.01384790  0.62304022  1
  In  In62  1  0.48064778  0.36495550  0.15914967  1
  In  In63  1  0.51011537  0.34088185  0.62333729  1
  In  In64  1  0.48936532  0.65549391  0.12944673  1
  In  In65  1  0.48556331  0.67158173  0.62165608  1
  In  In66  1  0.84069479  -0.01047325  0.13568726  1
  In  In67  1  0.83474647  0.00384182  0.61559849  1
  In  In68  1  0.82353477  0.34394761  0.13421794  1
  In  In69  1  0.85543938  0.34493917  0.60028504  1
  In  In70  1  0.85203763  0.67386741  0.11422516  1
  In  In71  1  0.84969541  0.67996303  0.60514725  1
  In  In72  1  0.83317989  0.16866655  -0.00507562  1
  In  In73  1  0.49608061  0.17011156  0.00729287  1
  In  In74  1  0.50158579  0.16339455  0.48115410  1
  In  In75  1  0.49876509  0.50882665  0.49431413  1
  In  In76  1  0.67550865  0.32548429  0.74846272  1
  In  In77  1  0.67108206  0.66780395  0.74905575  1
  In  In78  1  0.67444062  0.66766943  0.24937508  1
  In  In79  1  0.66599143  -0.00364613  0.75299343  1
  In  In80  1  0.16233215  0.16914352  0.50014423  1
  In  In81  1  0.32294590  0.67564372  0.75435615  1
  In  In82  1  0.00054812  0.33582528  0.74410562  1
  In  In83  1  0.00401375  -0.00140162  0.74555728  1
  In  In84  1  0.32793520  0.00427652  0.24741011  1
  In  In85  1  0.33045086  0.33036324  0.74825978  1
  Cu  Cu86  1  0.49389427  0.15887618  0.74853731  1
  Cu  Cu87  1  0.33710329  -0.00363113  0.49660849  1
  Cu  Cu88  1  0.33520481  0.66192918  0.00855523  1
  Cu  Cu89  1  -0.00278313  -0.00512947  0.49561346  1
  Cu  Cu90  1  0.16343280  0.17603807  0.25118995  1
  Cu  Cu91  1  0.32902487  0.66837808  0.49313974  1
  Cu  Cu92  1  -0.00066630  -0.00251310  0.00645160  1
  Cu  Cu93  1  0.66925320  -0.00213979  0.49516730  1
  Cu  Cu94  1  0.65908043  0.33737899  0.01264471  1
  Cu  Cu95  1  0.84208011  0.50543018  0.75178604  1
  Cu  Cu96  1  0.49484067  0.83697989  0.74914093  1
  Cu  Cu97  1  0.15234193  0.50443730  0.74403799  1
  Cu  Cu98  1  0.50228519  0.16471999  0.25133206  1
  Cu  Cu99  1  0.83823908  0.16509460  0.25009616  1
  Cu  Cu100  1  -0.00159361  0.33298126  0.00677985  1
  Cu  Cu101  1  0.49644291  0.50516708  0.76470351  1
  Cu  Cu102  1  0.84536525  0.82692805  0.74483168  1
  Cu  Cu103  1  0.33135169  0.34067328  0.01222118  1
  Cu  Cu104  1  0.16177985  0.83001042  0.24861459  1
  Cu  Cu105  1  0.17169462  0.15999298  0.75457707  1
  Cu  Cu106  1  0.66960414  0.32889238  0.49165177  1
  Cu  Cu107  1  0.67201646  -0.00372883  0.00535433  1
  Cu  Cu108  1  0.15658914  0.50592415  0.24630520  1
  Cu  Cu109  1  0.16467827  0.82383001  0.75577344  1
  Cu  Cu110  1  0.33223012  -0.00283036  0.00239580  1
  Cu  Cu111  1  0.83775341  0.83001526  0.25373310  1
  Cu  Cu112  1  0.84344706  0.50253063  0.25323719  1
  Cu  Cu113  1  0.66095438  0.67182783  0.49229573  1
  Cu  Cu114  1  0.66648723  0.66828151  0.01005450  1
  Se  Se115  1  0.08268553  0.08465507  0.05470007  1
  Se  Se116  1  0.07914908  0.06986102  0.56140815  1
  Se  Se117  1  0.08224558  0.41794043  0.05593490  1
  Se  Se118  1  0.07874936  0.40610721  0.54223462  1
  Se  Se119  1  0.09204773  0.76252015  0.05537535  1
  Se  Se120  1  0.08627871  0.75810680  0.54251485  1
  Se  Se121  1  0.41087608  0.07434198  0.06671974  1
  Se  Se122  1  0.41444579  0.08182385  0.55461258  1
  Se  Se123  1  0.41745824  0.41718346  0.06754632  1
  Se  Se124  1  0.41375963  0.41530570  0.55900435  1
  Se  Se125  1  0.41756665  0.74715536  0.05969542  1
  Se  Se126  1  0.41546547  0.75059002  0.54641277  1
  Se  Se127  1  0.75067131  0.08033583  0.06232545  1
  Se  Se128  1  0.75094526  0.08465466  0.54650268  1
  Se  Se129  1  0.75243175  0.41987943  0.05525649  1
  Se  Se130  1  0.74494970  0.41570883  0.54848434  1
  Se  Se131  1  0.75342387  0.75387809  0.05624638  1
  Se  Se132  1  0.74563568  0.75260386  0.54788589  1
  Se  Se133  1  0.24616717  0.25187044  0.05585452  1
  Se  Se134  1  0.26141284  0.25758660  0.55595538  1
  Se  Se135  1  0.24814326  0.58145709  0.05989885  1
  Se  Se136  1  0.24985457  0.58064044  0.54596318  1
  Se  Se137  1  0.24905435  0.91307718  0.05529833  1
  Se  Se138  1  0.25181328  0.91598713  0.55100851  1
  Se  Se139  1  0.57926392  0.25745135  0.07132244  1
  Se  Se140  1  0.58734739  0.25132032  0.55159155  1
  Se  Se141  1  0.58202353  0.58330912  0.05970985  1
  Se  Se142  1  0.59030372  0.59219420  0.56286820  1
  Se  Se143  1  0.58558760  0.91515343  0.05611071  1
  Se  Se144  1  0.58084556  0.91885067  0.54839848  1
  Se  Se145  1  0.91479814  0.25238410  0.06438635  1
  Se  Se146  1  0.92621112  0.24562113  0.53958791  1
  Se  Se147  1  0.92339123  0.58398538  0.04546326  1
  Se  Se148  1  0.89462246  0.56289025  0.54888831  1
  Se  Se149  1  0.91520290  0.91535599  0.05830256  1
  Se  Se150  1  0.91184715  0.91473278  0.55059991  1
  Se  Se151  1  0.08249833  0.24929444  0.42959375  1
  Se  Se152  1  0.08029533  0.24844807  0.95252606  1
  Se  Se153  1  0.09076036  0.57831321  0.44667781  1
  Se  Se154  1  0.09975369  0.56840505  0.95130945  1
  Se  Se155  1  0.08508927  0.91660381  0.44423156  1
  Se  Se156  1  0.08444399  0.91733085  0.95001689  1
  Se  Se157  1  0.40836476  0.26679647  0.44246361  1
  Se  Se158  1  0.40332123  0.25810414  0.94461185  1
  Se  Se159  1  0.40997733  0.59114659  0.43049460  1
  Se  Se160  1  0.41912621  0.57636218  0.95570727  1
  Se  Se161  1  0.41836724  0.91307525  0.44210682  1
  Se  Se162  1  0.41848170  0.91649617  0.94957596  1
  Se  Se163  1  0.75727863  0.24952383  0.44084697  1
  Se  Se164  1  0.73288517  0.26160971  0.94283472  1
  Se  Se165  1  0.74389131  0.58181534  0.44741174  1
  Se  Se166  1  0.74910593  0.58672005  0.95256612  1
  Se  Se167  1  0.75134803  0.91196569  0.44384042  1
  Se  Se168  1  0.75581388  0.92096593  0.94637763  1
  Se  Se169  1  0.25634635  0.07781525  0.43959662  1
  Se  Se170  1  0.24961194  0.08151714  0.94962081  1
  Se  Se171  1  0.25863734  0.41651454  0.44329470  1
  Se  Se172  1  0.24827468  0.41734270  0.95274942  1
  Se  Se173  1  0.24800489  0.75468408  0.44138030  1
  Se  Se174  1  0.25877755  0.74350634  0.94679420  1
  Se  Se175  1  0.59276520  0.07110606  0.42743759  1
  Se  Se176  1  0.59003207  0.07749642  0.94702683  1
  Se  Se177  1  0.58531246  0.41044623  0.43622344  1
  Se  Se178  1  0.57518183  0.41983832  0.95733397  1
  Se  Se179  1  0.57590909  0.75052951  0.43912727  1
  Se  Se180  1  0.58387025  0.75452125  0.95676086  1
  Se  Se181  1  0.91545799  0.08066035  0.44412075  1
  Se  Se182  1  0.92552583  0.07471411  0.93795501  1
  Se  Se183  1  0.90402253  0.43468485  0.44150794  1
  Se  Se184  1  0.91071072  0.41225958  0.95258772  1
  Se  Se185  1  0.92280351  0.74854618  0.45332862  1
  Se  Se186  1  0.90262150  0.76237234  0.94730828  1
  Se  Se187  1  0.25080594  0.25899681  0.29985373  1
  Se  Se188  1  0.24297442  0.24784087  0.81538592  1
  Se  Se189  1  0.24183480  0.58860683  0.30070764  1
  Se  Se190  1  0.23668867  0.57642083  0.80793299  1
  Se  Se191  1  0.24132696  0.91355268  0.30926458  1
  Se  Se192  1  0.25116877  0.90957566  0.80329331  1
  Se  Se193  1  0.58166447  0.25201679  0.30412514  1
  Se  Se194  1  0.57219430  0.24044197  0.80800512  1
  Se  Se195  1  0.58336887  0.57722662  0.30846983  1
  Se  Se196  1  0.58256448  0.58352639  0.81753034  1
  Se  Se197  1  0.58642404  0.90339287  0.29415317  1
  Se  Se198  1  0.57867479  0.90672640  0.81432048  1
  Se  Se199  1  0.91968316  0.25244154  0.30140498  1
  Se  Se200  1  0.90577334  0.24470893  0.80225036  1
  Se  Se201  1  0.92248448  0.59013558  0.30518947  1
  Se  Se202  1  0.92354026  0.58307351  0.81012626  1
  Se  Se203  1  0.92036632  0.91689397  0.30591509  1
  Se  Se204  1  0.91861153  0.90850336  0.80839008  1
  Se  Se205  1  0.08124600  0.08471871  0.29690076  1
  Se  Se206  1  0.08806247  0.08492042  0.81479549  1
  Se  Se207  1  0.07908733  0.41924183  0.30217053  1
  Se  Se208  1  0.08240367  0.42356748  0.81030103  1
  Se  Se209  1  0.07864018  0.75051591  0.30604117  1
  Se  Se210  1  0.08023029  0.74318977  0.80782554  1
  Se  Se211  1  0.41978208  0.08909254  0.31318886  1
  Se  Se212  1  0.41208739  0.07624008  0.80161722  1
  Se  Se213  1  0.42246513  0.43409384  0.29406263  1
  Se  Se214  1  0.41435007  0.41956798  0.81611635  1
  Se  Se215  1  0.41075621  0.75426699  0.29109520  1
  Se  Se216  1  0.42705946  0.75120628  0.81278147  1
  Se  Se217  1  0.75304947  0.08037001  0.30130756  1
  Se  Se218  1  0.76167643  0.09738693  0.79821610  1
  Se  Se219  1  0.75705148  0.41503928  0.29919506  1
  Se  Se220  1  0.75471558  0.42829320  0.80944339  1
  Se  Se221  1  0.76384700  0.74708078  0.31700847  1
  Se  Se222  1  0.76106444  0.75594306  0.80878865  1
  Se  Se223  1  0.23834055  0.09265477  0.18713070  1
  Se  Se224  1  0.25413794  0.07595812  0.70346117  1
  Se  Se225  1  0.24317121  0.41967535  0.19806889  1
  Se  Se226  1  0.23743296  0.42323433  0.68941320  1
  Se  Se227  1  0.24698825  0.74553947  0.19919375  1
  Se  Se228  1  0.23715455  0.75106900  0.68311164  1
  Se  Se229  1  0.58735037  0.08047973  0.20252476  1
  Se  Se230  1  0.57902860  0.08653621  0.68740842  1
  Se  Se231  1  0.60747385  0.40724924  0.20184719  1
  Se  Se232  1  0.57692221  0.42732790  0.70310944  1
  Se  Se233  1  0.58046929  0.75098374  0.18902990  1
  Se  Se234  1  0.57576488  0.75787041  0.68955769  1
  Se  Se235  1  0.92116596  0.08078825  0.19803779  1
  Se  Se236  1  0.91086411  0.09058478  0.69077330  1
  Se  Se237  1  0.92172189  0.41779076  0.19588829  1
  Se  Se238  1  0.91417618  0.42723431  0.68533100  1
  Se  Se239  1  0.91780510  0.74826537  0.19645264  1
  Se  Se240  1  0.92224363  0.74252930  0.68961198  1
  Se  Se241  1  0.07878165  0.25651585  0.19688082  1
  Se  Se242  1  0.09490140  0.23688382  0.69125706  1
  Se  Se243  1  0.07501247  0.58929855  0.19255748  1
  Se  Se244  1  0.07586292  0.58522986  0.68487029  1
  Se  Se245  1  0.07923736  0.91783162  0.19927700  1
  Se  Se246  1  0.09014356  0.90213003  0.68955759  1
  Se  Se247  1  0.41231471  0.24827445  0.20466219  1
  Se  Se248  1  0.42452738  0.24389445  0.68579775  1
  Se  Se249  1  0.42468055  0.56967018  0.20509774  1
  Se  Se250  1  0.41931869  0.57857780  0.69836492  1
  Se  Se251  1  0.41609240  0.91172984  0.19112945  1
  Se  Se252  1  0.40989749  0.91560946  0.69531960  1
  Se  Se253  1  0.75196967  0.24832235  0.19972808  1
  Se  Se254  1  0.76619930  0.25561232  0.67876702  1
  Se  Se255  1  0.76561649  0.58157236  0.18764202  1
  Se  Se256  1  0.76025918  0.58026559  0.68871576  1
  Se  Se257  1  0.75104324  0.91317424  0.20347869  1
  Se  Se258  1  0.75996417  0.90910964  0.69071189  1
