# generated using pymatgen
data_In86Cu29Se144
_symmetry_space_group_name_H-M   'P 1'
_cell_length_a   17.70329056
_cell_length_b   17.71397045
_cell_length_c   23.56851585
_cell_angle_alpha   90.07701899
_cell_angle_beta   90.02363974
_cell_angle_gamma   90.04826262
_symmetry_Int_Tables_number   1
_chemical_formula_structural   In86Cu29Se144
_chemical_formula_sum   'In86 Cu29 Se144'
_cell_volume   7390.97213192
_cell_formula_units_Z   1
loop_
 _symmetry_equiv_pos_site_id
 _symmetry_equiv_pos_as_xyz
  1  'x, y, z'
loop_
 _atom_site_type_symbol
 _atom_site_label
 _atom_site_symmetry_multiplicity
 _atom_site_fract_x
 _atom_site_fract_y
 _atom_site_fract_z
 _atom_site_occupancy
  In  In0  1  -0.00780064  0.15675201  0.12698359  1
  In  In1  1  0.01001071  0.16528560  0.61309340  1
  In  In2  1  0.00990552  0.51833824  0.12482730  1
  In  In3  1  0.00499827  0.49681045  0.62988948  1
  In  In4  1  0.00005935  0.83372805  0.12895958  1
  In  In5  1  -0.01385890  0.80466639  0.57838096  1
  In  In6  1  0.31087437  0.07488430  0.10919523  1
  In  In7  1  0.33254516  0.15762781  0.62478478  1
  In  In8  1  0.33193545  0.50420113  0.12877105  1
  In  In9  1  0.24346793  0.51813442  0.63633656  1
  In  In10  1  0.33477873  0.83659331  0.12608933  1
  In  In11  1  0.33260216  0.83610921  0.62599149  1
  In  In12  1  0.66043532  0.16201911  0.12011195  1
  In  In13  1  0.65526858  0.15753027  0.61910385  1
  In  In14  1  0.66819899  0.49177950  0.11980999  1
  In  In15  1  0.67852421  0.50599557  0.62815078  1
  In  In16  1  0.68544743  0.83332292  0.12521335  1
  In  In17  1  0.67376751  0.82214094  0.63526027  1
  In  In18  1  0.16225102  0.00233241  0.37857296  1
  In  In19  1  0.16601692  -0.01441445  0.87477045  1
  In  In20  1  0.16182460  0.33453419  0.38746308  1
  In  In21  1  0.16750977  0.33697343  0.85729000  1
  In  In22  1  0.15419846  0.67370575  0.38387661  1
  In  In23  1  0.16939041  0.68414097  0.87414228  1
  In  In24  1  0.50142816  0.00493953  0.36694546  1
  In  In25  1  0.50575380  0.00033910  0.87662359  1
  In  In26  1  0.49502044  0.33283353  0.37782349  1
  In  In27  1  0.48714214  0.33136523  0.86969993  1
  In  In28  1  0.49734314  0.68135644  0.37194446  1
  In  In29  1  0.49588310  0.65666593  0.87424772  1
  In  In30  1  0.82840402  0.00200337  0.38045835  1
  In  In31  1  0.83101324  -0.00198815  0.87111694  1
  In  In32  1  0.83350073  0.33011405  0.38601334  1
  In  In33  1  0.84987307  0.33835983  0.86438597  1
  In  In34  1  0.85832570  0.66812749  0.39624398  1
  In  In35  1  0.83929829  0.66917700  0.87329106  1
  In  In36  1  0.00347966  0.15359694  0.39415280  1
  In  In37  1  -0.00475765  0.17006471  0.86753150  1
  In  In38  1  -0.00759493  0.50714747  0.38486738  1
  In  In39  1  -0.00071786  0.49749298  0.86688439  1
  In  In40  1  0.00395692  0.84325868  0.38908896  1
  In  In41  1  0.01078635  0.82702430  0.88147875  1
  In  In42  1  0.34023897  0.16478817  0.37834340  1
  In  In43  1  0.33813348  0.16899767  0.87084220  1
  In  In44  1  0.31293257  0.50987882  0.38767290  1
  In  In45  1  0.33614915  0.49752234  0.87159578  1
  In  In46  1  0.30826985  0.82372585  0.36251933  1
  In  In47  1  0.31735623  0.83675054  0.87784166  1
  In  In48  1  0.67497996  0.15426819  0.38677781  1
  In  In49  1  0.67179655  0.14990404  0.86922757  1
  In  In50  1  0.68056233  0.51256151  0.38024222  1
  In  In51  1  0.66673020  0.51886523  0.86786745  1
  In  In52  1  0.66958046  0.84668696  0.37529263  1
  In  In53  1  0.68123008  0.83992493  0.86670523  1
  In  In54  1  0.19109840  -0.04432507  0.18519965  1
  In  In55  1  0.16869467  0.00139682  0.61678995  1
  In  In56  1  0.17607651  0.33438131  0.12090476  1
  In  In57  1  0.17005917  0.32373494  0.63002060  1
  In  In58  1  0.15927861  0.68033214  0.13746592  1
  In  In59  1  0.13664548  0.63532497  0.55963598  1
  In  In60  1  0.49844364  0.00882859  0.12844758  1
  In  In61  1  0.48999365  0.00273936  0.63149647  1
  In  In62  1  0.50736998  0.32380050  0.11967298  1
  In  In63  1  0.48999117  0.31788440  0.62494024  1
  In  In64  1  0.48944632  0.66054005  0.12849453  1
  In  In65  1  0.49408645  0.67720237  0.63189847  1
  In  In66  1  0.85486110  -0.01607514  0.14335120  1
  In  In67  1  0.83269521  -0.01824928  0.61104672  1
  In  In68  1  0.82799772  0.33628520  0.12023873  1
  In  In69  1  0.84628994  0.34682194  0.61993268  1
  In  In70  1  0.84273768  0.67475345  0.11831963  1
  In  In71  1  0.83947164  0.66340959  0.62492645  1
  In  In72  1  0.67011689  0.67179492  0.25097723  1
  In  In73  1  0.66707868  0.33112006  0.73934486  1
  In  In74  1  0.49470212  0.84171277  0.49811276  1
  In  In75  1  0.33881957  0.33066479  0.24573859  1
  In  In76  1  -0.00353184  0.33569750  0.24974327  1
  In  In77  1  0.50111752  0.83563652  -0.00016568  1
  In  In78  1  0.16152382  0.16166315  0.00090582  1
  In  In79  1  0.83085637  0.16250846  -0.00304112  1
  In  In80  1  0.50178894  0.49555323  -0.00902321  1
  In  In81  1  0.00183291  -0.00502704  0.73342476  1
  In  In82  1  0.66490019  0.33283992  0.24422155  1
  In  In83  1  0.16780614  0.50431154  -0.00479313  1
  In  In84  1  0.32917401  0.66831212  0.75057025  1
  In  In85  1  0.49405906  0.49426859  0.51098416  1
  Cu  Cu86  1  0.00122708  0.33281049  0.50436075  1
  Cu  Cu87  1  0.83487966  0.16595009  0.74458836  1
  Cu  Cu88  1  0.50106837  0.16805517  0.24690306  1
  Cu  Cu89  1  0.66925197  0.66806848  -0.00518608  1
  Cu  Cu90  1  0.83709013  0.50931614  0.74701135  1
  Cu  Cu91  1  0.50324508  0.83823182  0.75280786  1
  Cu  Cu92  1  0.50117526  0.15712120  0.74858837  1
  Cu  Cu93  1  0.82898761  0.16197625  0.26104011  1
  Cu  Cu94  1  0.15881346  0.17138358  0.25904182  1
  Cu  Cu95  1  0.49860622  0.83498643  0.25098928  1
  Cu  Cu96  1  -0.00220903  0.33915532  -0.00954615  1
  Cu  Cu97  1  0.67728879  0.33624743  -0.00619835  1
  Cu  Cu98  1  0.16232256  0.51259126  0.25903688  1
  Cu  Cu99  1  0.66128165  0.33831339  0.50896412  1
  Cu  Cu100  1  0.34065441  0.00457068  0.49651233  1
  Cu  Cu101  1  0.48801565  0.50517207  0.25397743  1
  Cu  Cu102  1  0.33061974  0.32626927  0.50631771  1
  Cu  Cu103  1  -0.00424861  0.67054871  0.00398853  1
  Cu  Cu104  1  0.83672635  0.82756942  0.25650688  1
  Cu  Cu105  1  0.49256875  0.50174973  0.74837503  1
  Cu  Cu106  1  0.16686177  0.15694471  0.74279887  1
  Cu  Cu107  1  0.66169097  -0.00574583  0.50095319  1
  Cu  Cu108  1  0.67489557  -0.00227737  -0.00395410  1
  Cu  Cu109  1  0.33523894  0.32234230  -0.00201052  1
  Cu  Cu110  1  0.00151360  -0.00847238  0.00715046  1
  Cu  Cu111  1  0.16469379  0.83317956  0.74784215  1
  Cu  Cu112  1  0.67383103  0.67032699  0.50522178  1
  Cu  Cu113  1  0.84790601  0.82929365  0.74076017  1
  Cu  Cu114  1  0.83595762  0.50737949  0.25487446  1
  Se  Se115  1  0.08012277  0.07286319  0.06522171  1
  Se  Se116  1  0.07724142  0.06950218  0.54548203  1
  Se  Se117  1  0.07783784  0.41119569  0.05669557  1
  Se  Se118  1  0.08512550  0.40781704  0.56284897  1
  Se  Se119  1  0.08047328  0.74913694  0.05954018  1
  Se  Se120  1  0.12246566  0.77753677  0.53993862  1
  Se  Se121  1  0.43344689  0.09513300  0.05449472  1
  Se  Se122  1  0.42269041  0.08299165  0.55432574  1
  Se  Se123  1  0.41018690  0.41091626  0.05751541  1
  Se  Se124  1  0.40194257  0.41046632  0.56842805  1
  Se  Se125  1  0.41058994  0.74251082  0.05648545  1
  Se  Se126  1  0.41070678  0.74459704  0.55416967  1
  Se  Se127  1  0.75460707  0.07109621  0.06300812  1
  Se  Se128  1  0.74464887  0.07615952  0.55529627  1
  Se  Se129  1  0.75474584  0.42027235  0.04861067  1
  Se  Se130  1  0.74879117  0.42069739  0.55649076  1
  Se  Se131  1  0.75112600  0.74810049  0.05092757  1
  Se  Se132  1  0.75468274  0.75275344  0.55966646  1
  Se  Se133  1  0.25942039  0.24449546  0.06065117  1
  Se  Se134  1  0.24813639  0.24050557  0.55773637  1
  Se  Se135  1  0.24616490  0.58933514  0.06483906  1
  Se  Se136  1  0.27183599  0.58207251  0.54206176  1
  Se  Se137  1  0.24866756  0.94310545  0.07866858  1
  Se  Se138  1  0.26287736  0.92297638  0.55360227  1
  Se  Se139  1  0.59602106  0.25459190  0.04890799  1
  Se  Se140  1  0.57859980  0.24942886  0.55385487  1
  Se  Se141  1  0.58728804  0.59005119  0.05566259  1
  Se  Se142  1  0.58770663  0.59407195  0.56229093  1
  Se  Se143  1  0.59544106  0.92079255  0.05975478  1
  Se  Se144  1  0.58687918  0.91590699  0.56589925  1
  Se  Se145  1  0.92515223  0.25612004  0.05441942  1
  Se  Se146  1  0.91561613  0.25023045  0.55492279  1
  Se  Se147  1  0.91757371  0.57992549  0.05367880  1
  Se  Se148  1  0.91963616  0.57407901  0.56166584  1
  Se  Se149  1  0.91309003  0.91284134  0.05817179  1
  Se  Se150  1  0.94342461  0.93926689  0.54511215  1
  Se  Se151  1  0.08441588  0.24735301  0.45369560  1
  Se  Se152  1  0.07977950  0.25727042  0.93601872  1
  Se  Se153  1  0.08792743  0.57554478  0.45134084  1
  Se  Se154  1  0.07473128  0.59323826  0.93933151  1
  Se  Se155  1  0.06156758  0.95222530  0.45405565  1
  Se  Se156  1  0.08699705  0.91461444  0.95060938  1
  Se  Se157  1  0.41687847  0.25266340  0.44768787  1
  Se  Se158  1  0.42156266  0.24587886  0.94392101  1
  Se  Se159  1  0.42294987  0.58794137  0.43991744  1
  Se  Se160  1  0.40174135  0.58976494  0.94689009  1
  Se  Se161  1  0.40630612  0.91913972  0.42999974  1
  Se  Se162  1  0.40842077  0.92379802  0.94368569  1
  Se  Se163  1  0.73887203  0.25682993  0.44930104  1
  Se  Se164  1  0.75187960  0.25536881  0.93042260  1
  Se  Se165  1  0.75844225  0.58791496  0.45294357  1
  Se  Se166  1  0.75187312  0.58597684  0.94096950  1
  Se  Se167  1  0.75037095  0.91412426  0.45103679  1
  Se  Se168  1  0.75767967  0.91502340  0.94369916  1
  Se  Se169  1  0.25334966  0.08395927  0.44299418  1
  Se  Se170  1  0.25199340  0.07840700  0.93734631  1
  Se  Se171  1  0.24939936  0.41258295  0.45404367  1
  Se  Se172  1  0.25529711  0.40372518  0.94003605  1
  Se  Se173  1  0.23826304  0.76412336  0.44796162  1
  Se  Se174  1  0.24992587  0.75038603  0.94938130  1
  Se  Se175  1  0.57866570  0.07558295  0.44599109  1
  Se  Se176  1  0.59174028  0.08156228  0.94535115  1
  Se  Se177  1  0.59024631  0.41848517  0.44109767  1
  Se  Se178  1  0.59423914  0.40923968  0.93054095  1
  Se  Se179  1  0.59273238  0.74728928  0.44428834  1
  Se  Se180  1  0.58785520  0.74598577  0.93565834  1
  Se  Se181  1  0.88181725  0.11134775  0.44311839  1
  Se  Se182  1  0.92963332  0.07418811  0.94167533  1
  Se  Se183  1  0.91768199  0.41465116  0.44973919  1
  Se  Se184  1  0.91537756  0.42219908  0.94012313  1
  Se  Se185  1  0.93364225  0.75516508  0.46385260  1
  Se  Se186  1  0.91700092  0.75203348  0.94546623  1
  Se  Se187  1  0.24321294  0.25382170  0.31200861  1
  Se  Se188  1  0.24676196  0.23895443  0.80143669  1
  Se  Se189  1  0.24303993  0.59287669  0.31476499  1
  Se  Se190  1  0.23882012  0.57765052  0.81186932  1
  Se  Se191  1  0.24313700  0.92808243  0.30220315  1
  Se  Se192  1  0.24852322  0.91549230  0.80014716  1
  Se  Se193  1  0.57890690  0.24772034  0.30873070  1
  Se  Se194  1  0.58187535  0.24331750  0.80583927  1
  Se  Se195  1  0.57899966  0.57786754  0.30987026  1
  Se  Se196  1  0.57600635  0.58679820  0.79810137  1
  Se  Se197  1  0.58390393  0.91551679  0.30310334  1
  Se  Se198  1  0.58751299  0.91942358  0.80649198  1
  Se  Se199  1  0.91164482  0.24756217  0.31270371  1
  Se  Se200  1  0.91990694  0.24921102  0.79436611  1
  Se  Se201  1  0.91463021  0.58755102  0.31255333  1
  Se  Se202  1  0.92156760  0.58926456  0.80229414  1
  Se  Se203  1  0.90947108  0.91137630  0.31789964  1
  Se  Se204  1  0.92092820  0.91114203  0.80621467  1
  Se  Se205  1  0.07759659  0.08957078  0.31216396  1
  Se  Se206  1  0.08544848  0.08085861  0.80637079  1
  Se  Se207  1  0.08520725  0.42272540  0.31284021  1
  Se  Se208  1  0.07878309  0.41714830  0.79730163  1
  Se  Se209  1  0.07966037  0.76245932  0.31683521  1
  Se  Se210  1  0.08118585  0.75152650  0.80202540  1
  Se  Se211  1  0.41571446  0.08912567  0.30197292  1
  Se  Se212  1  0.42010708  0.07900933  0.80773123  1
  Se  Se213  1  0.41120127  0.42637185  0.31494077  1
  Se  Se214  1  0.41222214  0.41574411  0.79984035  1
  Se  Se215  1  0.41278155  0.75403119  0.30206041  1
  Se  Se216  1  0.42025732  0.75910158  0.81315960  1
  Se  Se217  1  0.74174498  0.07875370  0.30724940  1
  Se  Se218  1  0.75725703  0.07945657  0.79744820  1
  Se  Se219  1  0.75563177  0.42100020  0.30792875  1
  Se  Se220  1  0.75238383  0.42484557  0.80299085  1
  Se  Se221  1  0.75908060  0.74826694  0.31906331  1
  Se  Se222  1  0.76298549  0.75413010  0.80131633  1
  Se  Se223  1  0.24807358  0.09014394  0.20666454  1
  Se  Se224  1  0.24992402  0.07295811  0.69280110  1
  Se  Se225  1  0.23712554  0.42769009  0.19846457  1
  Se  Se226  1  0.25897743  0.40180489  0.69716528  1
  Se  Se227  1  0.25195932  0.76067292  0.19650176  1
  Se  Se228  1  0.24195137  0.75094266  0.68720526  1
  Se  Se229  1  0.58830497  0.08543531  0.19638335  1
  Se  Se230  1  0.58638488  0.07732187  0.69598346  1
  Se  Se231  1  0.56820591  0.42815774  0.19222083  1
  Se  Se232  1  0.57397751  0.42423228  0.68628253  1
  Se  Se233  1  0.57809569  0.75654581  0.18793900  1
  Se  Se234  1  0.58126163  0.74910285  0.70205732  1
  Se  Se235  1  0.91826759  0.08755993  0.20601759  1
  Se  Se236  1  0.90895878  0.08660546  0.67987822  1
  Se  Se237  1  0.90915287  0.42736473  0.18935648  1
  Se  Se238  1  0.91774758  0.41933319  0.69941236  1
  Se  Se239  1  0.91445986  0.74801699  0.19629212  1
  Se  Se240  1  0.92968100  0.76076492  0.67584605  1
  Se  Se241  1  0.09021385  0.24810735  0.18976836  1
  Se  Se242  1  0.08039343  0.23855831  0.69306763  1
  Se  Se243  1  0.07855235  0.59126486  0.20362973  1
  Se  Se244  1  0.11479599  0.58893423  0.66663873  1
  Se  Se245  1  0.04964779  0.93741709  0.19854763  1
  Se  Se246  1  0.08908060  0.90308491  0.67907654  1
  Se  Se247  1  0.42028611  0.24069539  0.18375863  1
  Se  Se248  1  0.41472535  0.23823657  0.69771821  1
  Se  Se249  1  0.40653450  0.58739810  0.20088487  1
  Se  Se250  1  0.41146902  0.57727561  0.68669013  1
  Se  Se251  1  0.42161028  0.91757058  0.19297695  1
  Se  Se252  1  0.41530303  0.91259367  0.69832981  1
  Se  Se253  1  0.76063561  0.23994224  0.19136654  1
  Se  Se254  1  0.75775308  0.24398675  0.68112162  1
  Se  Se255  1  0.75334999  0.57746084  0.18946744  1
  Se  Se256  1  0.75087143  0.59220143  0.69857998  1
  Se  Se257  1  0.75364081  0.91113815  0.20316458  1
  Se  Se258  1  0.76042406  0.91408607  0.69337199  1
