# generated using pymatgen
data_In86Cu29Se144
_symmetry_space_group_name_H-M   'P 1'
_cell_length_a   17.58512242
_cell_length_b   17.58443267
_cell_length_c   23.44545398
_cell_angle_alpha   89.97984058
_cell_angle_beta   90.00048567
_cell_angle_gamma   89.99259776
_symmetry_Int_Tables_number   1
_chemical_formula_structural   In86Cu29Se144
_chemical_formula_sum   'In86 Cu29 Se144'
_cell_volume   7249.90595789
_cell_formula_units_Z   1
loop_
 _symmetry_equiv_pos_site_id
 _symmetry_equiv_pos_as_xyz
  1  'x, y, z'
loop_
 _atom_site_type_symbol
 _atom_site_label
 _atom_site_symmetry_multiplicity
 _atom_site_fract_x
 _atom_site_fract_y
 _atom_site_fract_z
 _atom_site_occupancy
  In  In0  1  -0.01255259  0.15333529  0.11331702  1
  In  In1  1  0.03467758  0.17624724  0.62340099  1
  In  In2  1  0.00762916  0.49704647  0.12963464  1
  In  In3  1  -0.00937328  0.50030864  0.62109583  1
  In  In4  1  0.00168081  0.83602614  0.12911828  1
  In  In5  1  0.00189888  0.82278949  0.62115165  1
  In  In6  1  0.32709283  0.17250617  0.12972596  1
  In  In7  1  0.31198601  0.15841124  0.61416027  1
  In  In8  1  0.32675586  0.48244781  0.12824878  1
  In  In9  1  0.33185838  0.50127156  0.61531667  1
  In  In10  1  0.32566614  0.84827509  0.13488121  1
  In  In11  1  0.33820879  0.84035251  0.61414274  1
  In  In12  1  0.67320766  0.16047900  0.12908956  1
  In  In13  1  0.66845065  0.18331051  0.62555347  1
  In  In14  1  0.66040724  0.50453619  0.12893100  1
  In  In15  1  0.67245991  0.49075464  0.62978679  1
  In  In16  1  0.66928961  0.83439317  0.12954525  1
  In  In17  1  0.64917447  0.83290377  0.62475613  1
  In  In18  1  0.17314002  0.00099845  0.36781770  1
  In  In19  1  0.16820945  -0.00022817  0.87978902  1
  In  In20  1  0.18450192  0.31566086  0.39535178  1
  In  In21  1  0.14884311  0.32228415  0.85964109  1
  In  In22  1  0.16098720  0.67318886  0.37796172  1
  In  In23  1  0.17256165  0.66980173  0.87760547  1
  In  In24  1  0.49748550  0.00533260  0.37262185  1
  In  In25  1  0.49362082  0.00909982  0.87464631  1
  In  In26  1  0.49105767  0.31852798  0.36729415  1
  In  In27  1  0.51923799  0.33277029  0.87524654  1
  In  In28  1  0.51765108  0.66822428  0.37501046  1
  In  In29  1  0.49833509  0.64887977  0.87882473  1
  In  In30  1  0.83224979  -0.00783679  0.36409727  1
  In  In31  1  0.83027767  0.00189310  0.89434460  1
  In  In32  1  0.83643904  0.34826156  0.37345628  1
  In  In33  1  0.82931801  0.32312848  0.87835400  1
  In  In34  1  0.83541483  0.66215324  0.36917309  1
  In  In35  1  0.83266758  0.68259897  0.87947522  1
  In  In36  1  0.01442102  0.16492358  0.37385447  1
  In  In37  1  -0.00051199  0.17274186  0.88412574  1
  In  In38  1  -0.00228060  0.50263969  0.37988077  1
  In  In39  1  0.00494621  0.48478157  0.87105902  1
  In  In40  1  0.02762253  0.84732206  0.34891579  1
  In  In41  1  -0.00363978  0.83809949  0.88612250  1
  In  In42  1  0.33529344  0.16749923  0.37272006  1
  In  In43  1  0.33527253  0.15070498  0.87109888  1
  In  In44  1  0.33299718  0.47722300  0.37913332  1
  In  In45  1  0.33551172  0.50824132  0.87750836  1
  In  In46  1  0.31939400  0.85179780  0.37777667  1
  In  In47  1  0.31770693  0.83471315  0.87934451  1
  In  In48  1  0.65851821  0.15630828  0.36641220  1
  In  In49  1  0.67318387  0.17557243  0.87886333  1
  In  In50  1  0.67626633  0.50852402  0.36903097  1
  In  In51  1  0.65870422  0.48719914  0.87324258  1
  In  In52  1  0.66294748  0.82921144  0.37012887  1
  In  In53  1  0.67822850  0.83618419  0.87968458  1
  In  In54  1  0.16298581  -0.00195409  0.12893252  1
  In  In55  1  0.18017575  0.00899758  0.61435070  1
  In  In56  1  0.17394817  0.32934208  0.12383762  1
  In  In57  1  0.16037396  0.33132652  0.62316955  1
  In  In58  1  0.14855808  0.66744801  0.13386598  1
  In  In59  1  0.16357211  0.66969956  0.61299490  1
  In  In60  1  0.50204471  -0.00019632  0.13455631  1
  In  In61  1  0.48267294  -0.00596282  0.61867910  1
  In  In62  1  0.49551526  0.33732949  0.12783261  1
  In  In63  1  0.50944942  0.33679954  0.62156905  1
  In  In64  1  0.51205219  0.66791697  0.13210976  1
  In  In65  1  0.49415921  0.67684366  0.62328220  1
  In  In66  1  0.83290375  0.00353081  0.12385913  1
  In  In67  1  0.83473193  0.00227541  0.62617685  1
  In  In68  1  0.82505421  0.31097028  0.11329721  1
  In  In69  1  0.82396608  0.34185323  0.63036497  1
  In  In70  1  0.82379583  0.67497209  0.12985119  1
  In  In71  1  0.83653632  0.65301533  0.62711397  1
  In  In72  1  0.16928179  0.49799842  -0.00330508  1
  In  In73  1  0.33475567  0.33014602  0.74014958  1
  In  In74  1  0.00010810  0.00337062  0.75000564  1
  In  In75  1  0.50577836  0.16639834  -0.00294363  1
  In  In76  1  0.83499084  0.17160433  0.49962922  1
  In  In77  1  0.33249435  0.66697612  0.74914208  1
  In  In78  1  0.00131485  0.33316327  0.24994350  1
  In  In79  1  0.82998357  0.49946240  -0.00369665  1
  In  In80  1  0.33592212  0.66825290  0.25608490  1
  In  In81  1  -0.00119103  0.66333294  0.75262134  1
  In  In82  1  0.83536074  0.82647354  0.48808156  1
  In  In83  1  0.66147619  0.00692045  0.76070995  1
  In  In84  1  0.50335168  0.49989916  0.49795471  1
  In  In85  1  0.49930318  0.83327012  0.01601919  1
  Cu  Cu86  1  0.49876466  0.16915154  0.24814514  1
  Cu  Cu87  1  0.50789383  0.49410897  0.75104628  1
  Cu  Cu88  1  0.65186066  0.00482895  0.49837914  1
  Cu  Cu89  1  0.33603120  0.33231306  0.00100760  1
  Cu  Cu90  1  -0.00394254  0.67111577  0.00499788  1
  Cu  Cu91  1  0.17028857  0.84199332  0.74997837  1
  Cu  Cu92  1  0.82622039  0.49726007  0.75230554  1
  Cu  Cu93  1  0.00377150  0.66957661  0.49430454  1
  Cu  Cu94  1  -0.00084276  0.33796318  0.50151181  1
  Cu  Cu95  1  0.00540959  -0.00539716  0.49192539  1
  Cu  Cu96  1  0.16483862  0.49123438  0.25593806  1
  Cu  Cu97  1  0.32924313  0.66763337  0.00235089  1
  Cu  Cu98  1  0.32779127  -0.00031615  0.00459160  1
  Cu  Cu99  1  0.66057794  0.66732993  0.00688403  1
  Cu  Cu100  1  0.66747380  0.33741032  0.49854339  1
  Cu  Cu101  1  0.50011592  0.16451390  0.74913047  1
  Cu  Cu102  1  0.33230252  0.00258782  0.49295989  1
  Cu  Cu103  1  0.00785746  -0.00289909  0.00671902  1
  Cu  Cu104  1  0.83726377  0.83131871  0.24649526  1
  Cu  Cu105  1  0.50337912  0.83907906  0.25288804  1
  Cu  Cu106  1  0.33493504  0.67115882  0.49599381  1
  Cu  Cu107  1  0.67307423  0.66786121  0.49586405  1
  Cu  Cu108  1  0.49630809  0.82645127  0.74492792  1
  Cu  Cu109  1  0.84585655  0.17688117  0.75219922  1
  Cu  Cu110  1  0.50253167  0.49572634  0.25492706  1
  Cu  Cu111  1  0.82880849  0.49705866  0.24670246  1
  Cu  Cu112  1  0.82265959  0.83556111  0.75728872  1
  Cu  Cu113  1  0.16919821  0.16425187  0.25048663  1
  Cu  Cu114  1  0.83290822  0.16426955  0.24454458  1
  Se  Se115  1  0.09261056  0.08456601  0.05460533  1
  Se  Se116  1  0.08334702  0.08048372  0.54822149  1
  Se  Se117  1  0.07877308  0.40897427  0.05630816  1
  Se  Se118  1  0.08093615  0.42145106  0.55589368  1
  Se  Se119  1  0.08314724  0.75059243  0.05728144  1
  Se  Se120  1  0.08511479  0.75753576  0.54512418  1
  Se  Se121  1  0.41461908  0.07883407  0.05997346  1
  Se  Se122  1  0.41127775  0.08602686  0.55100490  1
  Se  Se123  1  0.41485968  0.41762772  0.05427659  1
  Se  Se124  1  0.41131189  0.40603851  0.55216768  1
  Se  Se125  1  0.40401267  0.74247231  0.07077702  1
  Se  Se126  1  0.42080232  0.75326147  0.54761716  1
  Se  Se127  1  0.76317530  0.09796280  0.05572904  1
  Se  Se128  1  0.74044860  0.07784983  0.55751042  1
  Se  Se129  1  0.74051929  0.41413799  0.05829295  1
  Se  Se130  1  0.75134068  0.41932035  0.55228034  1
  Se  Se131  1  0.74538513  0.75205929  0.05557569  1
  Se  Se132  1  0.74866248  0.74836881  0.56142254  1
  Se  Se133  1  0.25239621  0.24794871  0.05167827  1
  Se  Se134  1  0.24568501  0.25846656  0.55195399  1
  Se  Se135  1  0.24957591  0.58769898  0.06597076  1
  Se  Se136  1  0.25251344  0.58782228  0.54897384  1
  Se  Se137  1  0.24631624  0.91449888  0.05684005  1
  Se  Se138  1  0.24899715  0.91527921  0.54574451  1
  Se  Se139  1  0.58774356  0.25387206  0.06191164  1
  Se  Se140  1  0.58554882  0.25164775  0.54987236  1
  Se  Se141  1  0.57670440  0.58260126  0.05613105  1
  Se  Se142  1  0.59194091  0.59018101  0.55980082  1
  Se  Se143  1  0.59359355  0.93156525  0.06000014  1
  Se  Se144  1  0.57614081  0.91672482  0.55324978  1
  Se  Se145  1  0.93123696  0.25949576  0.05024231  1
  Se  Se146  1  0.92229127  0.25551625  0.56504343  1
  Se  Se147  1  0.91953889  0.58508203  0.06241499  1
  Se  Se148  1  0.91787777  0.58998654  0.54917285  1
  Se  Se149  1  0.91947650  0.91704948  0.05844197  1
  Se  Se150  1  0.92028173  0.92164024  0.55404199  1
  Se  Se151  1  0.07756401  0.24609816  0.45250042  1
  Se  Se152  1  0.09436798  0.25259284  0.94560266  1
  Se  Se153  1  0.08762477  0.58110602  0.44628401  1
  Se  Se154  1  0.07147648  0.59051092  0.94072488  1
  Se  Se155  1  0.08783769  0.91492217  0.43624632  1
  Se  Se156  1  0.08890471  0.91457957  0.94920234  1
  Se  Se157  1  0.41229128  0.25257489  0.44379887  1
  Se  Se158  1  0.41256304  0.25378418  0.93548703  1
  Se  Se159  1  0.41334004  0.58909003  0.43524623  1
  Se  Se160  1  0.41301680  0.58160779  0.95406058  1
  Se  Se161  1  0.41887450  0.91878554  0.44281292  1
  Se  Se162  1  0.41231589  0.91946793  0.94660497  1
  Se  Se163  1  0.74484339  0.25554927  0.43600559  1
  Se  Se164  1  0.75267353  0.24671739  0.95305501  1
  Se  Se165  1  0.75570994  0.58409201  0.44425149  1
  Se  Se166  1  0.73875869  0.59293826  0.94012067  1
  Se  Se167  1  0.74080435  0.92706132  0.44249894  1
  Se  Se168  1  0.75068912  0.91055623  0.95511261  1
  Se  Se169  1  0.24739381  0.08546200  0.44057992  1
  Se  Se170  1  0.25164100  0.08531852  0.94767462  1
  Se  Se171  1  0.24430417  0.42298950  0.45544755  1
  Se  Se172  1  0.25547607  0.40651832  0.93539979  1
  Se  Se173  1  0.25026021  0.75342606  0.44300607  1
  Se  Se174  1  0.24433630  0.75104329  0.95256669  1
  Se  Se175  1  0.57552035  0.09200459  0.44440386  1
  Se  Se176  1  0.59621651  0.07109710  0.94099376  1
  Se  Se177  1  0.58918922  0.41343271  0.43311355  1
  Se  Se178  1  0.57678150  0.42168211  0.94979712  1
  Se  Se179  1  0.58778776  0.75389815  0.44869884  1
  Se  Se180  1  0.57968809  0.74699621  0.94412962  1
  Se  Se181  1  0.91819925  0.07494965  0.43794089  1
  Se  Se182  1  0.92543828  0.08173399  0.95228508  1
  Se  Se183  1  0.91382102  0.42020683  0.44983476  1
  Se  Se184  1  0.92543752  0.40784244  0.94499900  1
  Se  Se185  1  0.93356463  0.75072835  0.42787494  1
  Se  Se186  1  0.91201601  0.75622387  0.95400377  1
  Se  Se187  1  0.24557846  0.25149759  0.30670146  1
  Se  Se188  1  0.25089557  0.23917752  0.80303333  1
  Se  Se189  1  0.24837915  0.57232827  0.31352117  1
  Se  Se190  1  0.23905385  0.57543704  0.80497686  1
  Se  Se191  1  0.24765166  0.91519790  0.29612734  1
  Se  Se192  1  0.25181410  0.92221112  0.80575275  1
  Se  Se193  1  0.58658430  0.25079693  0.29964229  1
  Se  Se194  1  0.58665280  0.24214162  0.80345751  1
  Se  Se195  1  0.58674356  0.58540376  0.30010913  1
  Se  Se196  1  0.58505881  0.58158804  0.80529320  1
  Se  Se197  1  0.58705333  0.92306346  0.30596813  1
  Se  Se198  1  0.57170258  0.90509680  0.81192918  1
  Se  Se199  1  0.90996559  0.24151823  0.31082907  1
  Se  Se200  1  0.92576084  0.25644877  0.80957158  1
  Se  Se201  1  0.91590146  0.57292081  0.30291065  1
  Se  Se202  1  0.90530505  0.57661746  0.81464641  1
  Se  Se203  1  0.92090042  0.91969855  0.29463436  1
  Se  Se204  1  0.90705086  0.91605146  0.81223364  1
  Se  Se205  1  0.08213100  0.08113025  0.29985862  1
  Se  Se206  1  0.08738550  0.09000349  0.81092411  1
  Se  Se207  1  0.09009863  0.40942897  0.31937715  1
  Se  Se208  1  0.09287005  0.42786854  0.79627200  1
  Se  Se209  1  0.07678349  0.72798295  0.29764865  1
  Se  Se210  1  0.08817763  0.76206817  0.80911423  1
  Se  Se211  1  0.41498633  0.08496170  0.30123640  1
  Se  Se212  1  0.41622908  0.07659058  0.79606733  1
  Se  Se213  1  0.41411234  0.41163788  0.30127249  1
  Se  Se214  1  0.42071317  0.41835738  0.80901164  1
  Se  Se215  1  0.42504501  0.75915206  0.31521809  1
  Se  Se216  1  0.41948520  0.75369038  0.81498275  1
  Se  Se217  1  0.75029161  0.08073802  0.30039778  1
  Se  Se218  1  0.76810219  0.08949194  0.81033666  1
  Se  Se219  1  0.74691931  0.41342971  0.30056297  1
  Se  Se220  1  0.75062267  0.41021176  0.80887077  1
  Se  Se221  1  0.75370457  0.75157414  0.30452818  1
  Se  Se222  1  0.74214998  0.74637941  0.80531164  1
  Se  Se223  1  0.25186548  0.08120466  0.19577388  1
  Se  Se224  1  0.24677289  0.08163095  0.69414706  1
  Se  Se225  1  0.24603132  0.40773446  0.20155070  1
  Se  Se226  1  0.24645840  0.42876370  0.68884204  1
  Se  Se227  1  0.24180027  0.75303523  0.19745579  1
  Se  Se228  1  0.24344816  0.75698894  0.68795657  1
  Se  Se229  1  0.58585984  0.08464985  0.19918696  1
  Se  Se230  1  0.58061565  0.08456719  0.68607806  1
  Se  Se231  1  0.58340698  0.41498766  0.19675310  1
  Se  Se232  1  0.58854003  0.40822966  0.69822751  1
  Se  Se233  1  0.58677964  0.75373248  0.20122813  1
  Se  Se234  1  0.58296894  0.74303409  0.69764938  1
  Se  Se235  1  0.92009176  0.08186479  0.19538517  1
  Se  Se236  1  0.91715902  0.09828997  0.68586693  1
  Se  Se237  1  0.90615085  0.41442208  0.18621200  1
  Se  Se238  1  0.91383862  0.42177609  0.69591104  1
  Se  Se239  1  0.91968593  0.74512580  0.19512788  1
  Se  Se240  1  0.90577358  0.75913224  0.69575780  1
  Se  Se241  1  0.08525952  0.24008845  0.18851762  1
  Se  Se242  1  0.08109187  0.26402709  0.70236595  1
  Se  Se243  1  0.08110732  0.57536693  0.20500097  1
  Se  Se244  1  0.08817822  0.58329286  0.68753021  1
  Se  Se245  1  0.08498203  0.91465871  0.19914305  1
  Se  Se246  1  0.08602169  0.91318912  0.68634228  1
  Se  Se247  1  0.41394344  0.25321900  0.19618909  1
  Se  Se248  1  0.42433812  0.23905776  0.68228012  1
  Se  Se249  1  0.41944465  0.57401446  0.19288399  1
  Se  Se250  1  0.42511642  0.57273442  0.69110104  1
  Se  Se251  1  0.41622868  0.92074996  0.20253300  1
  Se  Se252  1  0.41253076  0.91105127  0.69456004  1
  Se  Se253  1  0.74964425  0.25223137  0.19763499  1
  Se  Se254  1  0.75174464  0.25121583  0.70078866  1
  Se  Se255  1  0.74609002  0.58541923  0.19651651  1
  Se  Se256  1  0.74756066  0.58304516  0.69753523  1
  Se  Se257  1  0.75373479  0.91815953  0.19539071  1
  Se  Se258  1  0.74850809  0.91653065  0.69358793  1
