# generated using pymatgen
data_In86Cu29Se144
_symmetry_space_group_name_H-M   'P 1'
_cell_length_a   17.58407061
_cell_length_b   17.58648571
_cell_length_c   23.45173567
_cell_angle_alpha   89.97726105
_cell_angle_beta   90.00452276
_cell_angle_gamma   90.01712218
_symmetry_Int_Tables_number   1
_chemical_formula_structural   In86Cu29Se144
_chemical_formula_sum   'In86 Cu29 Se144'
_cell_volume   7252.26087272
_cell_formula_units_Z   1
loop_
 _symmetry_equiv_pos_site_id
 _symmetry_equiv_pos_as_xyz
  1  'x, y, z'
loop_
 _atom_site_type_symbol
 _atom_site_label
 _atom_site_symmetry_multiplicity
 _atom_site_fract_x
 _atom_site_fract_y
 _atom_site_fract_z
 _atom_site_occupancy
  In  In0  1  -0.00804655  0.16120436  0.12296230  1
  In  In1  1  0.00581908  0.15467523  0.62473975  1
  In  In2  1  -0.01236336  0.51653926  0.13250091  1
  In  In3  1  0.00276317  0.50152559  0.61683242  1
  In  In4  1  0.00613255  0.82835413  0.13790509  1
  In  In5  1  -0.00246600  0.83006848  0.61292833  1
  In  In6  1  0.33098496  0.16220166  0.11817213  1
  In  In7  1  0.33067797  0.15920757  0.62974255  1
  In  In8  1  0.34571150  0.49827128  0.12997317  1
  In  In9  1  0.32617812  0.50972843  0.62886482  1
  In  In10  1  0.33108131  0.83498520  0.13583567  1
  In  In11  1  0.33555373  0.83640699  0.61975559  1
  In  In12  1  0.66682555  0.15930007  0.11832557  1
  In  In13  1  0.64900481  0.16626794  0.62419618  1
  In  In14  1  0.65688005  0.48851840  0.11889607  1
  In  In15  1  0.67635269  0.49466202  0.61879047  1
  In  In16  1  0.67401257  0.84478465  0.12971690  1
  In  In17  1  0.67632483  0.84628042  0.61432270  1
  In  In18  1  0.17045240  -0.00061790  0.37726630  1
  In  In19  1  0.17948107  -0.00062039  0.87058147  1
  In  In20  1  0.17309231  0.32753971  0.38685995  1
  In  In21  1  0.16905007  0.32025243  0.87557366  1
  In  In22  1  0.16463368  0.66841937  0.37671015  1
  In  In23  1  0.18036862  0.65579948  0.87479031  1
  In  In24  1  0.49716641  0.00579189  0.37396849  1
  In  In25  1  0.50962564  0.00867283  0.85957328  1
  In  In26  1  0.49529495  0.32188194  0.37157640  1
  In  In27  1  0.49676886  0.33689865  0.88295880  1
  In  In28  1  0.50719648  0.68255355  0.37458142  1
  In  In29  1  0.48914812  0.66763723  0.87623049  1
  In  In30  1  0.82461289  -0.00759614  0.36831854  1
  In  In31  1  0.82588995  0.01435327  0.88467074  1
  In  In32  1  0.82917621  0.35107307  0.36673456  1
  In  In33  1  0.82651075  0.32528474  0.89278355  1
  In  In34  1  0.84280755  0.65801299  0.37289811  1
  In  In35  1  0.82523415  0.66640040  0.88034098  1
  In  In36  1  0.01719813  0.16912885  0.37471030  1
  In  In37  1  -0.00037659  0.16529326  0.88680877  1
  In  In38  1  -0.00979543  0.50988410  0.37461121  1
  In  In39  1  -0.00095091  0.49058706  0.88115145  1
  In  In40  1  0.00082000  0.83214804  0.37578997  1
  In  In41  1  0.00029018  0.83928600  0.87313645  1
  In  In42  1  0.34461573  0.15886139  0.38305562  1
  In  In43  1  0.32968255  0.16850940  0.87260237  1
  In  In44  1  0.32103801  0.49352936  0.37427385  1
  In  In45  1  0.34681399  0.50472799  0.86896835  1
  In  In46  1  0.33384377  0.83632542  0.37825659  1
  In  In47  1  0.35229285  0.83650436  0.85274744  1
  In  In48  1  0.65656658  0.15949051  0.36492822  1
  In  In49  1  0.66683425  0.15512392  0.89144739  1
  In  In50  1  0.68030437  0.50439975  0.36228199  1
  In  In51  1  0.67205138  0.48569974  0.89405180  1
  In  In52  1  0.65405889  0.84712508  0.38356474  1
  In  In53  1  0.65420931  0.84804670  0.87353227  1
  In  In54  1  0.16278755  0.00453665  0.13325786  1
  In  In55  1  0.18610804  0.01304841  0.61067142  1
  In  In56  1  0.17917668  0.32570773  0.12210192  1
  In  In57  1  0.17279175  0.33689030  0.62194725  1
  In  In58  1  0.16358199  0.66926070  0.13803285  1
  In  In59  1  0.17409920  0.67629987  0.61089246  1
  In  In60  1  0.49325791  0.00475917  0.12665155  1
  In  In61  1  0.49396639  -0.00213135  0.62498354  1
  In  In62  1  0.52115521  0.34377476  0.10391349  1
  In  In63  1  0.49972482  0.31665799  0.62372080  1
  In  In64  1  0.49897279  0.65071734  0.13164002  1
  In  In65  1  0.48524818  0.66990012  0.62453144  1
  In  In66  1  0.82470558  0.01241611  0.14188156  1
  In  In67  1  0.83849680  -0.00838336  0.62588590  1
  In  In68  1  0.81668919  0.32534186  0.11564390  1
  In  In69  1  0.82174116  0.34108372  0.62098362  1
  In  In70  1  0.84785117  0.65816778  0.12835962  1
  In  In71  1  0.83397850  0.66678459  0.61633773  1
  In  In72  1  0.49886630  0.83450695  0.00084058  1
  In  In73  1  0.00670428  0.67132428  0.74519880  1
  In  In74  1  0.00696537  -0.00263382  0.74938020  1
  In  In75  1  0.64727280  0.67061087  0.75252522  1
  In  In76  1  0.66638336  0.67288199  0.24837223  1
  In  In77  1  0.16894054  0.83062906  0.00452490  1
  In  In78  1  0.83932795  0.17106760  0.49762783  1
  In  In79  1  0.16412773  0.49609956  0.00333957  1
  In  In80  1  0.65904861  0.32961837  0.75830159  1
  In  In81  1  -0.00361333  0.33156777  0.24817187  1
  In  In82  1  0.00480557  0.33089279  0.75120806  1
  In  In83  1  0.50413144  0.50465705  0.49851856  1
  In  In84  1  0.34186846  0.33137124  0.24818674  1
  In  In85  1  0.84167965  0.82932255  0.00525680  1
  Cu  Cu86  1  0.00326028  0.33778626  0.49466410  1
  Cu  Cu87  1  0.16099179  0.50314866  0.25751720  1
  Cu  Cu88  1  0.49223761  0.16005620  0.74915621  1
  Cu  Cu89  1  0.33516311  0.32933849  0.50415234  1
  Cu  Cu90  1  0.33064229  0.66860312  0.49843915  1
  Cu  Cu91  1  0.67265024  0.67299420  0.49320148  1
  Cu  Cu92  1  0.83563615  0.83264732  0.25456378  1
  Cu  Cu93  1  0.33249168  0.66475289  -0.00138863  1
  Cu  Cu94  1  0.33522144  0.32743438  -0.00215552  1
  Cu  Cu95  1  0.83120944  0.50538157  0.75180086  1
  Cu  Cu96  1  0.66705988  0.65849275  0.00529812  1
  Cu  Cu97  1  0.17510531  0.83012253  0.73880278  1
  Cu  Cu98  1  0.00213661  -0.00606712  0.49664454  1
  Cu  Cu99  1  0.33520206  0.00768813  -0.00397137  1
  Cu  Cu100  1  -0.00409083  0.33441746  0.00572347  1
  Cu  Cu101  1  0.83296056  0.16553300  0.24415922  1
  Cu  Cu102  1  0.66288409  0.01025363  0.49663189  1
  Cu  Cu103  1  0.33606774  0.00095558  0.49997216  1
  Cu  Cu104  1  0.50428033  0.16813385  0.24393800  1
  Cu  Cu105  1  -0.00072064  0.00319503  0.00906829  1
  Cu  Cu106  1  -0.00307501  0.66198657  0.49378604  1
  Cu  Cu107  1  0.18202571  0.50144123  0.74685896  1
  Cu  Cu108  1  0.82119830  0.84219008  0.74660229  1
  Cu  Cu109  1  0.16935769  0.83489333  0.25963457  1
  Cu  Cu110  1  0.82162614  0.16539781  0.76106613  1
  Cu  Cu111  1  0.49991873  0.49364332  0.75495189  1
  Cu  Cu112  1  0.49699305  0.84277568  0.25706909  1
  Cu  Cu113  1  0.17411334  0.15816639  0.25126001  1
  Cu  Cu114  1  0.67097873  0.33705445  0.49451462  1
  Se  Se115  1  0.08800167  0.08535027  0.05881288  1
  Se  Se116  1  0.08214169  0.08142025  0.54925902  1
  Se  Se117  1  0.07503637  0.41149081  0.06873823  1
  Se  Se118  1  0.08709838  0.41680546  0.55287821  1
  Se  Se119  1  0.07648155  0.74036074  0.06017528  1
  Se  Se120  1  0.08016803  0.74829998  0.54535247  1
  Se  Se121  1  0.42124086  0.08535391  0.05041365  1
  Se  Se122  1  0.41644488  0.08645153  0.55571097  1
  Se  Se123  1  0.41011862  0.41642846  0.05251438  1
  Se  Se124  1  0.41630987  0.41507108  0.56125081  1
  Se  Se125  1  0.40905885  0.74526238  0.06235500  1
  Se  Se126  1  0.41663709  0.75144828  0.54892852  1
  Se  Se127  1  0.75977745  0.07484669  0.05744148  1
  Se  Se128  1  0.74814026  0.08414113  0.55969388  1
  Se  Se129  1  0.75013583  0.42241810  0.04988365  1
  Se  Se130  1  0.75626218  0.42245345  0.54311830  1
  Se  Se131  1  0.74396836  0.74205468  0.06407218  1
  Se  Se132  1  0.75551368  0.75436101  0.55010242  1
  Se  Se133  1  0.24823392  0.24456397  0.04721471  1
  Se  Se134  1  0.25211688  0.24560614  0.55769694  1
  Se  Se135  1  0.25111560  0.59052311  0.06240148  1
  Se  Se136  1  0.25038359  0.57882253  0.54911113  1
  Se  Se137  1  0.25953565  0.92539124  0.05908097  1
  Se  Se138  1  0.24969793  0.91164330  0.54674430  1
  Se  Se139  1  0.58204306  0.23610478  0.04712021  1
  Se  Se140  1  0.58806871  0.25439108  0.54821562  1
  Se  Se141  1  0.57499428  0.58080764  0.05383592  1
  Se  Se142  1  0.59442319  0.59573755  0.55981026  1
  Se  Se143  1  0.59052406  0.92404632  0.05816417  1
  Se  Se144  1  0.58257341  0.92510553  0.55207927  1
  Se  Se145  1  0.91375178  0.24630168  0.05485141  1
  Se  Se146  1  0.92701637  0.26082654  0.56272841  1
  Se  Se147  1  0.91857983  0.58338535  0.05038664  1
  Se  Se148  1  0.91425594  0.57967984  0.55063156  1
  Se  Se149  1  0.92440274  0.91981576  0.06953788  1
  Se  Se150  1  0.91239019  0.91682287  0.54917840  1
  Se  Se151  1  0.08709275  0.24528139  0.45334325  1
  Se  Se152  1  0.08117443  0.25563921  0.95001157  1
  Se  Se153  1  0.08351242  0.57879814  0.44334215  1
  Se  Se154  1  0.07921906  0.59185437  0.94222154  1
  Se  Se155  1  0.08739742  0.91285719  0.44407189  1
  Se  Se156  1  0.07810309  0.92580411  0.94507683  1
  Se  Se157  1  0.42115706  0.25024556  0.45020095  1
  Se  Se158  1  0.41603125  0.24304112  0.94430031  1
  Se  Se159  1  0.41160725  0.58981269  0.43681780  1
  Se  Se160  1  0.41799540  0.58087570  0.94845298  1
  Se  Se161  1  0.42034531  0.91995908  0.44488023  1
  Se  Se162  1  0.40799537  0.91838808  0.93765681  1
  Se  Se163  1  0.74765734  0.25310202  0.43411198  1
  Se  Se164  1  0.73625577  0.25013662  0.95664513  1
  Se  Se165  1  0.74853913  0.58355397  0.44054771  1
  Se  Se166  1  0.75568897  0.58079316  0.95220079  1
  Se  Se167  1  0.74875075  0.92382023  0.44834165  1
  Se  Se168  1  0.74585731  0.91587677  0.94747340  1
  Se  Se169  1  0.25019562  0.08499520  0.44787812  1
  Se  Se170  1  0.24563143  0.08563101  0.94429640  1
  Se  Se171  1  0.25305645  0.41585903  0.45294561  1
  Se  Se172  1  0.25664435  0.41500113  0.93902456  1
  Se  Se173  1  0.24762519  0.75241134  0.44482625  1
  Se  Se174  1  0.26242884  0.75185646  0.93750014  1
  Se  Se175  1  0.57869432  0.09199551  0.44412254  1
  Se  Se176  1  0.57744807  0.06338325  0.94630256  1
  Se  Se177  1  0.58848218  0.41550424  0.43423197  1
  Se  Se178  1  0.57943127  0.41037896  0.95542902  1
  Se  Se179  1  0.57985875  0.75665835  0.45261303  1
  Se  Se180  1  0.59266356  0.74125256  0.94239154  1
  Se  Se181  1  0.92352948  0.07764825  0.43649360  1
  Se  Se182  1  0.91492537  0.08494704  0.95468438  1
  Se  Se183  1  0.91583386  0.41595612  0.44221110  1
  Se  Se184  1  0.91387168  0.41695294  0.95102796  1
  Se  Se185  1  0.91408423  0.74849693  0.44261635  1
  Se  Se186  1  0.93050535  0.74236740  0.94036284  1
  Se  Se187  1  0.25017777  0.24405105  0.31042969  1
  Se  Se188  1  0.25126625  0.25344901  0.80222112  1
  Se  Se189  1  0.24885629  0.58505530  0.30692609  1
  Se  Se190  1  0.26221230  0.58749498  0.79994270  1
  Se  Se191  1  0.25554261  0.92123326  0.30683572  1
  Se  Se192  1  0.25018791  0.91454874  0.79783128  1
  Se  Se193  1  0.58317605  0.25402858  0.29874626  1
  Se  Se194  1  0.57330001  0.23536454  0.81437130  1
  Se  Se195  1  0.57378036  0.58239437  0.30611731  1
  Se  Se196  1  0.58301675  0.56630481  0.81771999  1
  Se  Se197  1  0.58510159  0.92521164  0.30523779  1
  Se  Se198  1  0.56077375  0.89642779  0.79930622  1
  Se  Se199  1  0.90950830  0.24058316  0.31187578  1
  Se  Se200  1  0.90778591  0.24644148  0.81390924  1
  Se  Se201  1  0.90611366  0.57155828  0.29787254  1
  Se  Se202  1  0.91640196  0.58235435  0.80906416  1
  Se  Se203  1  0.92056093  0.91759950  0.30532628  1
  Se  Se204  1  0.90394264  0.91692775  0.80940227  1
  Se  Se205  1  0.08680062  0.07997596  0.30467674  1
  Se  Se206  1  0.08707894  0.09286447  0.81080205  1
  Se  Se207  1  0.08906196  0.41252327  0.31427044  1
  Se  Se208  1  0.09507042  0.42842490  0.80731614  1
  Se  Se209  1  0.08155927  0.74826639  0.30550885  1
  Se  Se210  1  0.09729744  0.75920624  0.80822200  1
  Se  Se211  1  0.41866005  0.09092937  0.30210975  1
  Se  Se212  1  0.40573152  0.07920677  0.80208460  1
  Se  Se213  1  0.42487957  0.42684002  0.30844967  1
  Se  Se214  1  0.41720939  0.40652858  0.80434666  1
  Se  Se215  1  0.41625391  0.75423355  0.30637535  1
  Se  Se216  1  0.42602751  0.73815577  0.79365271  1
  Se  Se217  1  0.75003987  0.08366440  0.30101891  1
  Se  Se218  1  0.73865821  0.08023084  0.81023764  1
  Se  Se219  1  0.74072944  0.41003712  0.29229517  1
  Se  Se220  1  0.75834437  0.41956449  0.81151233  1
  Se  Se221  1  0.74918424  0.75944825  0.31614823  1
  Se  Se222  1  0.75077541  0.75687997  0.80852577  1
  Se  Se223  1  0.25980176  0.08148994  0.19518141  1
  Se  Se224  1  0.24438959  0.07744366  0.69686293  1
  Se  Se225  1  0.24020580  0.42328702  0.19571839  1
  Se  Se226  1  0.25752235  0.41114975  0.69455275  1
  Se  Se227  1  0.24997152  0.75078496  0.20334059  1
  Se  Se228  1  0.25565183  0.74380622  0.68743962  1
  Se  Se229  1  0.58565265  0.08024257  0.19304259  1
  Se  Se230  1  0.57956581  0.08073862  0.69597904  1
  Se  Se231  1  0.56973098  0.41852451  0.19073060  1
  Se  Se232  1  0.58073034  0.42199849  0.68884895  1
  Se  Se233  1  0.57170816  0.76390791  0.18967729  1
  Se  Se234  1  0.58056869  0.76059089  0.68040869  1
  Se  Se235  1  0.92733564  0.08207204  0.20327174  1
  Se  Se236  1  0.90654829  0.09229340  0.69813065  1
  Se  Se237  1  0.90470616  0.41407211  0.18725730  1
  Se  Se238  1  0.91077671  0.42370164  0.69236452  1
  Se  Se239  1  0.91526826  0.74684162  0.20117759  1
  Se  Se240  1  0.90613358  0.76030778  0.69177950  1
  Se  Se241  1  0.09430802  0.24207692  0.19278779  1
  Se  Se242  1  0.09104271  0.24058492  0.69140417  1
  Se  Se243  1  0.07793909  0.58511082  0.20348363  1
  Se  Se244  1  0.09536431  0.57805162  0.68805530  1
  Se  Se245  1  0.08736295  0.91650248  0.20208346  1
  Se  Se246  1  0.08776877  0.90803392  0.68315873  1
  Se  Se247  1  0.42570980  0.24757247  0.18145359  1
  Se  Se248  1  0.41452848  0.24837155  0.69645895  1
  Se  Se249  1  0.40267107  0.59311238  0.20129427  1
  Se  Se250  1  0.42279039  0.57766162  0.69673812  1
  Se  Se251  1  0.41449475  0.92278451  0.19878906  1
  Se  Se252  1  0.40050944  0.92682308  0.69200765  1
  Se  Se253  1  0.74620820  0.24389008  0.19116924  1
  Se  Se254  1  0.75225728  0.24536045  0.69276763  1
  Se  Se255  1  0.74682435  0.57879523  0.18691523  1
  Se  Se256  1  0.75042340  0.58494626  0.69372442  1
  Se  Se257  1  0.74889401  0.91802315  0.20668832  1
  Se  Se258  1  0.74183319  0.92775278  0.69477381  1
