# generated using pymatgen
data_In86Cu29Se144
_symmetry_space_group_name_H-M   'P 1'
_cell_length_a   17.64495949
_cell_length_b   17.64623007
_cell_length_c   23.50678693
_cell_angle_alpha   89.97671558
_cell_angle_beta   89.98354370
_cell_angle_gamma   89.99766983
_symmetry_Int_Tables_number   1
_chemical_formula_structural   In86Cu29Se144
_chemical_formula_sum   'In86 Cu29 Se144'
_cell_volume   7319.23716020
_cell_formula_units_Z   1
loop_
 _symmetry_equiv_pos_site_id
 _symmetry_equiv_pos_as_xyz
  1  'x, y, z'
loop_
 _atom_site_type_symbol
 _atom_site_label
 _atom_site_symmetry_multiplicity
 _atom_site_fract_x
 _atom_site_fract_y
 _atom_site_fract_z
 _atom_site_occupancy
  In  In0  1  0.01022587  0.16779553  0.13290881  1
  In  In1  1  -0.00726724  0.14896022  0.62209890  1
  In  In2  1  -0.00279118  0.50683056  0.13028360  1
  In  In3  1  0.00422945  0.50543919  0.60633720  1
  In  In4  1  -0.00936263  0.83709135  0.13802943  1
  In  In5  1  0.00120050  0.83365503  0.61842396  1
  In  In6  1  0.32796620  0.15408069  0.11785098  1
  In  In7  1  0.32442102  0.15411810  0.62452765  1
  In  In8  1  0.34188834  0.51399069  0.11885914  1
  In  In9  1  0.33605274  0.51183415  0.61745403  1
  In  In10  1  0.36279910  0.78549560  0.18978427  1
  In  In11  1  0.33413525  0.82070534  0.62359827  1
  In  In12  1  0.67579929  0.16708178  0.12861068  1
  In  In13  1  0.65896130  0.15624281  0.62367181  1
  In  In14  1  0.66857872  0.50511297  0.13022667  1
  In  In15  1  0.67360811  0.50437507  0.61085880  1
  In  In16  1  0.66441574  0.82673455  0.12383403  1
  In  In17  1  0.67509630  0.83970551  0.61396728  1
  In  In18  1  0.15090614  -0.02580184  0.35382285  1
  In  In19  1  0.16495326  -0.01130589  0.86735852  1
  In  In20  1  0.15484205  0.35273160  0.38297571  1
  In  In21  1  0.17160225  0.34334997  0.87737599  1
  In  In22  1  0.16333197  0.67032588  0.36663494  1
  In  In23  1  0.16270867  0.65767766  0.87484110  1
  In  In24  1  0.48273731  -0.00508093  0.37033791  1
  In  In25  1  0.49106002  -0.01795773  0.86966786  1
  In  In26  1  0.52068858  0.34579213  0.37039542  1
  In  In27  1  0.50873411  0.33799597  0.87750149  1
  In  In28  1  0.49840585  0.67240918  0.37093281  1
  In  In29  1  0.49548220  0.67431147  0.88327755  1
  In  In30  1  0.84597423  -0.02554229  0.37149230  1
  In  In31  1  0.82196421  -0.01925476  0.86319627  1
  In  In32  1  0.83666781  0.34947210  0.37222180  1
  In  In33  1  0.83911841  0.33970378  0.87932969  1
  In  In34  1  0.82703527  0.67293269  0.36516544  1
  In  In35  1  0.83107778  0.66933913  0.88382930  1
  In  In36  1  -0.00367751  0.16970708  0.36984966  1
  In  In37  1  0.00689193  0.16058310  0.87813340  1
  In  In38  1  -0.00806477  0.50229923  0.37266270  1
  In  In39  1  -0.00232024  0.50496882  0.88599677  1
  In  In40  1  0.00342662  0.82605105  0.36208054  1
  In  In41  1  -0.00598475  0.82833872  0.87510819  1
  In  In42  1  0.33225364  0.15864140  0.38026922  1
  In  In43  1  0.33795697  0.15570191  0.87417271  1
  In  In44  1  0.31993364  0.51896911  0.37852037  1
  In  In45  1  0.33016687  0.51600730  0.88312317  1
  In  In46  1  0.32690626  0.83257885  0.37176708  1
  In  In47  1  0.33902481  0.83458822  0.86936027  1
  In  In48  1  0.66179783  0.17423359  0.37026994  1
  In  In49  1  0.67753234  0.16286690  0.87439049  1
  In  In50  1  0.66279521  0.50526741  0.37681180  1
  In  In51  1  0.66601823  0.50574995  0.88418795  1
  In  In52  1  0.67161070  0.82788219  0.37162897  1
  In  In53  1  0.66527260  0.82736850  0.87933888  1
  In  In54  1  0.17710502  -0.02819381  0.14945350  1
  In  In55  1  0.18529562  -0.03200839  0.64286331  1
  In  In56  1  0.15185222  0.33979803  0.12869536  1
  In  In57  1  0.16229913  0.34161774  0.61826474  1
  In  In58  1  0.17422577  0.66722029  0.13928355  1
  In  In59  1  0.17357319  0.67596374  0.61162712  1
  In  In60  1  0.49599438  -0.03834239  0.13131688  1
  In  In61  1  0.50761923  -0.01416585  0.62785506  1
  In  In62  1  0.49692028  0.35392925  0.12613094  1
  In  In63  1  0.49969644  0.33962625  0.61918620  1
  In  In64  1  0.50761034  0.66887922  0.12825090  1
  In  In65  1  0.49553407  0.65961616  0.61874869  1
  In  In66  1  0.84325202  0.00114748  0.12507327  1
  In  In67  1  0.84651646  -0.01822635  0.63448231  1
  In  In68  1  0.82249556  0.34475378  0.13717382  1
  In  In69  1  0.83905565  0.34036913  0.61859613  1
  In  In70  1  0.83460418  0.66991987  0.13185593  1
  In  In71  1  0.83785986  0.66899677  0.61347721  1
  In  In72  1  0.16836899  0.15781234  0.50276126  1
  In  In73  1  0.66509379  0.00387605  0.25006582  1
  In  In74  1  0.50014759  0.16877445  -0.00598135  1
  In  In75  1  0.33485533  0.33332921  0.25325964  1
  In  In76  1  0.66789816  0.32937112  0.74579685  1
  In  In77  1  0.49976870  0.16783121  0.50399096  1
  In  In78  1  0.83899331  0.16958378  0.00157381  1
  In  In79  1  0.00642428  0.67126578  0.74260077  1
  In  In80  1  -0.00019957  0.32668494  0.74327234  1
  In  In81  1  0.83372332  0.16708741  0.49539239  1
  In  In82  1  0.16269592  0.16769144  -0.00136158  1
  In  In83  1  0.33439285  0.32410556  0.74913978  1
  In  In84  1  0.17165842  0.82787030  0.01092686  1
  In  In85  1  0.66394809  0.66820100  0.75608422  1
  Cu  Cu86  1  0.83097568  0.50707150  0.25243184  1
  Cu  Cu87  1  0.66423973  -0.00993963  -0.00364312  1
  Cu  Cu88  1  0.66668015  -0.00207121  0.49680702  1
  Cu  Cu89  1  0.83428360  0.50593712  0.74964498  1
  Cu  Cu90  1  0.49065052  0.49953514  0.74574025  1
  Cu  Cu91  1  0.33602094  0.67601229  0.01362563  1
  Cu  Cu92  1  -0.00525649  0.66494011  0.00678566  1
  Cu  Cu93  1  0.83117060  0.15807966  0.74975537  1
  Cu  Cu94  1  0.67148618  0.66197118  0.00750748  1
  Cu  Cu95  1  0.33516413  0.66879867  0.49550913  1
  Cu  Cu96  1  -0.00648688  0.34575526  0.00772057  1
  Cu  Cu97  1  0.82982336  0.17517625  0.25444382  1
  Cu  Cu98  1  0.16519836  0.49837647  0.25312174  1
  Cu  Cu99  1  0.32850922  -0.01660165  0.49750603  1
  Cu  Cu100  1  0.49935635  0.15384599  0.74842947  1
  Cu  Cu101  1  -0.00373715  0.66626861  0.48736963  1
  Cu  Cu102  1  0.16827147  0.17491592  0.25040375  1
  Cu  Cu103  1  0.00694749  -0.01471954  0.49863689  1
  Cu  Cu104  1  0.16784092  0.50107839  0.75068031  1
  Cu  Cu105  1  0.00318727  -0.00395814  0.00880190  1
  Cu  Cu106  1  0.66474579  0.66876847  0.49099340  1
  Cu  Cu107  1  0.50002096  0.82635459  0.74944464  1
  Cu  Cu108  1  0.66217160  0.34445648  0.00683840  1
  Cu  Cu109  1  0.16474901  0.15542961  0.74815164  1
  Cu  Cu110  1  0.34226325  0.34201256  0.49675652  1
  Cu  Cu111  1  0.50722359  0.50523155  0.25261625  1
  Cu  Cu112  1  0.50077150  0.17159685  0.24698218  1
  Cu  Cu113  1  0.33826644  -0.01160981  -0.00168384  1
  Cu  Cu114  1  0.32657468  0.34551037  0.00051283  1
  Se  Se115  1  0.08780696  0.07469589  0.06489314  1
  Se  Se116  1  0.08472129  0.06211778  0.56250853  1
  Se  Se117  1  0.08158918  0.42615284  0.05752827  1
  Se  Se118  1  0.08679963  0.41644112  0.54579894  1
  Se  Se119  1  0.07364032  0.74479630  0.06734375  1
  Se  Se120  1  0.07494442  0.74612167  0.54865175  1
  Se  Se121  1  0.42066576  0.07145534  0.05527615  1
  Se  Se122  1  0.40729617  0.06957152  0.55555105  1
  Se  Se123  1  0.41682756  0.42339419  0.05058623  1
  Se  Se124  1  0.42084050  0.42472750  0.55316513  1
  Se  Se125  1  0.39945794  0.75418822  0.08188249  1
  Se  Se126  1  0.41965585  0.74850925  0.55066142  1
  Se  Se127  1  0.74190504  0.07520930  0.05332799  1
  Se  Se128  1  0.74846884  0.07466326  0.55758204  1
  Se  Se129  1  0.75049461  0.42059674  0.05967240  1
  Se  Se130  1  0.75778255  0.41785408  0.55080442  1
  Se  Se131  1  0.75323635  0.74857742  0.05783687  1
  Se  Se132  1  0.74940347  0.74814981  0.54796328  1
  Se  Se133  1  0.25269119  0.26049871  0.05903231  1
  Se  Se134  1  0.26379739  0.25788612  0.55592783  1
  Se  Se135  1  0.24483247  0.59251008  0.05950955  1
  Se  Se136  1  0.24908507  0.58320948  0.54641759  1
  Se  Se137  1  0.26063377  0.91839820  0.06673270  1
  Se  Se138  1  0.24684134  0.90470787  0.55555597  1
  Se  Se139  1  0.58646356  0.25463001  0.06130782  1
  Se  Se140  1  0.59709022  0.25914995  0.55627705  1
  Se  Se141  1  0.58344745  0.58215292  0.05840023  1
  Se  Se142  1  0.58467585  0.58622403  0.54895508  1
  Se  Se143  1  0.58287085  0.90988435  0.05230728  1
  Se  Se144  1  0.58086577  0.91500768  0.54827703  1
  Se  Se145  1  0.92139843  0.25847018  0.06636947  1
  Se  Se146  1  0.93035327  0.25181454  0.55647675  1
  Se  Se147  1  0.91093898  0.58271310  0.06001099  1
  Se  Se148  1  0.91334292  0.58401690  0.54371075  1
  Se  Se149  1  0.91726533  0.91181892  0.05734201  1
  Se  Se150  1  0.91190999  0.91261185  0.55028466  1
  Se  Se151  1  0.07900460  0.24888855  0.44456291  1
  Se  Se152  1  0.07077924  0.26666052  0.94431698  1
  Se  Se153  1  0.08303670  0.58609411  0.43573439  1
  Se  Se154  1  0.08251954  0.58720460  0.95146621  1
  Se  Se155  1  0.08442684  0.90651952  0.43743137  1
  Se  Se156  1  0.08292531  0.91749608  0.94691958  1
  Se  Se157  1  0.41705185  0.25805227  0.43782801  1
  Se  Se158  1  0.40233820  0.26195708  0.93984052  1
  Se  Se159  1  0.41942687  0.58685567  0.44158842  1
  Se  Se160  1  0.41441627  0.59221552  0.95363435  1
  Se  Se161  1  0.41685935  0.90746840  0.44382600  1
  Se  Se162  1  0.42072719  0.90347759  0.94705475  1
  Se  Se163  1  0.74372693  0.25800322  0.43923378  1
  Se  Se164  1  0.73984669  0.26148899  0.94644061  1
  Se  Se165  1  0.75260027  0.58979986  0.43910059  1
  Se  Se166  1  0.75496036  0.58024548  0.95089841  1
  Se  Se167  1  0.74902237  0.91601610  0.44166305  1
  Se  Se168  1  0.75329880  0.91117973  0.94503764  1
  Se  Se169  1  0.24688188  0.06347426  0.43867474  1
  Se  Se170  1  0.25541300  0.07150224  0.94497635  1
  Se  Se171  1  0.25402614  0.42086146  0.44587055  1
  Se  Se172  1  0.24502844  0.42793777  0.94673491  1
  Se  Se173  1  0.24865700  0.74559500  0.44005733  1
  Se  Se174  1  0.25584831  0.74253859  0.94279961  1
  Se  Se175  1  0.58510646  0.07793651  0.43825972  1
  Se  Se176  1  0.58866378  0.07484479  0.93696424  1
  Se  Se177  1  0.58339344  0.42283690  0.44849492  1
  Se  Se178  1  0.57923708  0.42224315  0.94911768  1
  Se  Se179  1  0.58215940  0.75431998  0.44041618  1
  Se  Se180  1  0.58848461  0.74419425  0.95069968  1
  Se  Se181  1  0.92623713  0.07035587  0.44146406  1
  Se  Se182  1  0.92460491  0.07446385  0.94525392  1
  Se  Se183  1  0.92419131  0.41334652  0.44551507  1
  Se  Se184  1  0.90968724  0.42356074  0.95110743  1
  Se  Se185  1  0.91737116  0.75173453  0.43355317  1
  Se  Se186  1  0.91855195  0.75039271  0.94927861  1
  Se  Se187  1  0.24250896  0.25096773  0.31780188  1
  Se  Se188  1  0.23813556  0.23811516  0.81107330  1
  Se  Se189  1  0.25016463  0.58773613  0.29737455  1
  Se  Se190  1  0.25013203  0.58261666  0.80451999  1
  Se  Se191  1  0.27645216  0.93979992  0.30344745  1
  Se  Se192  1  0.25514103  0.91526230  0.80312284  1
  Se  Se193  1  0.58422357  0.25422036  0.29745136  1
  Se  Se194  1  0.57507765  0.23871705  0.80699113  1
  Se  Se195  1  0.58679204  0.59140451  0.30505924  1
  Se  Se196  1  0.57243109  0.57269566  0.81054160  1
  Se  Se197  1  0.57421253  0.91349116  0.30621783  1
  Se  Se198  1  0.58446228  0.90546170  0.80626688  1
  Se  Se199  1  0.91486910  0.25763763  0.30579558  1
  Se  Se200  1  0.90771117  0.24168246  0.80976895  1
  Se  Se201  1  0.91858361  0.58934392  0.30154271  1
  Se  Se202  1  0.91584053  0.58267375  0.80912248  1
  Se  Se203  1  0.93725944  0.92678566  0.29414026  1
  Se  Se204  1  0.93053009  0.92171534  0.80575062  1
  Se  Se205  1  0.08759878  0.09149055  0.30576695  1
  Se  Se206  1  0.08173902  0.08044632  0.80649593  1
  Se  Se207  1  0.07853365  0.41789386  0.30355786  1
  Se  Se208  1  0.08252070  0.42197873  0.80673715  1
  Se  Se209  1  0.11097874  0.77215650  0.29529262  1
  Se  Se210  1  0.09359450  0.75655208  0.80715131  1
  Se  Se211  1  0.41811003  0.09496692  0.30440431  1
  Se  Se212  1  0.41567835  0.07560063  0.80423730  1
  Se  Se213  1  0.41961553  0.42791529  0.31167429  1
  Se  Se214  1  0.41769868  0.41856981  0.80979904  1
  Se  Se215  1  0.40616312  0.74699145  0.30094332  1
  Se  Se216  1  0.41854761  0.74277929  0.80458343  1
  Se  Se217  1  0.76075384  0.08562083  0.31469689  1
  Se  Se218  1  0.74569013  0.07846233  0.80191433  1
  Se  Se219  1  0.74633048  0.42384065  0.30532019  1
  Se  Se220  1  0.75456362  0.42299562  0.80730461  1
  Se  Se221  1  0.75945231  0.76765483  0.29690481  1
  Se  Se222  1  0.76238205  0.75574823  0.80704712  1
  Se  Se223  1  0.24407156  0.09145557  0.19359847  1
  Se  Se224  1  0.25479185  0.07541127  0.70021948  1
  Se  Se225  1  0.24956580  0.42350533  0.19009368  1
  Se  Se226  1  0.24781654  0.41877960  0.69162429  1
  Se  Se227  1  0.21378345  0.78611684  0.19836515  1
  Se  Se228  1  0.24226750  0.74683621  0.69088172  1
  Se  Se229  1  0.57084937  0.08519675  0.18320681  1
  Se  Se230  1  0.58533354  0.07464648  0.69575659  1
  Se  Se231  1  0.58530781  0.41804404  0.19844703  1
  Se  Se232  1  0.58050919  0.42639199  0.69048203  1
  Se  Se233  1  0.57215274  0.76641408  0.19612553  1
  Se  Se234  1  0.58134559  0.75032305  0.68675691  1
  Se  Se235  1  0.90730816  0.09783074  0.19246119  1
  Se  Se236  1  0.91899121  0.07775081  0.69985215  1
  Se  Se237  1  0.91546890  0.42188726  0.19992970  1
  Se  Se238  1  0.91720759  0.43028442  0.69026363  1
  Se  Se239  1  0.92807332  0.73648644  0.20151075  1
  Se  Se240  1  0.90574798  0.75465159  0.69005318  1
  Se  Se241  1  0.08080558  0.25820343  0.20280076  1
  Se  Se242  1  0.09409172  0.23753108  0.68528660  1
  Se  Se243  1  0.08397238  0.58376287  0.20013012  1
  Se  Se244  1  0.09013410  0.57388049  0.68491928  1
  Se  Se245  1  0.04799424  0.94833410  0.19845234  1
  Se  Se246  1  0.06663226  0.91903551  0.69359684  1
  Se  Se247  1  0.41766644  0.24567807  0.18421613  1
  Se  Se248  1  0.42732214  0.23737032  0.68703650  1
  Se  Se249  1  0.42214989  0.58128081  0.19567495  1
  Se  Se250  1  0.41246793  0.58605688  0.69395407  1
  Se  Se251  1  0.39173139  0.93133938  0.20252450  1
  Se  Se252  1  0.41785043  0.90699630  0.69206144  1
  Se  Se253  1  0.74278851  0.25322157  0.20146034  1
  Se  Se254  1  0.76089146  0.24123631  0.68643257  1
  Se  Se255  1  0.74591806  0.58990228  0.19982776  1
  Se  Se256  1  0.75303769  0.58211439  0.68979482  1
  Se  Se257  1  0.75446984  0.91656457  0.18949479  1
  Se  Se258  1  0.73794274  0.92070627  0.69204142  1
