# generated using pymatgen
data_In86Cu29Se144
_symmetry_space_group_name_H-M   'P 1'
_cell_length_a   17.58279583
_cell_length_b   17.58247744
_cell_length_c   23.44549699
_cell_angle_alpha   90.01380416
_cell_angle_beta   90.00639651
_cell_angle_gamma   89.96736516
_symmetry_Int_Tables_number   1
_chemical_formula_structural   In86Cu29Se144
_chemical_formula_sum   'In86 Cu29 Se144'
_cell_volume   7248.15311976
_cell_formula_units_Z   1
loop_
 _symmetry_equiv_pos_site_id
 _symmetry_equiv_pos_as_xyz
  1  'x, y, z'
loop_
 _atom_site_type_symbol
 _atom_site_label
 _atom_site_symmetry_multiplicity
 _atom_site_fract_x
 _atom_site_fract_y
 _atom_site_fract_z
 _atom_site_occupancy
  In  In0  1  0.00161366  0.16721577  0.12262354  1
  In  In1  1  0.01684960  0.15730805  0.64746837  1
  In  In2  1  -0.00928866  0.48994540  0.11753371  1
  In  In3  1  0.00075316  0.47960794  0.62717290  1
  In  In4  1  0.00847654  0.84341316  0.11711030  1
  In  In5  1  0.01307391  0.85844819  0.63292073  1
  In  In6  1  0.34336445  0.17716712  0.11745886  1
  In  In7  1  0.33165426  0.16112710  0.61216221  1
  In  In8  1  0.32370234  0.49113195  0.12195879  1
  In  In9  1  0.33067595  0.50036899  0.61082291  1
  In  In10  1  0.33673257  0.83443576  0.12186235  1
  In  In11  1  0.33535606  0.82449840  0.62399767  1
  In  In12  1  0.67589415  0.17597015  0.11738501  1
  In  In13  1  0.66033045  0.17664379  0.62495983  1
  In  In14  1  0.66416440  0.50057480  0.12769173  1
  In  In15  1  0.65361779  0.49075192  0.62150201  1
  In  In16  1  0.65729162  0.82193040  0.12149646  1
  In  In17  1  0.66007139  0.83322664  0.62257144  1
  In  In18  1  0.17613963  0.01546409  0.37322251  1
  In  In19  1  0.15511475  0.00883096  0.87932911  1
  In  In20  1  0.17100696  0.32965255  0.37207242  1
  In  In21  1  0.15887830  0.33439392  0.87685665  1
  In  In22  1  0.16177387  0.65703678  0.38002374  1
  In  In23  1  0.16748438  0.66707606  0.88510760  1
  In  In24  1  0.49499043  0.00585463  0.38728714  1
  In  In25  1  0.50299377  -0.00081614  0.88314562  1
  In  In26  1  0.49908458  0.33570536  0.37003111  1
  In  In27  1  0.50901173  0.32575504  0.88308810  1
  In  In28  1  0.50639287  0.65865408  0.38257907  1
  In  In29  1  0.50213367  0.66288790  0.88336128  1
  In  In30  1  0.84161355  -0.00899174  0.36757386  1
  In  In31  1  0.83821573  -0.00140435  0.88244036  1
  In  In32  1  0.83490845  0.33463010  0.36354744  1
  In  In33  1  0.83540698  0.33103310  0.88046338  1
  In  In34  1  0.82422853  0.67541868  0.36831885  1
  In  In35  1  0.83069378  0.66911755  0.88487285  1
  In  In36  1  0.00970851  0.17487589  0.36645883  1
  In  In37  1  0.00166027  0.16831003  0.87173811  1
  In  In38  1  0.01421399  0.49362915  0.37548310  1
  In  In39  1  0.00565191  0.48745785  0.88503261  1
  In  In40  1  -0.00804562  0.83700552  0.36828347  1
  In  In41  1  -0.00099132  0.83996064  0.88060076  1
  In  In42  1  0.32096152  0.16924627  0.38359838  1
  In  In43  1  0.32577997  0.17262784  0.88223206  1
  In  In44  1  0.34639171  0.49256593  0.38206822  1
  In  In45  1  0.33138277  0.50038105  0.88441650  1
  In  In46  1  0.34809806  0.83897353  0.38103994  1
  In  In47  1  0.33429354  0.83521016  0.88496735  1
  In  In48  1  0.65346101  0.17226285  0.37217113  1
  In  In49  1  0.66078511  0.17589813  0.88136931  1
  In  In50  1  0.66086560  0.49357555  0.36677451  1
  In  In51  1  0.67559700  0.48949336  0.88620395  1
  In  In52  1  0.65196340  0.81868507  0.35722162  1
  In  In53  1  0.66856774  0.83397912  0.88420924  1
  In  In54  1  0.16130207  -0.00453220  0.11822871  1
  In  In55  1  0.15165291  0.00130372  0.63279565  1
  In  In56  1  0.16586758  0.32854982  0.12290434  1
  In  In57  1  0.16575250  0.32921249  0.61943287  1
  In  In58  1  0.16573489  0.66381490  0.11771425  1
  In  In59  1  0.17548134  0.66998059  0.62363345  1
  In  In60  1  0.49660675  -0.00338349  0.11958381  1
  In  In61  1  0.49238867  -0.00493338  0.61029150  1
  In  In62  1  0.49842823  0.33573728  0.12605560  1
  In  In63  1  0.49976038  0.33541115  0.61942421  1
  In  In64  1  0.51454895  0.67561470  0.12859042  1
  In  In65  1  0.48700514  0.65104683  0.59383244  1
  In  In66  1  0.84346189  0.01436724  0.11440489  1
  In  In67  1  0.84778316  0.01528363  0.63315491  1
  In  In68  1  0.83323457  0.33393007  0.12352995  1
  In  In69  1  0.84089702  0.31448517  0.64064202  1
  In  In70  1  0.82083627  0.65526727  0.11788551  1
  In  In71  1  0.83315348  0.67363968  0.62761512  1
  In  In72  1  0.67254671  0.00809022  0.24515682  1
  In  In73  1  0.33424787  0.66564926  0.73705644  1
  In  In74  1  0.83203897  0.16646057  0.50842443  1
  In  In75  1  0.82141385  0.83042128  0.50028820  1
  In  In76  1  0.33837858  0.66090662  0.26097823  1
  In  In77  1  -0.00644273  0.66082748  0.24781578  1
  In  In78  1  0.33016056  0.33159088  0.75602399  1
  In  In79  1  0.67297763  0.00648977  0.75172672  1
  In  In80  1  0.66445387  0.66199896  0.74350106  1
  In  In81  1  0.32469322  0.00361194  0.75177938  1
  In  In82  1  0.17031212  0.84108899  0.50174228  1
  In  In83  1  0.33413179  0.00318696  0.24718398  1
  In  In84  1  0.82780764  0.49597802  0.49541379  1
  In  In85  1  -0.00160316  0.66150706  0.76395646  1
  Cu  Cu86  1  0.00157880  0.00872817  0.50175047  1
  Cu  Cu87  1  0.50740571  0.49116085  0.74744312  1
  Cu  Cu88  1  0.82527154  0.48568818  0.75634213  1
  Cu  Cu89  1  0.49776859  0.17460508  0.24795446  1
  Cu  Cu90  1  0.16469650  0.48355996  0.24695635  1
  Cu  Cu91  1  -0.00096183  0.67008936  0.00028763  1
  Cu  Cu92  1  0.33933420  0.66286344  0.00661915  1
  Cu  Cu93  1  0.33604195  0.33427863  0.49440769  1
  Cu  Cu94  1  0.83754623  0.83850332  0.23994594  1
  Cu  Cu95  1  0.83818707  0.17017702  0.24061856  1
  Cu  Cu96  1  -0.00017175  0.32896658  0.00102475  1
  Cu  Cu97  1  0.83813924  0.83741749  0.75582352  1
  Cu  Cu98  1  0.33327881  -0.00173904  0.00115770  1
  Cu  Cu99  1  0.16480291  0.16902294  0.24805145  1
  Cu  Cu100  1  0.01491319  0.32690712  0.50012815  1
  Cu  Cu101  1  0.82937697  0.49684685  0.24257493  1
  Cu  Cu102  1  0.00089494  0.66308793  0.50358311  1
  Cu  Cu103  1  0.00298252  0.00465256  -0.00212007  1
  Cu  Cu104  1  0.66831642  0.00196102  0.00229229  1
  Cu  Cu105  1  0.66311521  -0.00679856  0.49654193  1
  Cu  Cu106  1  0.66406132  0.33912812  0.00508468  1
  Cu  Cu107  1  0.49853175  0.49950562  0.24979068  1
  Cu  Cu108  1  0.50028991  0.16836921  0.75144692  1
  Cu  Cu109  1  0.49925181  0.82767950  0.75070649  1
  Cu  Cu110  1  0.66349150  0.66647708  0.00291636  1
  Cu  Cu111  1  0.16722534  0.83429211  0.24335667  1
  Cu  Cu112  1  0.33166059  0.33370562  0.00032054  1
  Cu  Cu113  1  0.66466729  0.33544458  0.49835869  1
  Cu  Cu114  1  0.16615343  0.50211272  0.75087413  1
  Se  Se115  1  0.08636083  0.08740635  0.05203376  1
  Se  Se116  1  0.07990003  0.08868205  0.56069252  1
  Se  Se117  1  0.08450393  0.41418043  0.05330807  1
  Se  Se118  1  0.08941156  0.42075310  0.55105641  1
  Se  Se119  1  0.08632629  0.75173336  0.05198910  1
  Se  Se120  1  0.07183201  0.75341290  0.56208470  1
  Se  Se121  1  0.41801673  0.08295747  0.05212875  1
  Se  Se122  1  0.43249495  0.09865038  0.54887081  1
  Se  Se123  1  0.41508716  0.41623064  0.05449133  1
  Se  Se124  1  0.41966723  0.41712471  0.54864733  1
  Se  Se125  1  0.42184920  0.74798874  0.05897825  1
  Se  Se126  1  0.41277794  0.75852258  0.54657896  1
  Se  Se127  1  0.75324630  0.09047796  0.04776051  1
  Se  Se128  1  0.74099092  0.06814708  0.56223873  1
  Se  Se129  1  0.74982431  0.42127373  0.05787099  1
  Se  Se130  1  0.75327522  0.40054652  0.56255589  1
  Se  Se131  1  0.75025478  0.75198919  0.05222177  1
  Se  Se132  1  0.73484527  0.73257496  0.55553698  1
  Se  Se133  1  0.24783588  0.24770068  0.05104347  1
  Se  Se134  1  0.25166351  0.25323179  0.54972659  1
  Se  Se135  1  0.24862567  0.57912152  0.05198741  1
  Se  Se136  1  0.25038775  0.59312627  0.55125509  1
  Se  Se137  1  0.25077969  0.91310060  0.05427034  1
  Se  Se138  1  0.25339477  0.92889605  0.56749236  1
  Se  Se139  1  0.57981367  0.25243687  0.05518028  1
  Se  Se140  1  0.58132894  0.25001004  0.55007272  1
  Se  Se141  1  0.58118475  0.58321038  0.05746272  1
  Se  Se142  1  0.59284323  0.57512079  0.54582401  1
  Se  Se143  1  0.58532249  0.91647091  0.05435692  1
  Se  Se144  1  0.58068907  0.90829277  0.54895975  1
  Se  Se145  1  0.91430145  0.24818695  0.05514128  1
  Se  Se146  1  0.93098183  0.25195912  0.56181885  1
  Se  Se147  1  0.91671031  0.58400255  0.05247020  1
  Se  Se148  1  0.91802116  0.58413688  0.56156690  1
  Se  Se149  1  0.91830192  0.91922248  0.04971620  1
  Se  Se150  1  0.91844482  0.92401902  0.55631960  1
  Se  Se151  1  0.09191068  0.24236956  0.44313773  1
  Se  Se152  1  0.08400449  0.24679441  0.94654167  1
  Se  Se153  1  0.08188069  0.57784740  0.45157681  1
  Se  Se154  1  0.08179517  0.58295452  0.94864452  1
  Se  Se155  1  0.07411024  0.92412614  0.43881372  1
  Se  Se156  1  0.08734427  0.91544275  0.95003255  1
  Se  Se157  1  0.41898315  0.25149748  0.44011973  1
  Se  Se158  1  0.41619340  0.24893000  0.94794827  1
  Se  Se159  1  0.40697317  0.59356569  0.44653958  1
  Se  Se160  1  0.41970010  0.57939300  0.95042156  1
  Se  Se161  1  0.39856450  0.93696727  0.45203754  1
  Se  Se162  1  0.42168448  0.91496639  0.95069196  1
  Se  Se163  1  0.74909336  0.25598785  0.44031414  1
  Se  Se164  1  0.74629738  0.25482477  0.95034708  1
  Se  Se165  1  0.74242647  0.58955572  0.43661493  1
  Se  Se166  1  0.74964108  0.58366385  0.95116953  1
  Se  Se167  1  0.74105723  0.91899116  0.43203395  1
  Se  Se168  1  0.75227256  0.91685351  0.94963699  1
  Se  Se169  1  0.25105265  0.07799520  0.45308491  1
  Se  Se170  1  0.24979463  0.08063008  0.94701407  1
  Se  Se171  1  0.24832004  0.41589946  0.44255328  1
  Se  Se172  1  0.24537187  0.41439094  0.94594802  1
  Se  Se173  1  0.25225969  0.74765656  0.43895124  1
  Se  Se174  1  0.25593425  0.74606240  0.95103700  1
  Se  Se175  1  0.58810626  0.08830348  0.44794232  1
  Se  Se176  1  0.58382708  0.08533694  0.94860973  1
  Se  Se177  1  0.58316650  0.41680925  0.44179630  1
  Se  Se178  1  0.57746165  0.42053463  0.95142643  1
  Se  Se179  1  0.58369733  0.75846443  0.44131374  1
  Se  Se180  1  0.58164733  0.75162906  0.94870531  1
  Se  Se181  1  0.91833844  0.08201110  0.43903874  1
  Se  Se182  1  0.91948623  0.08899720  0.94564133  1
  Se  Se183  1  0.92544074  0.40257100  0.44265047  1
  Se  Se184  1  0.91312868  0.41643128  0.95281038  1
  Se  Se185  1  0.92225319  0.74269899  0.44246615  1
  Se  Se186  1  0.91609934  0.75439776  0.94770743  1
  Se  Se187  1  0.25342101  0.24518518  0.30304001  1
  Se  Se188  1  0.23576113  0.23876583  0.80647851  1
  Se  Se189  1  0.23880392  0.56815964  0.30909634  1
  Se  Se190  1  0.24865626  0.58202698  0.80775187  1
  Se  Se191  1  0.24700865  0.90817409  0.30833207  1
  Se  Se192  1  0.24492647  0.91164985  0.81534478  1
  Se  Se193  1  0.58539684  0.25681274  0.29841391  1
  Se  Se194  1  0.58223022  0.25128211  0.80449585  1
  Se  Se195  1  0.58008293  0.58526256  0.30291087  1
  Se  Se196  1  0.58133698  0.57458740  0.81000612  1
  Se  Se197  1  0.57556724  0.92992961  0.30714867  1
  Se  Se198  1  0.58036842  0.90914366  0.80739724  1
  Se  Se199  1  0.92025094  0.25091891  0.29899518  1
  Se  Se200  1  0.93006737  0.26855686  0.81009493  1
  Se  Se201  1  0.90728876  0.57040876  0.31194325  1
  Se  Se202  1  0.90252784  0.56976540  0.81560771  1
  Se  Se203  1  0.92290306  0.91941964  0.29250039  1
  Se  Se204  1  0.91858956  0.92042232  0.80876348  1
  Se  Se205  1  0.08574300  0.08051073  0.30098728  1
  Se  Se206  1  0.07995023  0.07982214  0.80261990  1
  Se  Se207  1  0.07912305  0.40563165  0.30233512  1
  Se  Se208  1  0.08370695  0.42089147  0.80513899  1
  Se  Se209  1  0.09009360  0.75207148  0.30600490  1
  Se  Se210  1  0.09235716  0.75579627  0.81244874  1
  Se  Se211  1  0.42141744  0.09261856  0.30948306  1
  Se  Se212  1  0.42156149  0.08906547  0.81199712  1
  Se  Se213  1  0.41244486  0.41700712  0.30128313  1
  Se  Se214  1  0.42304503  0.42324663  0.81200315  1
  Se  Se215  1  0.42912141  0.75849273  0.30949545  1
  Se  Se216  1  0.41880115  0.74845662  0.80948067  1
  Se  Se217  1  0.76135920  0.09636569  0.30973348  1
  Se  Se218  1  0.75583773  0.09290810  0.81586058  1
  Se  Se219  1  0.74683819  0.41398738  0.29848400  1
  Se  Se220  1  0.74153773  0.40600930  0.81014971  1
  Se  Se221  1  0.75390313  0.75507240  0.29232189  1
  Se  Se222  1  0.75271036  0.75372731  0.80664797  1
  Se  Se223  1  0.24560670  0.09097670  0.18552452  1
  Se  Se224  1  0.24318015  0.09862040  0.69135657  1
  Se  Se225  1  0.25293235  0.40576061  0.19495637  1
  Se  Se226  1  0.25066650  0.42680654  0.69096201  1
  Se  Se227  1  0.24889527  0.74756099  0.19252648  1
  Se  Se228  1  0.23543776  0.76688040  0.69779394  1
  Se  Se229  1  0.57604412  0.09381571  0.18677899  1
  Se  Se230  1  0.57088283  0.08068164  0.68992394  1
  Se  Se231  1  0.58248109  0.41611621  0.19628572  1
  Se  Se232  1  0.58614232  0.40427183  0.69532793  1
  Se  Se233  1  0.58772935  0.75440183  0.20366919  1
  Se  Se234  1  0.56829875  0.74620318  0.68501132  1
  Se  Se235  1  0.92111268  0.08164210  0.19373903  1
  Se  Se236  1  0.91096358  0.09615230  0.70870320  1
  Se  Se237  1  0.91817356  0.41421348  0.19520068  1
  Se  Se238  1  0.91655986  0.41258711  0.70184561  1
  Se  Se239  1  0.91471886  0.75199624  0.18181169  1
  Se  Se240  1  0.91953038  0.75771179  0.69478392  1
  Se  Se241  1  0.08080978  0.25084810  0.19396696  1
  Se  Se242  1  0.07874871  0.27259136  0.69635121  1
  Se  Se243  1  0.08860629  0.57327867  0.19046597  1
  Se  Se244  1  0.08508007  0.58172897  0.69045858  1
  Se  Se245  1  0.08365666  0.91926206  0.19460292  1
  Se  Se246  1  0.07965788  0.93004096  0.71327679  1
  Se  Se247  1  0.41123739  0.25564529  0.19601913  1
  Se  Se248  1  0.41658260  0.24393375  0.69025973  1
  Se  Se249  1  0.41805727  0.57875284  0.18843254  1
  Se  Se250  1  0.43019091  0.57209431  0.68510347  1
  Se  Se251  1  0.42666490  0.90757655  0.19593481  1
  Se  Se252  1  0.42148285  0.91327369  0.69339101  1
  Se  Se253  1  0.74847130  0.25290329  0.19451243  1
  Se  Se254  1  0.74777768  0.23456581  0.69989690  1
  Se  Se255  1  0.74589625  0.58662102  0.19774452  1
  Se  Se256  1  0.75912504  0.56865994  0.68882759  1
  Se  Se257  1  0.75604737  0.91855695  0.18061504  1
  Se  Se258  1  0.75891741  0.90983342  0.68921966  1
