# generated using pymatgen
data_In86Cu29Se144
_symmetry_space_group_name_H-M   'P 1'
_cell_length_a   17.61878464
_cell_length_b   17.62107514
_cell_length_c   23.48968872
_cell_angle_alpha   90.02252086
_cell_angle_beta   90.01444262
_cell_angle_gamma   90.00538208
_symmetry_Int_Tables_number   1
_chemical_formula_structural   In86Cu29Se144
_chemical_formula_sum   'In86 Cu29 Se144'
_cell_volume   7292.65321834
_cell_formula_units_Z   1
loop_
 _symmetry_equiv_pos_site_id
 _symmetry_equiv_pos_as_xyz
  1  'x, y, z'
loop_
 _atom_site_type_symbol
 _atom_site_label
 _atom_site_symmetry_multiplicity
 _atom_site_fract_x
 _atom_site_fract_y
 _atom_site_fract_z
 _atom_site_occupancy
  In  In0  1  0.00113805  0.14712800  0.12792943  1
  In  In1  1  0.00068367  0.15733151  0.62796885  1
  In  In2  1  0.01840515  0.51241644  0.12526379  1
  In  In3  1  -0.01105492  0.48993893  0.62528990  1
  In  In4  1  -0.00025091  0.83645958  0.12718186  1
  In  In5  1  0.01749400  0.85218789  0.61496589  1
  In  In6  1  0.33392795  0.17622581  0.13493078  1
  In  In7  1  0.32308862  0.15242891  0.61589403  1
  In  In8  1  0.31608560  0.50788273  0.13759228  1
  In  In9  1  0.34244213  0.50876424  0.62773927  1
  In  In10  1  0.32755643  0.82993765  0.12004952  1
  In  In11  1  0.33522966  0.83515175  0.62638110  1
  In  In12  1  0.65083722  0.15261858  0.12945596  1
  In  In13  1  0.66777914  0.15794674  0.62422778  1
  In  In14  1  0.68148518  0.50321991  0.12319318  1
  In  In15  1  0.66247016  0.50477062  0.62607824  1
  In  In16  1  0.66522791  0.83939529  0.12768570  1
  In  In17  1  0.68183554  0.83992204  0.60926174  1
  In  In18  1  0.15287563  0.01444182  0.38028474  1
  In  In19  1  0.16084056  -0.00013587  0.88183006  1
  In  In20  1  0.16731361  0.30889161  0.36878248  1
  In  In21  1  0.15837951  0.32522136  0.87102548  1
  In  In22  1  0.17971340  0.67823531  0.36350585  1
  In  In23  1  0.17827102  0.67233633  0.87095596  1
  In  In24  1  0.50813573  -0.01266489  0.38555898  1
  In  In25  1  0.49575873  -0.00426170  0.86561102  1
  In  In26  1  0.49004630  0.33213602  0.37786541  1
  In  In27  1  0.49694698  0.30491095  0.86686264  1
  In  In28  1  0.50574707  0.67831104  0.36415769  1
  In  In29  1  0.50258548  0.69119515  0.87621802  1
  In  In30  1  0.83207248  -0.00245670  0.37821685  1
  In  In31  1  0.82271360  -0.00514661  0.86871892  1
  In  In32  1  0.82371167  0.32868689  0.37962935  1
  In  In33  1  0.82091696  0.32466387  0.85829414  1
  In  In34  1  0.83765029  0.67673543  0.37146301  1
  In  In35  1  0.84332678  0.67479384  0.87643353  1
  In  In36  1  0.00563192  0.15282594  0.38199355  1
  In  In37  1  0.00446243  0.17049802  0.87034164  1
  In  In38  1  -0.00697187  0.50503908  0.37281870  1
  In  In39  1  0.00738423  0.49763075  0.87138499  1
  In  In40  1  -0.00072770  0.83916376  0.37622726  1
  In  In41  1  -0.00460467  0.83640118  0.87888912  1
  In  In42  1  0.32911151  0.16748705  0.38187600  1
  In  In43  1  0.32001249  0.09123374  0.84829772  1
  In  In44  1  0.33152401  0.50084062  0.36214666  1
  In  In45  1  0.32053429  0.50597260  0.87159690  1
  In  In46  1  0.34104941  0.82924188  0.37894059  1
  In  In47  1  0.33643343  0.84332874  0.87576784  1
  In  In48  1  0.67517767  0.15747083  0.38819096  1
  In  In49  1  0.64432721  0.15534951  0.84706367  1
  In  In50  1  0.65454653  0.50278929  0.37197133  1
  In  In51  1  0.67220445  0.48962684  0.87395396  1
  In  In52  1  0.66413077  0.83132316  0.37844432  1
  In  In53  1  0.66280873  0.84282456  0.88269437  1
  In  In54  1  0.16481827  -0.00705849  0.12057734  1
  In  In55  1  0.16478552  -0.00644476  0.62845697  1
  In  In56  1  0.17731624  0.33020309  0.12599564  1
  In  In57  1  0.16583092  0.31128859  0.62490072  1
  In  In58  1  0.15227983  0.67871677  0.14169624  1
  In  In59  1  0.16948607  0.68847650  0.62713996  1
  In  In60  1  0.51332077  0.00585440  0.13164655  1
  In  In61  1  0.50347366  0.00174072  0.62430044  1
  In  In62  1  0.48414214  0.32114806  0.12551344  1
  In  In63  1  0.51323865  0.32551838  0.62954905  1
  In  In64  1  0.48842326  0.67935931  0.13020748  1
  In  In65  1  0.49205482  0.66387095  0.62344682  1
  In  In66  1  0.84213321  -0.01088159  0.13453336  1
  In  In67  1  0.83332846  -0.00191423  0.62518762  1
  In  In68  1  0.82842119  0.33320807  0.12459214  1
  In  In69  1  0.85151685  0.32218136  0.63554884  1
  In  In70  1  0.82145898  0.68477486  0.13604764  1
  In  In71  1  0.82429455  0.67990838  0.62134900  1
  In  In72  1  0.84284740  0.50661314  -0.00801832  1
  In  In73  1  0.83163955  0.50134359  0.49803029  1
  In  In74  1  0.00015914  0.33855041  0.24876107  1
  In  In75  1  0.83330407  0.16420358  -0.00580041  1
  In  In76  1  0.66285624  0.33766052  0.24997342  1
  In  In77  1  0.33052659  0.33267754  0.74848338  1
  In  In78  1  0.33458537  0.00225381  0.25637835  1
  In  In79  1  0.49373091  0.15836354  -0.00197778  1
  In  In80  1  0.16669885  0.50821952  -0.00095782  1
  In  In81  1  0.49833666  0.50333028  0.00441408  1
  In  In82  1  0.16796551  0.49943354  0.49006289  1
  In  In83  1  0.66239708  0.66693955  0.74463761  1
  In  In84  1  0.49790588  0.50214730  0.50050877  1
  In  In85  1  0.00042451  0.66682615  0.75305689  1
  Cu  Cu86  1  0.00370500  -0.00640267  0.00166204  1
  Cu  Cu87  1  0.66927911  0.67951873  0.00472758  1
  Cu  Cu88  1  0.83752921  0.51512543  0.24878123  1
  Cu  Cu89  1  0.50060691  0.83342248  0.25435583  1
  Cu  Cu90  1  0.50016719  0.50379932  0.24640745  1
  Cu  Cu91  1  -0.00020235  0.67916597  0.49746842  1
  Cu  Cu92  1  -0.00426175  -0.00080540  0.50297158  1
  Cu  Cu93  1  0.83156079  0.83902424  0.25440703  1
  Cu  Cu94  1  0.00086764  0.32562285  -0.00577962  1
  Cu  Cu95  1  0.00428617  0.32007494  0.50380442  1
  Cu  Cu96  1  0.67018648  -0.00312419  0.00163988  1
  Cu  Cu97  1  0.33052941  -0.00355354  -0.00188518  1
  Cu  Cu98  1  -0.00343831  0.67816331  0.00649039  1
  Cu  Cu99  1  0.67313858  0.32540848  0.50812207  1
  Cu  Cu100  1  0.16243057  0.84316505  0.25072547  1
  Cu  Cu101  1  0.49716147  0.83702364  0.74720035  1
  Cu  Cu102  1  0.83174108  0.16154458  0.25684002  1
  Cu  Cu103  1  0.16271823  0.16156076  0.74958084  1
  Cu  Cu104  1  0.33218212  0.32538182  0.00331691  1
  Cu  Cu105  1  0.83291648  0.15887841  0.74523436  1
  Cu  Cu106  1  0.33286949  0.67086202  0.49741701  1
  Cu  Cu107  1  0.16203772  0.50078738  0.74849641  1
  Cu  Cu108  1  0.49664069  0.50617462  0.75090395  1
  Cu  Cu109  1  0.83386866  0.83441236  0.74729941  1
  Cu  Cu110  1  0.33363757  0.32481657  0.50016819  1
  Cu  Cu111  1  0.66483026  0.32525834  -0.01046108  1
  Cu  Cu112  1  0.33334827  -0.00551775  0.50088843  1
  Cu  Cu113  1  0.33575532  0.67789112  -0.00183673  1
  Cu  Cu114  1  0.66806010  -0.00365240  0.50224002  1
  Se  Se115  1  0.08455374  0.08166879  0.05196869  1
  Se  Se116  1  0.08368095  0.07759481  0.55779785  1
  Se  Se117  1  0.07726194  0.40975530  0.05463884  1
  Se  Se118  1  0.08258316  0.40981364  0.55739492  1
  Se  Se119  1  0.08686216  0.75235688  0.05997709  1
  Se  Se120  1  0.08929883  0.75555853  0.54978260  1
  Se  Se121  1  0.40698452  0.07345048  0.06451964  1
  Se  Se122  1  0.41809036  0.07935134  0.55189759  1
  Se  Se123  1  0.40262288  0.41475667  0.06113790  1
  Se  Se124  1  0.41073266  0.40714712  0.56087954  1
  Se  Se125  1  0.42132219  0.75806421  0.05149670  1
  Se  Se126  1  0.41494844  0.74937451  0.55491853  1
  Se  Se127  1  0.74776613  0.07943201  0.06186418  1
  Se  Se128  1  0.75318204  0.08010538  0.55393531  1
  Se  Se129  1  0.74583510  0.40852824  0.04619011  1
  Se  Se130  1  0.75051132  0.41150355  0.56486469  1
  Se  Se131  1  0.75339061  0.76114101  0.05717365  1
  Se  Se132  1  0.74681981  0.74172230  0.54325363  1
  Se  Se133  1  0.25087675  0.24183396  0.05668500  1
  Se  Se134  1  0.24503026  0.24271488  0.54858524  1
  Se  Se135  1  0.25480707  0.59825429  0.05856101  1
  Se  Se136  1  0.25375466  0.58736427  0.55644921  1
  Se  Se137  1  0.24714990  0.91283744  0.05055783  1
  Se  Se138  1  0.24946622  0.91491595  0.55719267  1
  Se  Se139  1  0.58772948  0.25311262  0.05651830  1
  Se  Se140  1  0.58357045  0.24376461  0.55529080  1
  Se  Se141  1  0.59157210  0.59302805  0.06150564  1
  Se  Se142  1  0.59216503  0.59473494  0.55345312  1
  Se  Se143  1  0.58207109  0.92179521  0.05702577  1
  Se  Se144  1  0.57988205  0.91475901  0.55274154  1
  Se  Se145  1  0.92116272  0.25316851  0.05922069  1
  Se  Se146  1  0.91842095  0.24234035  0.55785947  1
  Se  Se147  1  0.91892529  0.59287522  0.06411913  1
  Se  Se148  1  0.92537835  0.59255233  0.55686018  1
  Se  Se149  1  0.91607828  0.91684983  0.05607978  1
  Se  Se150  1  0.91174049  0.91289235  0.55342238  1
  Se  Se151  1  0.08747753  0.24265547  0.44698180  1
  Se  Se152  1  0.08726086  0.24287547  0.94583714  1
  Se  Se153  1  0.07758928  0.59603216  0.43767049  1
  Se  Se154  1  0.07255095  0.59892542  0.94107709  1
  Se  Se155  1  0.08151568  0.92031812  0.44713323  1
  Se  Se156  1  0.08588273  0.90858285  0.94888447  1
  Se  Se157  1  0.42149950  0.24455024  0.44982670  1
  Se  Se158  1  0.40216097  0.24475909  0.93861942  1
  Se  Se159  1  0.40939356  0.58757293  0.43662441  1
  Se  Se160  1  0.41068577  0.59104682  0.93925466  1
  Se  Se161  1  0.41829525  0.90918183  0.45166610  1
  Se  Se162  1  0.42329035  0.92215249  0.94522356  1
  Se  Se163  1  0.75841660  0.24497510  0.45467866  1
  Se  Se164  1  0.73735290  0.24109256  0.93001907  1
  Se  Se165  1  0.74315325  0.58742930  0.43650767  1
  Se  Se166  1  0.73986375  0.59535498  0.94105005  1
  Se  Se167  1  0.74943766  0.91388293  0.44626359  1
  Se  Se168  1  0.75651735  0.91678198  0.94887288  1
  Se  Se169  1  0.25036341  0.07984114  0.44859255  1
  Se  Se170  1  0.25170108  0.08541772  0.94576011  1
  Se  Se171  1  0.26009432  0.40637630  0.43650762  1
  Se  Se172  1  0.25391767  0.40871306  0.94264379  1
  Se  Se173  1  0.24712587  0.75188538  0.44459732  1
  Se  Se174  1  0.25143587  0.75665381  0.94215218  1
  Se  Se175  1  0.58237408  0.08095794  0.45251358  1
  Se  Se176  1  0.59337541  0.07795877  0.93878371  1
  Se  Se177  1  0.59375323  0.40642254  0.44696169  1
  Se  Se178  1  0.57703535  0.40748082  0.93884772  1
  Se  Se179  1  0.57303655  0.75097553  0.44290534  1
  Se  Se180  1  0.58210273  0.75974379  0.95276213  1
  Se  Se181  1  0.91268662  0.08238937  0.44891010  1
  Se  Se182  1  0.92450409  0.07258687  0.93847643  1
  Se  Se183  1  0.92736609  0.40532710  0.44438175  1
  Se  Se184  1  0.92031869  0.40299921  0.93420851  1
  Se  Se185  1  0.91290036  0.75753793  0.44508366  1
  Se  Se186  1  0.91191310  0.75667472  0.95089379  1
  Se  Se187  1  0.26511030  0.24858574  0.30258281  1
  Se  Se188  1  0.24973203  0.23702773  0.81041754  1
  Se  Se189  1  0.24489616  0.58068136  0.29823847  1
  Se  Se190  1  0.24738921  0.58543106  0.79743287  1
  Se  Se191  1  0.24239257  0.91538142  0.31637240  1
  Se  Se192  1  0.27411335  0.95303219  0.81273692  1
  Se  Se193  1  0.58889317  0.24929614  0.31886581  1
  Se  Se194  1  0.59783374  0.27339438  0.79272297  1
  Se  Se195  1  0.58413536  0.58584143  0.29884800  1
  Se  Se196  1  0.57609292  0.58228147  0.81498441  1
  Se  Se197  1  0.58400100  0.91567235  0.30695543  1
  Se  Se198  1  0.58558564  0.91179142  0.80366272  1
  Se  Se199  1  0.91125280  0.24862390  0.31082286  1
  Se  Se200  1  0.91488348  0.24270406  0.80050026  1
  Se  Se201  1  0.92184962  0.59317953  0.30322871  1
  Se  Se202  1  0.90643547  0.57392172  0.80849350  1
  Se  Se203  1  0.91710095  0.92177936  0.30619635  1
  Se  Se204  1  0.91481734  0.91344842  0.80608345  1
  Se  Se205  1  0.08561171  0.09275432  0.30242499  1
  Se  Se206  1  0.08245104  0.07783398  0.80663387  1
  Se  Se207  1  0.08997973  0.41961669  0.31440526  1
  Se  Se208  1  0.08459942  0.41385924  0.80164889  1
  Se  Se209  1  0.08176358  0.75723687  0.30513010  1
  Se  Se210  1  0.09061350  0.76070090  0.80746489  1
  Se  Se211  1  0.42557696  0.08224480  0.32018644  1
  Se  Se212  1  0.45440942  0.11854821  0.81129362  1
  Se  Se213  1  0.42461558  0.41743643  0.30262526  1
  Se  Se214  1  0.42058076  0.42252899  0.81233331  1
  Se  Se215  1  0.40899424  0.75040877  0.29951031  1
  Se  Se216  1  0.41432733  0.75696814  0.80421033  1
  Se  Se217  1  0.74683075  0.08154748  0.30990151  1
  Se  Se218  1  0.74652891  0.07568736  0.79582470  1
  Se  Se219  1  0.76030530  0.42818893  0.30706365  1
  Se  Se220  1  0.74824849  0.42178029  0.79759077  1
  Se  Se221  1  0.74758038  0.75313678  0.30492862  1
  Se  Se222  1  0.75266233  0.75523360  0.80804348  1
  Se  Se223  1  0.24279460  0.08423051  0.19255535  1
  Se  Se224  1  0.24828162  0.08225922  0.69537167  1
  Se  Se225  1  0.24991190  0.40794477  0.19945249  1
  Se  Se226  1  0.24084391  0.42218288  0.68508539  1
  Se  Se227  1  0.24918307  0.76070553  0.19835624  1
  Se  Se228  1  0.25929487  0.74959305  0.69813310  1
  Se  Se229  1  0.57613712  0.08856198  0.20853784  1
  Se  Se230  1  0.59052612  0.07522858  0.69480977  1
  Se  Se231  1  0.57570525  0.42371638  0.18196702  1
  Se  Se232  1  0.57757267  0.42633672  0.69435287  1
  Se  Se233  1  0.58249144  0.75323360  0.19531280  1
  Se  Se234  1  0.57842458  0.76006967  0.68508172  1
  Se  Se235  1  0.91601218  0.08105832  0.20219617  1
  Se  Se236  1  0.91904094  0.07380946  0.69679105  1
  Se  Se237  1  0.90937404  0.43050706  0.18587570  1
  Se  Se238  1  0.91934369  0.41709123  0.70251777  1
  Se  Se239  1  0.91719343  0.75680315  0.19967167  1
  Se  Se240  1  0.91644239  0.75649724  0.68851305  1
  Se  Se241  1  0.08431293  0.24441041  0.18978971  1
  Se  Se242  1  0.07924506  0.24632871  0.69863400  1
  Se  Se243  1  0.09297753  0.57499802  0.20483136  1
  Se  Se244  1  0.08661740  0.58010051  0.68436566  1
  Se  Se245  1  0.08017955  0.92340427  0.19517310  1
  Se  Se246  1  0.08350694  0.91316410  0.69950888  1
  Se  Se247  1  0.43321665  0.23457886  0.20301425  1
  Se  Se248  1  0.41221269  0.24276716  0.68473646  1
  Se  Se249  1  0.41397403  0.58658222  0.19553165  1
  Se  Se250  1  0.41400064  0.59153225  0.70123000  1
  Se  Se251  1  0.42023812  0.91228469  0.19152242  1
  Se  Se252  1  0.41619137  0.92273366  0.69423284  1
  Se  Se253  1  0.75416587  0.24028173  0.19285740  1
  Se  Se254  1  0.75170852  0.24440174  0.69201792  1
  Se  Se255  1  0.74439597  0.58923298  0.19838945  1
  Se  Se256  1  0.76178350  0.57920235  0.69162476  1
  Se  Se257  1  0.74543371  0.92063253  0.20015241  1
  Se  Se258  1  0.74755363  0.91197796  0.69191700  1
