# generated using pymatgen
data_In86Cu29Se144
_symmetry_space_group_name_H-M   'P 1'
_cell_length_a   17.58254604
_cell_length_b   17.58487961
_cell_length_c   23.43702252
_cell_angle_alpha   89.99521247
_cell_angle_beta   89.97826426
_cell_angle_gamma   89.99318294
_symmetry_Int_Tables_number   1
_chemical_formula_structural   In86Cu29Se144
_chemical_formula_sum   'In86 Cu29 Se144'
_cell_volume   7246.42103680
_cell_formula_units_Z   1
loop_
 _symmetry_equiv_pos_site_id
 _symmetry_equiv_pos_as_xyz
  1  'x, y, z'
loop_
 _atom_site_type_symbol
 _atom_site_label
 _atom_site_symmetry_multiplicity
 _atom_site_fract_x
 _atom_site_fract_y
 _atom_site_fract_z
 _atom_site_occupancy
  In  In0  1  -0.00287520  0.18327541  0.13357065  1
  In  In1  1  -0.00128820  0.17025457  0.60510127  1
  In  In2  1  -0.00268463  0.50066495  0.12774843  1
  In  In3  1  0.00336832  0.51668127  0.62534251  1
  In  In4  1  -0.00310715  0.81933776  0.13067087  1
  In  In5  1  -0.00994705  0.82399442  0.61332884  1
  In  In6  1  0.32961393  0.15957895  0.13505326  1
  In  In7  1  0.34637812  0.19308454  0.59410590  1
  In  In8  1  0.33711638  0.50356227  0.11667826  1
  In  In9  1  0.33978823  0.48993906  0.61797350  1
  In  In10  1  0.34218601  0.83915609  0.12229200  1
  In  In11  1  0.33786223  0.83569017  0.61750476  1
  In  In12  1  0.67670684  0.15324983  0.14826201  1
  In  In13  1  0.67217204  0.17305486  0.61720487  1
  In  In14  1  0.66368754  0.50915951  0.13106400  1
  In  In15  1  0.66776312  0.49969992  0.62156157  1
  In  In16  1  0.65638006  0.83982618  0.13667209  1
  In  In17  1  0.66130012  0.82683290  0.61476673  1
  In  In18  1  0.17043031  -0.00400040  0.37431806  1
  In  In19  1  0.15670450  -0.00797057  0.87956937  1
  In  In20  1  0.15147000  0.33173595  0.37783262  1
  In  In21  1  0.17799375  0.33172558  0.87739219  1
  In  In22  1  0.16496574  0.67832040  0.37757724  1
  In  In23  1  0.16364191  0.66898614  0.87837859  1
  In  In24  1  0.50094345  0.00128213  0.36912043  1
  In  In25  1  0.49220903  -0.00016912  0.87567701  1
  In  In26  1  0.52183748  0.31260852  0.39087208  1
  In  In27  1  0.52049523  0.33546718  0.87058529  1
  In  In28  1  0.51588027  0.65484561  0.38510379  1
  In  In29  1  0.50702910  0.65975096  0.88033952  1
  In  In30  1  0.81759158  0.01099414  0.37454235  1
  In  In31  1  0.84111630  0.00205304  0.88178461  1
  In  In32  1  0.83311876  0.33169618  0.37353119  1
  In  In33  1  0.81837666  0.33651017  0.87436731  1
  In  In34  1  0.83088079  0.66539254  0.37222762  1
  In  In35  1  0.83041685  0.66342734  0.86433831  1
  In  In36  1  -0.02238925  0.19466238  0.39523730  1
  In  In37  1  -0.00263823  0.15271659  0.87780439  1
  In  In38  1  -0.01838522  0.47782553  0.36796154  1
  In  In39  1  0.00407329  0.51270801  0.87090273  1
  In  In40  1  0.00274264  0.82649370  0.37471503  1
  In  In41  1  0.01083557  0.83223740  0.87888078  1
  In  In42  1  0.35229387  0.15437143  0.38779198  1
  In  In43  1  0.33673413  0.16134081  0.87311919  1
  In  In44  1  0.34045277  0.50542342  0.38101136  1
  In  In45  1  0.33077921  0.50349518  0.88314001  1
  In  In46  1  0.32868597  0.84430708  0.38001499  1
  In  In47  1  0.33410996  0.83439260  0.88314720  1
  In  In48  1  0.66408586  0.16719003  0.36172493  1
  In  In49  1  0.66867425  0.18206991  0.87421779  1
  In  In50  1  0.67225206  0.50058519  0.37419078  1
  In  In51  1  0.66126816  0.49559551  0.86748153  1
  In  In52  1  0.66985497  0.82886018  0.37457148  1
  In  In53  1  0.67222479  0.82046629  0.87672549  1
  In  In54  1  0.18111757  0.00001750  0.13084480  1
  In  In55  1  0.16967752  -0.00044969  0.61637687  1
  In  In56  1  0.15611784  0.34010947  0.12703016  1
  In  In57  1  0.17245180  0.33520375  0.61753995  1
  In  In58  1  0.15869177  0.65857858  0.11943428  1
  In  In59  1  0.14713414  0.66052144  0.62562149  1
  In  In60  1  0.50935377  -0.00810982  0.14162931  1
  In  In61  1  0.50372957  0.00566851  0.61340779  1
  In  In62  1  0.50377921  0.34060244  0.12666843  1
  In  In63  1  0.50860663  0.34320149  0.61406841  1
  In  In64  1  0.50101274  0.66746179  0.12124972  1
  In  In65  1  0.51025734  0.67350835  0.61736475  1
  In  In66  1  0.81597175  0.00133650  0.13941026  1
  In  In67  1  0.83878741  0.00417056  0.60881456  1
  In  In68  1  0.83552029  0.32329224  0.13750407  1
  In  In69  1  0.82419551  0.32144983  0.61249230  1
  In  In70  1  0.82975490  0.68112928  0.14552790  1
  In  In71  1  0.83225899  0.66428858  0.62133840  1
  In  In72  1  -0.00275215  0.00635633  0.26213240  1
  In  In73  1  0.82950612  0.83639490  0.01093874  1
  In  In74  1  0.34024431  0.34098672  0.73448635  1
  In  In75  1  0.33282765  0.67141830  0.25461793  1
  In  In76  1  0.33433773  0.66716182  0.75341965  1
  In  In77  1  0.33790969  0.33027673  0.25517962  1
  In  In78  1  0.67211255  -0.00120423  0.73805265  1
  In  In79  1  0.16566571  0.17068307  0.00668593  1
  In  In80  1  -0.00283642  -0.00503556  0.75035633  1
  In  In81  1  0.83411936  0.49988913  0.00226256  1
  In  In82  1  0.16173257  0.50255772  0.50323368  1
  In  In83  1  0.33436694  0.00546206  0.74992094  1
  In  In84  1  0.50122096  0.16870897  0.00097349  1
  In  In85  1  -0.00357157  0.33840044  0.74741267  1
  Cu  Cu86  1  0.16780195  0.16555928  0.25693258  1
  Cu  Cu87  1  0.82711568  0.49963662  0.74398086  1
  Cu  Cu88  1  0.51038925  0.83160578  0.74568469  1
  Cu  Cu89  1  -0.00404365  0.66533996  0.49614348  1
  Cu  Cu90  1  0.65782326  0.66417548  0.00193680  1
  Cu  Cu91  1  0.50598082  0.49821824  0.25526758  1
  Cu  Cu92  1  0.66850879  0.33225569  0.00016791  1
  Cu  Cu93  1  0.83491808  0.82039395  0.74258058  1
  Cu  Cu94  1  0.66049794  0.00291074  0.01505399  1
  Cu  Cu95  1  0.67001926  0.33589804  0.49350191  1
  Cu  Cu96  1  0.16544979  0.83246169  0.25261910  1
  Cu  Cu97  1  0.83014591  0.16970245  0.74317848  1
  Cu  Cu98  1  -0.00454808  0.33755902  0.00777720  1
  Cu  Cu99  1  0.34026077  0.67263124  0.49799778  1
  Cu  Cu100  1  0.66390244  0.00298365  0.49062242  1
  Cu  Cu101  1  0.15828216  0.50135308  0.24839615  1
  Cu  Cu102  1  0.17412371  0.16675703  0.73762994  1
  Cu  Cu103  1  0.49980477  0.83006857  0.25471180  1
  Cu  Cu104  1  0.83650537  0.49842654  0.25252662  1
  Cu  Cu105  1  0.33682387  -0.00770792  0.00542724  1
  Cu  Cu106  1  0.33727892  0.34230022  0.00108248  1
  Cu  Cu107  1  -0.00204371  0.00257369  0.00393740  1
  Cu  Cu108  1  -0.00172323  0.66893261  0.00085951  1
  Cu  Cu109  1  0.16002950  0.82542023  0.74967695  1
  Cu  Cu110  1  0.33625359  -0.00319410  0.49595131  1
  Cu  Cu111  1  0.00198980  -0.00818628  0.48850363  1
  Cu  Cu112  1  0.32988010  0.67119120  0.00030549  1
  Cu  Cu113  1  0.67288880  0.66321994  0.49745774  1
  Cu  Cu114  1  0.50447210  0.50104086  0.74744886  1
  Se  Se115  1  0.07763449  0.08051858  0.06742736  1
  Se  Se116  1  0.08008216  0.07363225  0.54834841  1
  Se  Se117  1  0.08114276  0.42320131  0.05471415  1
  Se  Se118  1  0.06817555  0.41122949  0.55930535  1
  Se  Se119  1  0.08099035  0.75281237  0.05435782  1
  Se  Se120  1  0.08421366  0.74601328  0.54911891  1
  Se  Se121  1  0.41477775  0.07716438  0.06339932  1
  Se  Se122  1  0.42145283  0.08545969  0.54337580  1
  Se  Se123  1  0.42563709  0.42005315  0.05327886  1
  Se  Se124  1  0.40176478  0.39784293  0.54825555  1
  Se  Se125  1  0.41702669  0.75017907  0.05399235  1
  Se  Se126  1  0.42447814  0.75607644  0.55107738  1
  Se  Se127  1  0.74660555  0.08559684  0.06414066  1
  Se  Se128  1  0.74705085  0.08477063  0.54768024  1
  Se  Se129  1  0.74670818  0.41160631  0.06343315  1
  Se  Se130  1  0.74987021  0.41898633  0.55040741  1
  Se  Se131  1  0.73890267  0.74099700  0.06406573  1
  Se  Se132  1  0.75428248  0.74995069  0.55070694  1
  Se  Se133  1  0.26138925  0.26057668  0.06381245  1
  Se  Se134  1  0.22422189  0.23887328  0.54485380  1
  Se  Se135  1  0.24863208  0.58315743  0.05153174  1
  Se  Se136  1  0.25776221  0.59463660  0.56087776  1
  Se  Se137  1  0.24656194  0.91371433  0.05577834  1
  Se  Se138  1  0.25166195  0.91404768  0.54994589  1
  Se  Se139  1  0.59349007  0.25016811  0.06318506  1
  Se  Se140  1  0.58614517  0.25190432  0.54810975  1
  Se  Se141  1  0.57930486  0.57645296  0.05453068  1
  Se  Se142  1  0.58505545  0.58198741  0.55100804  1
  Se  Se143  1  0.57713954  0.91514571  0.06117648  1
  Se  Se144  1  0.58556001  0.91882908  0.54899438  1
  Se  Se145  1  0.91353345  0.25192833  0.05791298  1
  Se  Se146  1  0.90703163  0.24454041  0.54206177  1
  Se  Se147  1  0.91225317  0.59862471  0.06355295  1
  Se  Se148  1  0.91554799  0.58160076  0.55131619  1
  Se  Se149  1  0.92077549  0.92637941  0.06916190  1
  Se  Se150  1  0.91584823  0.91235597  0.54456169  1
  Se  Se151  1  0.09047785  0.24644547  0.45544740  1
  Se  Se152  1  0.07343033  0.25673005  0.94263701  1
  Se  Se153  1  0.07493884  0.58390238  0.43518707  1
  Se  Se154  1  0.08117810  0.58465805  0.94801748  1
  Se  Se155  1  0.08972025  0.90807257  0.44148871  1
  Se  Se156  1  0.08085399  0.91556876  0.95423240  1
  Se  Se157  1  0.40581220  0.26526906  0.44836830  1
  Se  Se158  1  0.41136378  0.25984097  0.93855449  1
  Se  Se159  1  0.42198999  0.58170267  0.45270141  1
  Se  Se160  1  0.41529703  0.58676337  0.94804138  1
  Se  Se161  1  0.42458534  0.91684781  0.44392579  1
  Se  Se162  1  0.42244152  0.91524381  0.94888427  1
  Se  Se163  1  0.74361306  0.24689811  0.43712743  1
  Se  Se164  1  0.75432873  0.24837990  0.94947281  1
  Se  Se165  1  0.75645159  0.57900299  0.44549368  1
  Se  Se166  1  0.74374834  0.58912899  0.94107858  1
  Se  Se167  1  0.74955041  0.91623462  0.44381552  1
  Se  Se168  1  0.73987232  0.92581052  0.94733790  1
  Se  Se169  1  0.24975412  0.07946451  0.44546147  1
  Se  Se170  1  0.25607212  0.07528252  0.94553280  1
  Se  Se171  1  0.24953837  0.41540346  0.44056741  1
  Se  Se172  1  0.24608639  0.41860288  0.94972442  1
  Se  Se173  1  0.25211205  0.75212460  0.44692301  1
  Se  Se174  1  0.24525405  0.75343662  0.94653417  1
  Se  Se175  1  0.58334550  0.08772171  0.43684308  1
  Se  Se176  1  0.59299580  0.07765681  0.94064594  1
  Se  Se177  1  0.58463665  0.42410915  0.44605345  1
  Se  Se178  1  0.58846939  0.41811042  0.94621999  1
  Se  Se179  1  0.58751010  0.75125238  0.44955305  1
  Se  Se180  1  0.58154861  0.75329261  0.94761541  1
  Se  Se181  1  0.91349506  0.07859221  0.44423049  1
  Se  Se182  1  0.91347375  0.08696460  0.95423966  1
  Se  Se183  1  0.91316849  0.40965914  0.44857342  1
  Se  Se184  1  0.92316301  0.41240536  0.93739137  1
  Se  Se185  1  0.91372158  0.74903575  0.44252652  1
  Se  Se186  1  0.91285389  0.74642368  0.94178175  1
  Se  Se187  1  0.24866767  0.24500047  0.31766384  1
  Se  Se188  1  0.25179830  0.24480924  0.80055351  1
  Se  Se189  1  0.24145528  0.57537158  0.31027835  1
  Se  Se190  1  0.24326117  0.57548648  0.80858800  1
  Se  Se191  1  0.25127618  0.91565901  0.30186190  1
  Se  Se192  1  0.24152571  0.90951504  0.80669063  1
  Se  Se193  1  0.57656509  0.25618182  0.30011387  1
  Se  Se194  1  0.58497368  0.24649228  0.79943694  1
  Se  Se195  1  0.58878772  0.58599585  0.30441056  1
  Se  Se196  1  0.58341871  0.58768883  0.80214717  1
  Se  Se197  1  0.58624414  0.91327222  0.30508921  1
  Se  Se198  1  0.58472291  0.91476236  0.80861391  1
  Se  Se199  1  0.92300275  0.25438055  0.30514770  1
  Se  Se200  1  0.91224218  0.24130311  0.80918982  1
  Se  Se201  1  0.92025908  0.58282356  0.30516845  1
  Se  Se202  1  0.91326623  0.57824858  0.79896327  1
  Se  Se203  1  0.90668218  0.91248981  0.31438019  1
  Se  Se204  1  0.90555884  0.90229549  0.80943148  1
  Se  Se205  1  0.08256040  0.09859895  0.32182719  1
  Se  Se206  1  0.09681184  0.08999587  0.80318779  1
  Se  Se207  1  0.08136411  0.41190773  0.30096445  1
  Se  Se208  1  0.09282680  0.41774076  0.80936281  1
  Se  Se209  1  0.08271921  0.74604963  0.30097269  1
  Se  Se210  1  0.07846609  0.74542123  0.80555267  1
  Se  Se211  1  0.41216933  0.08328511  0.30389281  1
  Se  Se212  1  0.43324446  0.09785845  0.80151391  1
  Se  Se213  1  0.42654804  0.41987230  0.31544744  1
  Se  Se214  1  0.42120026  0.42455031  0.80872599  1
  Se  Se215  1  0.42462750  0.75092170  0.31903942  1
  Se  Se216  1  0.42587099  0.76061897  0.80937212  1
  Se  Se217  1  0.74658001  0.08139443  0.29450542  1
  Se  Se218  1  0.75958968  0.08398896  0.80710242  1
  Se  Se219  1  0.75054920  0.41577014  0.30394835  1
  Se  Se220  1  0.74635608  0.41454547  0.79890351  1
  Se  Se221  1  0.73567167  0.73432097  0.30482961  1
  Se  Se222  1  0.74550953  0.74712389  0.79835980  1
  Se  Se223  1  0.25151275  0.08000101  0.20745296  1
  Se  Se224  1  0.25803611  0.09225445  0.67859769  1
  Se  Se225  1  0.24977437  0.42562512  0.19271893  1
  Se  Se226  1  0.23690436  0.43199677  0.69045722  1
  Se  Se227  1  0.24391944  0.75361371  0.18835882  1
  Se  Se228  1  0.24703425  0.75485672  0.68853216  1
  Se  Se229  1  0.57926569  0.08127912  0.20934393  1
  Se  Se230  1  0.57854307  0.09145156  0.68719235  1
  Se  Se231  1  0.58642108  0.41805470  0.19787626  1
  Se  Se232  1  0.58360235  0.41679938  0.69184885  1
  Se  Se233  1  0.57596142  0.74401635  0.19725651  1
  Se  Se234  1  0.59068938  0.74747076  0.69302513  1
  Se  Se235  1  0.91033037  0.09357216  0.19696966  1
  Se  Se236  1  0.91523347  0.08990638  0.68728852  1
  Se  Se237  1  0.91967858  0.41575403  0.19713375  1
  Se  Se238  1  0.90624060  0.41972726  0.68299262  1
  Se  Se239  1  0.92207062  0.75416075  0.20997136  1
  Se  Se240  1  0.92322522  0.74224432  0.69092579  1
  Se  Se241  1  0.09093520  0.25220997  0.20125218  1
  Se  Se242  1  0.08364329  0.24349457  0.68595310  1
  Se  Se243  1  0.07847402  0.58756346  0.19571823  1
  Se  Se244  1  0.08228469  0.58222726  0.70355910  1
  Se  Se245  1  0.08491460  0.91734637  0.19446567  1
  Se  Se246  1  0.08673992  0.90944036  0.68755904  1
  Se  Se247  1  0.42726170  0.24216636  0.19308150  1
  Se  Se248  1  0.42620146  0.24349107  0.68181458  1
  Se  Se249  1  0.41976310  0.57555989  0.19649922  1
  Se  Se250  1  0.42171779  0.57947470  0.68783700  1
  Se  Se251  1  0.41265140  0.91205714  0.20229212  1
  Se  Se252  1  0.42721846  0.91411609  0.69108915  1
  Se  Se253  1  0.73147082  0.26804054  0.20242091  1
  Se  Se254  1  0.74690904  0.25362997  0.69287288  1
  Se  Se255  1  0.75066046  0.58246638  0.20189678  1
  Se  Se256  1  0.74615145  0.58612520  0.69186886  1
  Se  Se257  1  0.76223565  0.89401062  0.20034376  1
  Se  Se258  1  0.76578692  0.90899750  0.68215548  1
