# generated using pymatgen
data_In86Cu29Se144
_symmetry_space_group_name_H-M   'P 1'
_cell_length_a   17.58368064
_cell_length_b   17.58525638
_cell_length_c   23.43861250
_cell_angle_alpha   90.00194600
_cell_angle_beta   89.99006229
_cell_angle_gamma   90.00517151
_symmetry_Int_Tables_number   1
_chemical_formula_structural   In86Cu29Se144
_chemical_formula_sum   'In86 Cu29 Se144'
_cell_volume   7247.53601679
_cell_formula_units_Z   1
loop_
 _symmetry_equiv_pos_site_id
 _symmetry_equiv_pos_as_xyz
  1  'x, y, z'
loop_
 _atom_site_type_symbol
 _atom_site_label
 _atom_site_symmetry_multiplicity
 _atom_site_fract_x
 _atom_site_fract_y
 _atom_site_fract_z
 _atom_site_occupancy
  In  In0  1  0.01083329  0.17139544  0.11456136  1
  In  In1  1  0.00093700  0.16547242  0.63234549  1
  In  In2  1  0.02065211  0.48214170  0.14819854  1
  In  In3  1  -0.00267658  0.50242119  0.64203685  1
  In  In4  1  -0.00576367  0.81576059  0.12502541  1
  In  In5  1  0.01037257  0.82753683  0.62689107  1
  In  In6  1  0.31321054  0.18361787  0.13765290  1
  In  In7  1  0.32717185  0.17103368  0.62494410  1
  In  In8  1  0.31598181  0.50850543  0.14188680  1
  In  In9  1  0.33290920  0.48978217  0.63762341  1
  In  In10  1  0.33710800  0.82988439  0.13264284  1
  In  In11  1  0.32487356  0.84349926  0.62738013  1
  In  In12  1  0.67471216  0.15767650  0.12484123  1
  In  In13  1  0.67049548  0.18753761  0.60455874  1
  In  In14  1  0.67575375  0.50406912  0.12950864  1
  In  In15  1  0.67513716  0.50078730  0.61016301  1
  In  In16  1  0.66242572  0.83180703  0.13278061  1
  In  In17  1  0.66209586  0.82134093  0.62178160  1
  In  In18  1  0.17136520  -0.01016499  0.38328476  1
  In  In19  1  0.17873855  0.01486974  0.87151790  1
  In  In20  1  0.15466074  0.33216344  0.36475371  1
  In  In21  1  0.16292573  0.32687790  0.87013331  1
  In  In22  1  0.17466617  0.66636425  0.37146703  1
  In  In23  1  0.15591583  0.65078085  0.86089951  1
  In  In24  1  0.49963518  0.01465325  0.37905305  1
  In  In25  1  0.48347413  0.00513530  0.86787929  1
  In  In26  1  0.49088241  0.34285501  0.38992312  1
  In  In27  1  0.49541253  0.33575446  0.86707609  1
  In  In28  1  0.49475996  0.66021839  0.37526467  1
  In  In29  1  0.49132625  0.65968060  0.86850438  1
  In  In30  1  0.84154531  0.01147298  0.37812549  1
  In  In31  1  0.85389172  0.01333057  0.85782276  1
  In  In32  1  0.84514834  0.32849626  0.38480286  1
  In  In33  1  0.84002417  0.32164775  0.86464607  1
  In  In34  1  0.82328584  0.66212491  0.36944470  1
  In  In35  1  0.83841762  0.66121338  0.85938454  1
  In  In36  1  -0.00485396  0.17576455  0.38381838  1
  In  In37  1  0.00185053  0.17509360  0.86751105  1
  In  In38  1  0.00244479  0.49196377  0.36698571  1
  In  In39  1  0.01079390  0.50546367  0.85393206  1
  In  In40  1  0.00910838  0.83861929  0.37760639  1
  In  In41  1  -0.00602909  0.82571320  0.86975599  1
  In  In42  1  0.32606202  0.16478123  0.37665086  1
  In  In43  1  0.33642724  0.15384674  0.85969399  1
  In  In44  1  0.33283363  0.50710403  0.36796324  1
  In  In45  1  0.30348320  0.47648127  0.84696715  1
  In  In46  1  0.32299531  0.82498385  0.37308585  1
  In  In47  1  0.32759745  0.83085314  0.87001902  1
  In  In48  1  0.66429010  0.18135190  0.39370080  1
  In  In49  1  0.67251731  0.17920546  0.86969271  1
  In  In50  1  0.65502989  0.49997831  0.39381821  1
  In  In51  1  0.65948173  0.50266246  0.86947260  1
  In  In52  1  0.67321433  0.81670074  0.37504566  1
  In  In53  1  0.68101248  0.82851041  0.87229232  1
  In  In54  1  0.16080828  0.01492442  0.12480761  1
  In  In55  1  0.16478697  0.00190091  0.62507784  1
  In  In56  1  0.16513739  0.33010457  0.12566022  1
  In  In57  1  0.17943447  0.32938918  0.63624142  1
  In  In58  1  0.17257657  0.65600608  0.13430787  1
  In  In59  1  0.15788885  0.67062861  0.63211975  1
  In  In60  1  0.49973454  -0.00807437  0.12804593  1
  In  In61  1  0.48114209  0.01566883  0.62970242  1
  In  In62  1  0.48522999  0.32045152  0.12455326  1
  In  In63  1  0.48429455  0.32715317  0.61468968  1
  In  In64  1  0.49718620  0.66452487  0.13341490  1
  In  In65  1  0.51072827  0.65523549  0.62707774  1
  In  In66  1  0.83134417  0.00795545  0.12183228  1
  In  In67  1  0.83627842  0.02000886  0.62977185  1
  In  In68  1  0.85075870  0.33672835  0.12386354  1
  In  In69  1  0.84049937  0.34115956  0.62282257  1
  In  In70  1  0.84950466  0.65578793  0.14175886  1
  In  In71  1  0.84325665  0.64097758  0.63636915  1
  In  In72  1  0.65795956  -0.00325233  0.73983822  1
  In  In73  1  0.66185398  0.33800934  0.25720642  1
  In  In74  1  0.00122790  -0.00521401  0.24981492  1
  In  In75  1  0.49176156  0.83925112  0.50577372  1
  In  In76  1  0.49621053  0.16697406  -0.00488553  1
  In  In77  1  0.50305790  0.83141808  0.01099072  1
  In  In78  1  0.49297581  0.49562829  -0.00391074  1
  In  In79  1  0.16685471  0.84088759  -0.00209299  1
  In  In80  1  0.67108337  0.33755677  0.74165962  1
  In  In81  1  0.83629050  0.83759698  0.49547562  1
  In  In82  1  0.84448454  0.49791799  -0.00810378  1
  In  In83  1  0.16685664  0.49962597  0.50389432  1
  In  In84  1  0.83700715  0.83523859  0.00393442  1
  In  In85  1  0.66431034  -0.00234470  0.25444015  1
  Cu  Cu86  1  0.50536871  0.49921270  0.25782285  1
  Cu  Cu87  1  0.32457687  0.00804423  0.50379042  1
  Cu  Cu88  1  0.49853747  0.83041597  0.74264205  1
  Cu  Cu89  1  0.00038556  0.00745328  0.50443694  1
  Cu  Cu90  1  0.16908747  0.16094919  0.74798153  1
  Cu  Cu91  1  0.66436169  0.00204854  0.50362132  1
  Cu  Cu92  1  0.33495788  0.66266691  0.49821812  1
  Cu  Cu93  1  0.00697160  0.33229930  -0.00115538  1
  Cu  Cu94  1  0.50302176  0.50100069  0.74583389  1
  Cu  Cu95  1  0.32671376  0.33169837  0.50284416  1
  Cu  Cu96  1  0.00741051  0.65253440  -0.00382757  1
  Cu  Cu97  1  0.83419271  0.82295492  0.74479010  1
  Cu  Cu98  1  0.00621444  0.33369387  0.50485678  1
  Cu  Cu99  1  0.49546763  0.82922859  0.25245557  1
  Cu  Cu100  1  0.33556655  0.00961227  0.00098635  1
  Cu  Cu101  1  0.48706969  0.16849418  0.25712143  1
  Cu  Cu102  1  0.16329332  0.16439396  0.25189086  1
  Cu  Cu103  1  0.68353769  0.01363134  -0.00650079  1
  Cu  Cu104  1  -0.00461423  0.65979600  0.50874526  1
  Cu  Cu105  1  0.66975374  0.67069197  0.00282516  1
  Cu  Cu106  1  0.00076177  0.01161668  -0.00967372  1
  Cu  Cu107  1  0.16995940  0.82914714  0.25346243  1
  Cu  Cu108  1  0.67129419  0.66084731  0.50241247  1
  Cu  Cu109  1  0.16713962  0.84009103  0.75039867  1
  Cu  Cu110  1  0.31925450  0.33819186  -0.00236310  1
  Cu  Cu111  1  0.31944517  0.65025081  -0.00106734  1
  Cu  Cu112  1  0.83008172  0.50093356  0.25576084  1
  Cu  Cu113  1  0.67800456  0.32524428  -0.00315038  1
  Cu  Cu114  1  0.83616130  0.17233627  0.25647971  1
  Se  Se115  1  0.09047289  0.08712071  0.04481244  1
  Se  Se116  1  0.08403513  0.08891286  0.55770903  1
  Se  Se117  1  0.07966331  0.41672922  0.05955025  1
  Se  Se118  1  0.08162921  0.41280877  0.56883021  1
  Se  Se119  1  0.08206299  0.74116877  0.05338170  1
  Se  Se120  1  0.08430276  0.74549465  0.55277757  1
  Se  Se121  1  0.41365096  0.08468790  0.06633696  1
  Se  Se122  1  0.41202625  0.09179937  0.55164992  1
  Se  Se123  1  0.40345846  0.41117867  0.05933548  1
  Se  Se124  1  0.40484225  0.42399506  0.55346959  1
  Se  Se125  1  0.40316888  0.73257729  0.05670797  1
  Se  Se126  1  0.41034305  0.74159271  0.56405016  1
  Se  Se127  1  0.76302628  0.09586291  0.04920244  1
  Se  Se128  1  0.75273063  0.08456308  0.55261481  1
  Se  Se129  1  0.74832840  0.41261317  0.05642724  1
  Se  Se130  1  0.75406301  0.40894826  0.54875373  1
  Se  Se131  1  0.75000822  0.74349959  0.06623148  1
  Se  Se132  1  0.75564567  0.74201112  0.55774119  1
  Se  Se133  1  0.24511963  0.24729154  0.05249880  1
  Se  Se134  1  0.24123211  0.25040629  0.55452429  1
  Se  Se135  1  0.24077934  0.57193986  0.05841128  1
  Se  Se136  1  0.25605193  0.58891220  0.56486527  1
  Se  Se137  1  0.26024955  0.92507819  0.06155722  1
  Se  Se138  1  0.24503089  0.91731409  0.55288268  1
  Se  Se139  1  0.59189373  0.25318065  0.05860036  1
  Se  Se140  1  0.57919425  0.26637810  0.54200694  1
  Se  Se141  1  0.58736854  0.58647593  0.05763449  1
  Se  Se142  1  0.57808741  0.57890590  0.54704188  1
  Se  Se143  1  0.60411858  0.93159218  0.05548207  1
  Se  Se144  1  0.58426606  0.92764935  0.56556239  1
  Se  Se145  1  0.91840764  0.25160053  0.05026019  1
  Se  Se146  1  0.92426089  0.25055228  0.55939042  1
  Se  Se147  1  0.92526939  0.58140270  0.06154582  1
  Se  Se148  1  0.92015889  0.56866243  0.55913284  1
  Se  Se149  1  0.93342197  0.92866455  0.05825268  1
  Se  Se150  1  0.91959175  0.92375712  0.56248666  1
  Se  Se151  1  0.08874043  0.25519218  0.44647556  1
  Se  Se152  1  0.08609978  0.24593150  0.94369571  1
  Se  Se153  1  0.07823312  0.58788706  0.44191855  1
  Se  Se154  1  0.08473869  0.57174716  0.93797302  1
  Se  Se155  1  0.07987578  0.91775749  0.45325867  1
  Se  Se156  1  0.07600204  0.92397125  0.93380898  1
  Se  Se157  1  0.40834396  0.24742264  0.44759137  1
  Se  Se158  1  0.40569268  0.25996024  0.93905321  1
  Se  Se159  1  0.41502563  0.57776704  0.44552557  1
  Se  Se160  1  0.40119492  0.57791287  0.93483262  1
  Se  Se161  1  0.40474876  0.92601843  0.44186226  1
  Se  Se162  1  0.41268549  0.91975988  0.94641963  1
  Se  Se163  1  0.76774592  0.24365568  0.45339099  1
  Se  Se164  1  0.76093796  0.24703684  0.94184671  1
  Se  Se165  1  0.75632837  0.58183787  0.44766654  1
  Se  Se166  1  0.74488119  0.59040009  0.93966583  1
  Se  Se167  1  0.73850308  0.92652095  0.43832704  1
  Se  Se168  1  0.75884241  0.92765086  0.93523059  1
  Se  Se169  1  0.24008110  0.08802595  0.44850732  1
  Se  Se170  1  0.25926978  0.09316516  0.94388832  1
  Se  Se171  1  0.25114204  0.41204313  0.43790898  1
  Se  Se172  1  0.24260026  0.41910884  0.93789520  1
  Se  Se173  1  0.24865623  0.74583363  0.44831145  1
  Se  Se174  1  0.24884614  0.74228412  0.94041102  1
  Se  Se175  1  0.57966283  0.08755399  0.45255925  1
  Se  Se176  1  0.58913527  0.07745596  0.93459801  1
  Se  Se177  1  0.59812811  0.39227816  0.45591738  1
  Se  Se178  1  0.59261367  0.40375468  0.94118515  1
  Se  Se179  1  0.58578585  0.74621431  0.44974676  1
  Se  Se180  1  0.58744285  0.74630499  0.94099266  1
  Se  Se181  1  0.91453552  0.08938654  0.45258111  1
  Se  Se182  1  0.91556093  0.09198810  0.93819788  1
  Se  Se183  1  0.92958770  0.41911893  0.44682538  1
  Se  Se184  1  0.93219711  0.40841963  0.93155724  1
  Se  Se185  1  0.92373561  0.74008213  0.44091138  1
  Se  Se186  1  0.91889951  0.73384997  0.94328286  1
  Se  Se187  1  0.24695023  0.24740529  0.30484391  1
  Se  Se188  1  0.25126891  0.24591739  0.80189602  1
  Se  Se189  1  0.24083588  0.57639010  0.29976389  1
  Se  Se190  1  0.27843591  0.61085700  0.80861793  1
  Se  Se191  1  0.24881024  0.91752919  0.30542212  1
  Se  Se192  1  0.25281896  0.92232890  0.80416416  1
  Se  Se193  1  0.57353394  0.24486496  0.31541032  1
  Se  Se194  1  0.57619215  0.24532460  0.79969487  1
  Se  Se195  1  0.58873099  0.57897394  0.31350504  1
  Se  Se196  1  0.58267551  0.58606428  0.80021076  1
  Se  Se197  1  0.57428744  0.90696339  0.31621364  1
  Se  Se198  1  0.57714639  0.90697235  0.81067530  1
  Se  Se199  1  0.92229629  0.25447600  0.30661656  1
  Se  Se200  1  0.92414153  0.25272207  0.79215901  1
  Se  Se201  1  0.91680200  0.58329744  0.30622084  1
  Se  Se202  1  0.91512994  0.57822631  0.79102004  1
  Se  Se203  1  0.90653504  0.91105932  0.31140789  1
  Se  Se204  1  0.91590950  0.90733326  0.79817245  1
  Se  Se205  1  0.08377668  0.08446053  0.31444873  1
  Se  Se206  1  0.08354186  0.08145881  0.80371937  1
  Se  Se207  1  0.09503540  0.42985597  0.29530808  1
  Se  Se208  1  0.10708504  0.42405943  0.79516602  1
  Se  Se209  1  0.08390935  0.75229178  0.30846913  1
  Se  Se210  1  0.08345950  0.75235373  0.80147461  1
  Se  Se211  1  0.40883691  0.07828541  0.30676591  1
  Se  Se212  1  0.43058969  0.08970926  0.78974479  1
  Se  Se213  1  0.42183987  0.41531785  0.30910102  1
  Se  Se214  1  0.41822576  0.41376346  0.79447438  1
  Se  Se215  1  0.41412495  0.74610653  0.30816932  1
  Se  Se216  1  0.41763109  0.75405753  0.80387140  1
  Se  Se217  1  0.74872969  0.09720118  0.31279231  1
  Se  Se218  1  0.74881018  0.08818658  0.79962678  1
  Se  Se219  1  0.75248121  0.42132531  0.31908812  1
  Se  Se220  1  0.75701650  0.42516098  0.80775825  1
  Se  Se221  1  0.75030039  0.75058655  0.29891344  1
  Se  Se222  1  0.74690904  0.74442878  0.79771467  1
  Se  Se223  1  0.24745705  0.07882032  0.20007184  1
  Se  Se224  1  0.25325790  0.07913507  0.69401977  1
  Se  Se225  1  0.25774806  0.39754170  0.19640475  1
  Se  Se226  1  0.23012484  0.43356424  0.70674193  1
  Se  Se227  1  0.25341205  0.74612870  0.19846856  1
  Se  Se228  1  0.24781149  0.75570236  0.69546426  1
  Se  Se229  1  0.57318598  0.09385057  0.19627920  1
  Se  Se230  1  0.58668290  0.09917575  0.67924897  1
  Se  Se231  1  0.57340718  0.42028289  0.18630777  1
  Se  Se232  1  0.57641448  0.41989023  0.68103707  1
  Se  Se233  1  0.58148527  0.74803012  0.19987839  1
  Se  Se234  1  0.58526992  0.74617768  0.69636397  1
  Se  Se235  1  0.91400433  0.09305578  0.19291146  1
  Se  Se236  1  0.92449602  0.07908311  0.70370571  1
  Se  Se237  1  0.91263035  0.41344487  0.20493418  1
  Se  Se238  1  0.91286803  0.41194521  0.70280016  1
  Se  Se239  1  0.90675160  0.76397126  0.20225816  1
  Se  Se240  1  0.92054121  0.74441650  0.69082875  1
  Se  Se241  1  0.08031161  0.24447078  0.19482378  1
  Se  Se242  1  0.08717134  0.24888459  0.69904536  1
  Se  Se243  1  0.05188690  0.61432685  0.18857974  1
  Se  Se244  1  0.08805478  0.58444000  0.70333424  1
  Se  Se245  1  0.09226138  0.90490282  0.18687370  1
  Se  Se246  1  0.08180982  0.91919571  0.69556630  1
  Se  Se247  1  0.40845306  0.25580490  0.20453880  1
  Se  Se248  1  0.40291282  0.26259488  0.69191022  1
  Se  Se249  1  0.41961784  0.57930774  0.20159760  1
  Se  Se250  1  0.41732642  0.58535560  0.69584193  1
  Se  Se251  1  0.41715434  0.91706174  0.19960445  1
  Se  Se252  1  0.41573445  0.91850613  0.69573874  1
  Se  Se253  1  0.75349342  0.24902330  0.19319148  1
  Se  Se254  1  0.75754718  0.24055356  0.68723850  1
  Se  Se255  1  0.74681963  0.58500557  0.20306193  1
  Se  Se256  1  0.72836548  0.58738091  0.69035306  1
  Se  Se257  1  0.76020487  0.91637875  0.19362817  1
  Se  Se258  1  0.75699406  0.90652251  0.68457878  1
