# generated using pymatgen
data_In86Cu29Se144
_symmetry_space_group_name_H-M   'P 1'
_cell_length_a   17.59513835
_cell_length_b   17.59138809
_cell_length_c   23.44682403
_cell_angle_alpha   89.99938714
_cell_angle_beta   90.01862105
_cell_angle_gamma   89.98670553
_symmetry_Int_Tables_number   1
_chemical_formula_structural   In86Cu29Se144
_chemical_formula_sum   'In86 Cu29 Se144'
_cell_volume   7257.32856173
_cell_formula_units_Z   1
loop_
 _symmetry_equiv_pos_site_id
 _symmetry_equiv_pos_as_xyz
  1  'x, y, z'
loop_
 _atom_site_type_symbol
 _atom_site_label
 _atom_site_symmetry_multiplicity
 _atom_site_fract_x
 _atom_site_fract_y
 _atom_site_fract_z
 _atom_site_occupancy
  In  In0  1  -0.01658705  0.15706356  0.12485633  1
  In  In1  1  -0.01487634  0.15461111  0.62046537  1
  In  In2  1  -0.00423349  0.51061146  0.11647558  1
  In  In3  1  -0.00767272  0.51392678  0.63311834  1
  In  In4  1  0.00156017  0.83517579  0.11746218  1
  In  In5  1  -0.00568894  0.83016947  0.63280492  1
  In  In6  1  0.34011618  0.17521119  0.12485501  1
  In  In7  1  0.32915293  0.16334033  0.62536763  1
  In  In8  1  0.35075091  0.49934755  0.11733510  1
  In  In9  1  0.34200921  0.49061921  0.63254421  1
  In  In10  1  0.31618165  0.83880722  0.12464531  1
  In  In11  1  0.32442000  0.84443670  0.63225308  1
  In  In12  1  0.68054759  0.15470655  0.12663887  1
  In  In13  1  0.67031750  0.16619430  0.62689003  1
  In  In14  1  0.66553736  0.50646169  0.11024557  1
  In  In15  1  0.66888948  0.50565715  0.63110387  1
  In  In16  1  0.66405926  0.82526014  0.11630564  1
  In  In17  1  0.68133398  0.82829750  0.63716468  1
  In  In18  1  0.15418698  0.00728079  0.38646307  1
  In  In19  1  0.14337084  -0.01507050  0.85264455  1
  In  In20  1  0.15887876  0.32313058  0.38161053  1
  In  In21  1  0.16652100  0.31991788  0.86572690  1
  In  In22  1  0.17630655  0.66464239  0.37754356  1
  In  In23  1  0.17233441  0.67555112  0.87219461  1
  In  In24  1  0.50771364  0.00962818  0.38401703  1
  In  In25  1  0.50449132  0.00553285  0.86526709  1
  In  In26  1  0.50997897  0.32870451  0.38768705  1
  In  In27  1  0.51101348  0.34248645  0.86592328  1
  In  In28  1  0.48647200  0.67211887  0.38033176  1
  In  In29  1  0.50197047  0.66536069  0.87207834  1
  In  In30  1  0.83559380  -0.00643308  0.38576461  1
  In  In31  1  0.83655770  0.00178412  0.87355241  1
  In  In32  1  0.83439339  0.33086242  0.38639359  1
  In  In33  1  0.81886943  0.33987487  0.87897296  1
  In  In34  1  0.83057997  0.67113830  0.38165129  1
  In  In35  1  0.83261479  0.67115110  0.86174480  1
  In  In36  1  0.00594194  0.15834607  0.38314626  1
  In  In37  1  -0.00803840  0.12767755  0.85559056  1
  In  In38  1  -0.00320509  0.49170738  0.38127758  1
  In  In39  1  -0.03290700  0.50278131  0.86317081  1
  In  In40  1  -0.01986282  0.85428881  0.38992990  1
  In  In41  1  -0.00426133  0.83595628  0.86861036  1
  In  In42  1  0.33808572  0.15974541  0.38520821  1
  In  In43  1  0.32432493  0.16610469  0.85453223  1
  In  In44  1  0.33721371  0.51363629  0.38055427  1
  In  In45  1  0.34603395  0.50765949  0.87085033  1
  In  In46  1  0.33195430  0.81550053  0.38112872  1
  In  In47  1  0.32476614  0.82569179  0.87143896  1
  In  In48  1  0.66822551  0.15360986  0.39747983  1
  In  In49  1  0.67277807  0.17886866  0.86665157  1
  In  In50  1  0.67058629  0.49432915  0.38722872  1
  In  In51  1  0.66939296  0.49619365  0.86489323  1
  In  In52  1  0.68418331  0.84049566  0.38111969  1
  In  In53  1  0.70397524  0.85099175  0.83586245  1
  In  In54  1  0.16422612  -0.01513342  0.12381842  1
  In  In55  1  0.16675691  -0.00012743  0.62532195  1
  In  In56  1  0.17126936  0.31762852  0.12103982  1
  In  In57  1  0.17843856  0.32995681  0.62956344  1
  In  In58  1  0.16015444  0.68076132  0.12381342  1
  In  In59  1  0.15892862  0.68166101  0.63363034  1
  In  In60  1  0.51041433  0.00388639  0.12409710  1
  In  In61  1  0.49544095  0.00508593  0.62859492  1
  In  In62  1  0.49328565  0.34036219  0.12184866  1
  In  In63  1  0.49999769  0.33345645  0.62377854  1
  In  In64  1  0.50600341  0.65727544  0.12261285  1
  In  In65  1  0.50583328  0.65654847  0.63130596  1
  In  In66  1  0.84201284  0.00217567  0.11976086  1
  In  In67  1  0.83109453  -0.00352265  0.63786391  1
  In  In68  1  0.82754135  0.33180948  0.11771642  1
  In  In69  1  0.82660498  0.33045798  0.62816436  1
  In  In70  1  0.83495841  0.66836862  0.11057631  1
  In  In71  1  0.83412902  0.66913689  0.62894554  1
  In  In72  1  0.16109452  0.16064274  -0.01581119  1
  In  In73  1  0.66562931  0.32776551  0.25369357  1
  In  In74  1  0.67431518  -0.00112361  0.25809982  1
  In  In75  1  0.16075474  0.50263628  -0.00670186  1
  In  In76  1  0.50298309  0.17227011  0.00091683  1
  In  In77  1  0.50668305  0.83439146  0.50589130  1
  In  In78  1  0.50303606  0.81455024  -0.01261392  1
  In  In79  1  -0.00407578  0.33563249  0.74478859  1
  In  In80  1  0.33533404  0.33464622  0.24903156  1
  In  In81  1  0.00015064  0.33385933  0.25776848  1
  In  In82  1  0.16468286  0.49899123  0.50580560  1
  In  In83  1  0.32792334  -0.00410831  0.25970043  1
  In  In84  1  -0.00172145  0.67511585  0.24950929  1
  In  In85  1  0.66395927  0.66626468  0.25838544  1
  Cu  Cu86  1  0.49242744  0.83580145  0.25426299  1
  Cu  Cu87  1  0.83145348  0.16580260  0.74849482  1
  Cu  Cu88  1  0.83189645  0.50401754  0.24588351  1
  Cu  Cu89  1  -0.00193411  -0.00468094  0.50929119  1
  Cu  Cu90  1  -0.00280008  -0.00628962  -0.00644599  1
  Cu  Cu91  1  0.33281355  0.66398159  0.50727248  1
  Cu  Cu92  1  0.17388100  0.50375233  0.75483999  1
  Cu  Cu93  1  0.33608330  0.33190710  0.50676305  1
  Cu  Cu94  1  0.16432865  0.15809725  0.25448900  1
  Cu  Cu95  1  0.33027281  -0.00147875  0.50713330  1
  Cu  Cu96  1  0.17974081  0.50672603  0.25016652  1
  Cu  Cu97  1  0.33057434  -0.00440278  -0.00614961  1
  Cu  Cu98  1  0.17141010  0.83584138  0.74746669  1
  Cu  Cu99  1  0.34384001  0.33721364  -0.01209053  1
  Cu  Cu100  1  0.49535994  0.83523737  0.75033786  1
  Cu  Cu101  1  0.66942563  0.33613136  -0.00668253  1
  Cu  Cu102  1  0.67568939  -0.00654840  -0.00812690  1
  Cu  Cu103  1  -0.00523122  0.33245708  0.50596627  1
  Cu  Cu104  1  0.67308212  0.66609193  -0.01662734  1
  Cu  Cu105  1  0.67149350  0.66508511  0.50953037  1
  Cu  Cu106  1  -0.01058176  0.66802999  -0.01087141  1
  Cu  Cu107  1  0.49420034  0.49574452  0.74688022  1
  Cu  Cu108  1  -0.00567708  0.67175389  0.50911471  1
  Cu  Cu109  1  0.33247607  0.66757482  -0.00491879  1
  Cu  Cu110  1  0.16021698  0.83030525  0.25118767  1
  Cu  Cu111  1  0.49882577  0.16776818  0.74263853  1
  Cu  Cu112  1  -0.00601433  0.33251137  -0.00556356  1
  Cu  Cu113  1  0.66441296  0.33749794  0.51080617  1
  Cu  Cu114  1  0.49641709  0.50182564  0.24914734  1
  Se  Se115  1  0.07873601  0.07517384  0.05581977  1
  Se  Se116  1  0.08307910  0.08357120  0.55555692  1
  Se  Se117  1  0.07808631  0.40472005  0.05785831  1
  Se  Se118  1  0.07463248  0.41220574  0.56754656  1
  Se  Se119  1  0.07535369  0.74398802  0.04786889  1
  Se  Se120  1  0.08049621  0.75488798  0.55819726  1
  Se  Se121  1  0.40833517  0.07365309  0.05548446  1
  Se  Se122  1  0.41614367  0.08359640  0.55493611  1
  Se  Se123  1  0.42518788  0.41851204  0.04339960  1
  Se  Se124  1  0.41845006  0.42032934  0.55411649  1
  Se  Se125  1  0.40901520  0.74673479  0.06157168  1
  Se  Se126  1  0.41213197  0.74878339  0.56524368  1
  Se  Se127  1  0.75232409  0.07889830  0.04989959  1
  Se  Se128  1  0.77055334  0.09320415  0.56693523  1
  Se  Se129  1  0.75237224  0.41990300  0.04944549  1
  Se  Se130  1  0.74990545  0.42096987  0.56051719  1
  Se  Se131  1  0.74689211  0.74979399  0.04575830  1
  Se  Se132  1  0.75370031  0.75303063  0.55783576  1
  Se  Se133  1  0.26318394  0.25316105  0.04511599  1
  Se  Se134  1  0.24820018  0.24905236  0.55372393  1
  Se  Se135  1  0.25299779  0.58695938  0.05812554  1
  Se  Se136  1  0.25198686  0.58635849  0.56848046  1
  Se  Se137  1  0.24514213  0.91539843  0.04710929  1
  Se  Se138  1  0.24551541  0.91202874  0.55405358  1
  Se  Se139  1  0.59660801  0.25849934  0.06331275  1
  Se  Se140  1  0.58302692  0.24704045  0.55775531  1
  Se  Se141  1  0.58527589  0.59282568  0.04310495  1
  Se  Se142  1  0.58374576  0.58152137  0.55631835  1
  Se  Se143  1  0.58469588  0.92046961  0.04784151  1
  Se  Se144  1  0.59365619  0.91811408  0.56925586  1
  Se  Se145  1  0.91788206  0.24950969  0.05498081  1
  Se  Se146  1  0.90881363  0.25000358  0.55720391  1
  Se  Se147  1  0.91243813  0.57959043  0.04312617  1
  Se  Se148  1  0.91228151  0.58283210  0.55653288  1
  Se  Se149  1  0.91366228  0.91252905  0.04913934  1
  Se  Se150  1  0.91358293  0.91573716  0.56481854  1
  Se  Se151  1  0.08007862  0.24845806  0.45431720  1
  Se  Se152  1  0.06518906  0.25085110  0.93167767  1
  Se  Se153  1  0.07343501  0.59203290  0.44568477  1
  Se  Se154  1  0.07050147  0.58526687  0.92992783  1
  Se  Se155  1  0.08438847  0.91349561  0.45442599  1
  Se  Se156  1  0.08472402  0.91576165  0.93925053  1
  Se  Se157  1  0.41762758  0.24898155  0.45000756  1
  Se  Se158  1  0.41556574  0.24818641  0.92990601  1
  Se  Se159  1  0.42064689  0.58426848  0.45499288  1
  Se  Se160  1  0.42044274  0.58645477  0.94653003  1
  Se  Se161  1  0.40896686  0.91952258  0.44301737  1
  Se  Se162  1  0.41815272  0.91964706  0.93704516  1
  Se  Se163  1  0.74565561  0.25516731  0.45336195  1
  Se  Se164  1  0.75043934  0.24396742  0.94786905  1
  Se  Se165  1  0.75285629  0.58426738  0.44932111  1
  Se  Se166  1  0.75504933  0.58153321  0.93137810  1
  Se  Se167  1  0.73508449  0.93388813  0.45375257  1
  Se  Se168  1  0.75037181  0.90947937  0.93352019  1
  Se  Se169  1  0.24858942  0.08333099  0.45082398  1
  Se  Se170  1  0.25681596  0.07390401  0.93032797  1
  Se  Se171  1  0.25626753  0.40991484  0.44215167  1
  Se  Se172  1  0.25095468  0.41091001  0.93459232  1
  Se  Se173  1  0.24664861  0.74529337  0.45462654  1
  Se  Se174  1  0.24698779  0.75359681  0.94961547  1
  Se  Se175  1  0.57649962  0.07975654  0.46324246  1
  Se  Se176  1  0.59094837  0.08079107  0.94053799  1
  Se  Se177  1  0.58121165  0.42065791  0.45502848  1
  Se  Se178  1  0.58607470  0.41964695  0.94140544  1
  Se  Se179  1  0.59509105  0.74204554  0.44174679  1
  Se  Se180  1  0.60561815  0.75450854  0.92194105  1
  Se  Se181  1  0.91960554  0.08003957  0.45120618  1
  Se  Se182  1  0.91792017  0.08521209  0.94563313  1
  Se  Se183  1  0.91424352  0.41930570  0.45310447  1
  Se  Se184  1  0.91140094  0.41899039  0.94422789  1
  Se  Se185  1  0.91112403  0.75207815  0.45162952  1
  Se  Se186  1  0.90948327  0.75385194  0.93586027  1
  Se  Se187  1  0.24534486  0.24219471  0.30952658  1
  Se  Se188  1  0.25492259  0.26296576  0.79039113  1
  Se  Se189  1  0.25900441  0.58880027  0.30481143  1
  Se  Se190  1  0.25555908  0.58868858  0.80710223  1
  Se  Se191  1  0.23867155  0.90524986  0.31742935  1
  Se  Se192  1  0.25681641  0.91868544  0.80115998  1
  Se  Se193  1  0.58490200  0.23741884  0.31810310  1
  Se  Se194  1  0.58172099  0.25018208  0.79782091  1
  Se  Se195  1  0.57437728  0.57378114  0.31607930  1
  Se  Se196  1  0.57653848  0.57759723  0.80224651  1
  Se  Se197  1  0.57593413  0.90802916  0.31491161  1
  Se  Se198  1  0.58365814  0.92042450  0.79710720  1
  Se  Se199  1  0.91132753  0.24296515  0.31484659  1
  Se  Se200  1  0.91269479  0.24438802  0.81139662  1
  Se  Se201  1  0.91249954  0.57715657  0.30975311  1
  Se  Se202  1  0.93116944  0.60791998  0.79100228  1
  Se  Se203  1  0.90970647  0.91796986  0.30818975  1
  Se  Se204  1  0.93782684  0.94269422  0.80497724  1
  Se  Se205  1  0.07920851  0.07768173  0.30666179  1
  Se  Se206  1  0.11967079  0.11487985  0.80436003  1
  Se  Se207  1  0.09938852  0.42797053  0.31006684  1
  Se  Se208  1  0.08331178  0.42584216  0.81102089  1
  Se  Se209  1  0.08374994  0.75567642  0.31797385  1
  Se  Se210  1  0.08841810  0.75553556  0.80398112  1
  Se  Se211  1  0.42458716  0.08891341  0.30783399  1
  Se  Se212  1  0.41818114  0.08279638  0.79695165  1
  Se  Se213  1  0.42352663  0.42022332  0.31354201  1
  Se  Se214  1  0.41174992  0.41242901  0.80186717  1
  Se  Se215  1  0.41160974  0.74691906  0.30278308  1
  Se  Se216  1  0.41689138  0.74942987  0.80594724  1
  Se  Se217  1  0.75656286  0.09353225  0.31745919  1
  Se  Se218  1  0.74884541  0.08319392  0.80455938  1
  Se  Se219  1  0.75812335  0.42333282  0.30881651  1
  Se  Se220  1  0.74700906  0.40590079  0.79842723  1
  Se  Se221  1  0.76169621  0.76050428  0.30390401  1
  Se  Se222  1  0.73081325  0.72115059  0.78770289  1
  Se  Se223  1  0.24767793  0.08835561  0.18906665  1
  Se  Se224  1  0.25654440  0.07318288  0.69407313  1
  Se  Se225  1  0.24516625  0.42216545  0.18436021  1
  Se  Se226  1  0.25059237  0.41644169  0.70049859  1
  Se  Se227  1  0.24650770  0.75057856  0.19720603  1
  Se  Se228  1  0.25733886  0.74762791  0.70030696  1
  Se  Se229  1  0.58019125  0.09103088  0.19747940  1
  Se  Se230  1  0.58604315  0.08213516  0.69574498  1
  Se  Se231  1  0.58267890  0.42709423  0.19037858  1
  Se  Se232  1  0.58172439  0.41750075  0.69324139  1
  Se  Se233  1  0.57419047  0.75691077  0.19461385  1
  Se  Se234  1  0.57691285  0.75460963  0.69429930  1
  Se  Se235  1  0.91496482  0.07586439  0.19833849  1
  Se  Se236  1  0.92148165  0.08099523  0.70386004  1
  Se  Se237  1  0.91525755  0.42304949  0.18951200  1
  Se  Se238  1  0.89956598  0.43067595  0.69732876  1
  Se  Se239  1  0.90597581  0.75537145  0.18594116  1
  Se  Se240  1  0.92956114  0.73108332  0.70200286  1
  Se  Se241  1  0.08735924  0.24141154  0.19394012  1
  Se  Se242  1  0.08063417  0.24331961  0.68525886  1
  Se  Se243  1  0.08948525  0.57743119  0.19149035  1
  Se  Se244  1  0.09093377  0.58096254  0.69717973  1
  Se  Se245  1  0.07892842  0.91203797  0.19506121  1
  Se  Se246  1  0.08420299  0.91655489  0.69516725  1
  Se  Se247  1  0.43401664  0.24263630  0.19680359  1
  Se  Se248  1  0.41431586  0.25092120  0.69104299  1
  Se  Se249  1  0.41672509  0.58478440  0.19329883  1
  Se  Se250  1  0.41148414  0.58657998  0.69942848  1
  Se  Se251  1  0.42061921  0.91504928  0.18904019  1
  Se  Se252  1  0.41466056  0.92155057  0.69822525  1
  Se  Se253  1  0.76267052  0.24298242  0.19634061  1
  Se  Se254  1  0.74649865  0.25207370  0.70067819  1
  Se  Se255  1  0.75145959  0.58280055  0.18766661  1
  Se  Se256  1  0.73789627  0.60197348  0.69978756  1
  Se  Se257  1  0.74556488  0.91199575  0.18416260  1
  Se  Se258  1  0.75862415  0.90836652  0.71089792  1
