# generated using pymatgen
data_In86Cu29Se144
_symmetry_space_group_name_H-M   'P 1'
_cell_length_a   17.55131121
_cell_length_b   17.55394441
_cell_length_c   23.40638935
_cell_angle_alpha   90.02067741
_cell_angle_beta   90.00881653
_cell_angle_gamma   90.00527083
_symmetry_Int_Tables_number   1
_chemical_formula_structural   In86Cu29Se144
_chemical_formula_sum   'In86 Cu29 Se144'
_cell_volume   7211.38488922
_cell_formula_units_Z   1
loop_
 _symmetry_equiv_pos_site_id
 _symmetry_equiv_pos_as_xyz
  1  'x, y, z'
loop_
 _atom_site_type_symbol
 _atom_site_label
 _atom_site_symmetry_multiplicity
 _atom_site_fract_x
 _atom_site_fract_y
 _atom_site_fract_z
 _atom_site_occupancy
  In  In0  1  0.01915321  0.15806387  0.13494513  1
  In  In1  1  -0.01103430  0.15178997  0.62632565  1
  In  In2  1  -0.00271702  0.49215025  0.11076659  1
  In  In3  1  -0.00657938  0.52505726  0.62923745  1
  In  In4  1  0.01121384  0.84178708  0.10143285  1
  In  In5  1  0.01038851  0.82403954  0.63768706  1
  In  In6  1  0.28973238  0.15524617  0.11981753  1
  In  In7  1  0.31859464  0.15936468  0.62671524  1
  In  In8  1  0.33634131  0.50325145  0.11389554  1
  In  In9  1  0.34303034  0.50199141  0.62598341  1
  In  In10  1  0.33205301  0.83131019  0.12340618  1
  In  In11  1  0.33361565  0.82821851  0.63001701  1
  In  In12  1  0.65604308  0.15353207  0.12337546  1
  In  In13  1  0.67239544  0.15407406  0.62906983  1
  In  In14  1  0.67082664  0.50658701  0.11591020  1
  In  In15  1  0.67657476  0.51342305  0.62522272  1
  In  In16  1  0.67444160  0.83682403  0.11678871  1
  In  In17  1  0.66231949  0.83914257  0.63235396  1
  In  In18  1  0.15661942  -0.00850670  0.36501741  1
  In  In19  1  0.16512284  -0.00078367  0.88057508  1
  In  In20  1  0.15882723  0.34050287  0.36283630  1
  In  In21  1  0.14738151  0.34845101  0.90283275  1
  In  In22  1  0.17854414  0.66108802  0.37263975  1
  In  In23  1  0.16491606  0.66543305  0.88195885  1
  In  In24  1  0.49218769  -0.01365229  0.36840901  1
  In  In25  1  0.48647797  -0.01249760  0.87200086  1
  In  In26  1  0.51164948  0.33969503  0.37259163  1
  In  In27  1  0.50213167  0.34568726  0.87767075  1
  In  In28  1  0.49489590  0.67761095  0.38579830  1
  In  In29  1  0.49959258  0.67137724  0.87298020  1
  In  In30  1  0.84068435  0.00258321  0.36623628  1
  In  In31  1  0.81443778  -0.02636503  0.85074858  1
  In  In32  1  0.84390566  0.33385806  0.37293312  1
  In  In33  1  0.85110858  0.34175341  0.88074761  1
  In  In34  1  0.82469150  0.67160404  0.38028441  1
  In  In35  1  0.83732369  0.67453759  0.87337967  1
  In  In36  1  0.00081880  0.16599998  0.35916905  1
  In  In37  1  0.00912898  0.16599174  0.88124295  1
  In  In38  1  0.00394470  0.49546776  0.37124731  1
  In  In39  1  -0.02509042  0.52638505  0.91718224  1
  In  In40  1  -0.00123575  0.84718385  0.37478899  1
  In  In41  1  0.00080463  0.83491523  0.87635155  1
  In  In42  1  0.33704666  0.15743482  0.36952598  1
  In  In43  1  0.32244855  0.15425144  0.87684893  1
  In  In44  1  0.33125710  0.51862597  0.36991382  1
  In  In45  1  0.31314733  0.51257193  0.89444395  1
  In  In46  1  0.33366853  0.82869041  0.37518065  1
  In  In47  1  0.33104893  0.83411806  0.87913977  1
  In  In48  1  0.67923862  0.16318767  0.37243855  1
  In  In49  1  0.67859804  0.14972206  0.87326370  1
  In  In50  1  0.66476444  0.50538821  0.38156210  1
  In  In51  1  0.65923836  0.51512666  0.87765592  1
  In  In52  1  0.65788132  0.82736501  0.37469954  1
  In  In53  1  0.66769236  0.82529213  0.86946267  1
  In  In54  1  0.16548701  -0.00611515  0.12507309  1
  In  In55  1  0.18476398  -0.01506487  0.63860939  1
  In  In56  1  0.14908847  0.31654292  0.09039849  1
  In  In57  1  0.16755101  0.33739785  0.62866131  1
  In  In58  1  0.16541449  0.68627345  0.10672165  1
  In  In59  1  0.15160532  0.68352118  0.63888450  1
  In  In60  1  0.50231052  -0.01622425  0.12821199  1
  In  In61  1  0.50616826  -0.01681002  0.63262544  1
  In  In62  1  0.48470712  0.34244890  0.12089825  1
  In  In63  1  0.48741247  0.34577578  0.62637240  1
  In  In64  1  0.48663395  0.65798103  0.11636989  1
  In  In65  1  0.49813210  0.66746392  0.62963606  1
  In  In66  1  0.84199667  -0.00161108  0.12520098  1
  In  In67  1  0.85593581  -0.03049438  0.65990093  1
  In  In68  1  0.84085061  0.34768471  0.11663468  1
  In  In69  1  0.82271954  0.34354167  0.62771928  1
  In  In70  1  0.84614745  0.66689010  0.10326672  1
  In  In71  1  0.84943625  0.66250438  0.64593358  1
  In  In72  1  0.82883220  0.16576614  0.50278765  1
  In  In73  1  0.00368096  0.67040008  0.23920804  1
  In  In74  1  0.16691095  0.16548194  0.48836186  1
  In  In75  1  0.50596046  0.16608711  0.50477142  1
  In  In76  1  0.84160219  0.16403523  -0.00680442  1
  In  In77  1  0.83194273  0.82954275  0.50976574  1
  In  In78  1  0.32409577  0.32646973  0.23874284  1
  In  In79  1  0.49251593  0.16819273  0.00568905  1
  In  In80  1  0.66753109  0.32573263  0.74905855  1
  In  In81  1  0.33092855  0.32915982  0.75621591  1
  In  In82  1  0.16696535  0.51190136  0.49961560  1
  In  In83  1  0.66945031  0.32802858  0.24700602  1
  In  In84  1  0.66471889  0.67023746  0.24875393  1
  In  In85  1  0.00679723  0.33113820  0.76460819  1
  Cu  Cu86  1  0.66899529  -0.00521222  0.50286407  1
  Cu  Cu87  1  0.83876751  0.84506085  0.23840856  1
  Cu  Cu88  1  0.16509125  0.51281003  0.76283694  1
  Cu  Cu89  1  0.33878016  -0.01808021  0.50294172  1
  Cu  Cu90  1  0.16690511  0.16209437  0.75754712  1
  Cu  Cu91  1  -0.00745483  0.34901191  0.49787235  1
  Cu  Cu92  1  0.34077266  0.67840280  -0.00565945  1
  Cu  Cu93  1  0.49407294  0.83281539  0.75294649  1
  Cu  Cu94  1  0.49648689  0.82964107  0.25114023  1
  Cu  Cu95  1  0.16891240  0.83353132  0.76099912  1
  Cu  Cu96  1  0.66808099  0.34226590  -0.00259156  1
  Cu  Cu97  1  0.16749948  0.49867946  0.23823442  1
  Cu  Cu98  1  0.33906764  0.34331486  0.49600474  1
  Cu  Cu99  1  0.66593688  -0.00976732  -0.00842526  1
  Cu  Cu100  1  0.66438099  0.66155596  0.50730617  1
  Cu  Cu101  1  0.32533039  -0.00267067  0.00116628  1
  Cu  Cu102  1  0.49447616  0.15210473  0.24169676  1
  Cu  Cu103  1  0.01038481  -0.00116090  0.50187399  1
  Cu  Cu104  1  0.66099656  0.35158952  0.50522004  1
  Cu  Cu105  1  -0.00489621  -0.00259635  -0.00298455  1
  Cu  Cu106  1  0.66664050  0.67350463  -0.00584794  1
  Cu  Cu107  1  0.50081509  0.15592787  0.75341773  1
  Cu  Cu108  1  0.49846009  0.51271183  0.75310585  1
  Cu  Cu109  1  0.49197583  0.50350257  0.24589710  1
  Cu  Cu110  1  0.33415255  0.67028446  0.50287818  1
  Cu  Cu111  1  0.83547850  0.16465134  0.24602355  1
  Cu  Cu112  1  0.84096450  0.50059975  0.76063507  1
  Cu  Cu113  1  0.16939322  0.83080219  0.24453997  1
  Cu  Cu114  1  0.84180497  0.50243144  0.24302128  1
  Se  Se115  1  0.08011301  0.07546913  0.05458443  1
  Se  Se116  1  0.09036731  0.07907861  0.56206232  1
  Se  Se117  1  0.10633589  0.44345007  0.04392494  1
  Se  Se118  1  0.07745158  0.41888884  0.56101907  1
  Se  Se119  1  0.05068335  0.72481859  0.04063214  1
  Se  Se120  1  0.07319407  0.74581933  0.55869222  1
  Se  Se121  1  0.40553696  0.07519570  0.06574375  1
  Se  Se122  1  0.41080083  0.07537179  0.56102853  1
  Se  Se123  1  0.43003662  0.43151250  0.04593117  1
  Se  Se124  1  0.41969719  0.42659863  0.54925484  1
  Se  Se125  1  0.42274674  0.75959318  0.05180507  1
  Se  Se126  1  0.41863171  0.75132092  0.55833660  1
  Se  Se127  1  0.74245597  0.07599453  0.05109343  1
  Se  Se128  1  0.75580015  0.06459458  0.56409250  1
  Se  Se129  1  0.75481658  0.42470415  0.04797691  1
  Se  Se130  1  0.75492382  0.42787732  0.55401830  1
  Se  Se131  1  0.75413065  0.75411851  0.04655046  1
  Se  Se132  1  0.74441353  0.73913577  0.56983380  1
  Se  Se133  1  0.27831562  0.26695647  0.05077603  1
  Se  Se134  1  0.25584598  0.26082252  0.55350306  1
  Se  Se135  1  0.25734362  0.59662882  0.04973272  1
  Se  Se136  1  0.25155446  0.59616622  0.56691333  1
  Se  Se137  1  0.24429068  0.90976069  0.05422178  1
  Se  Se138  1  0.24822163  0.90803511  0.55771430  1
  Se  Se139  1  0.59140373  0.26177015  0.05913167  1
  Se  Se140  1  0.59320898  0.26099853  0.56737351  1
  Se  Se141  1  0.58577759  0.58964663  0.05096670  1
  Se  Se142  1  0.57754340  0.57990722  0.55983053  1
  Se  Se143  1  0.58222045  0.91464038  0.05055333  1
  Se  Se144  1  0.58295487  0.91224584  0.55412816  1
  Se  Se145  1  0.92323674  0.24244613  0.06528017  1
  Se  Se146  1  0.92223835  0.25996125  0.56052942  1
  Se  Se147  1  0.91066797  0.56664450  0.03917545  1
  Se  Se148  1  0.90775151  0.59320369  0.55799481  1
  Se  Se149  1  0.90543199  0.91637539  0.04668158  1
  Se  Se150  1  0.92449453  0.92463144  0.56368786  1
  Se  Se151  1  0.07026816  0.26325714  0.43829704  1
  Se  Se152  1  0.07903370  0.24232983  0.95915739  1
  Se  Se153  1  0.07257241  0.59545292  0.43918103  1
  Se  Se154  1  0.11460515  0.55341947  0.94737906  1
  Se  Se155  1  0.08984925  0.91482923  0.44645756  1
  Se  Se156  1  0.08484055  0.91301782  0.94887052  1
  Se  Se157  1  0.41519557  0.25464485  0.43888159  1
  Se  Se158  1  0.41276070  0.25143661  0.93558897  1
  Se  Se159  1  0.41344131  0.58380217  0.44740533  1
  Se  Se160  1  0.42179529  0.58730368  0.94552390  1
  Se  Se161  1  0.42425186  0.90530211  0.44559496  1
  Se  Se162  1  0.41401717  0.91617049  0.95130711  1
  Se  Se163  1  0.73929720  0.26517584  0.44485865  1
  Se  Se164  1  0.74352584  0.25733190  0.93829929  1
  Se  Se165  1  0.74980090  0.58565282  0.44966055  1
  Se  Se166  1  0.75263471  0.58936581  0.94225283  1
  Se  Se167  1  0.75145713  0.92040177  0.43861728  1
  Se  Se168  1  0.75251816  0.91045444  0.93894507  1
  Se  Se169  1  0.26155953  0.06697342  0.44168416  1
  Se  Se170  1  0.24134529  0.08572438  0.95387404  1
  Se  Se171  1  0.25145124  0.41535580  0.43597323  1
  Se  Se172  1  0.27293613  0.39233288  0.94959565  1
  Se  Se173  1  0.24927692  0.74714963  0.44534120  1
  Se  Se174  1  0.24460036  0.75533409  0.94861053  1
  Se  Se175  1  0.59154547  0.07649527  0.44029827  1
  Se  Se176  1  0.58196338  0.07875432  0.94156935  1
  Se  Se177  1  0.57488854  0.42630567  0.44804644  1
  Se  Se178  1  0.58303758  0.42630342  0.94683156  1
  Se  Se179  1  0.58785503  0.75107747  0.45286572  1
  Se  Se180  1  0.57993386  0.75598675  0.94345347  1
  Se  Se181  1  0.92842546  0.08167822  0.44219207  1
  Se  Se182  1  0.91287212  0.06493738  0.92915085  1
  Se  Se183  1  0.90985927  0.42853426  0.44226406  1
  Se  Se184  1  0.93332632  0.39625711  0.95994921  1
  Se  Se185  1  0.92283648  0.75011003  0.44184496  1
  Se  Se186  1  0.93306068  0.73859432  0.94630893  1
  Se  Se187  1  0.23898261  0.23799459  0.30595298  1
  Se  Se188  1  0.23297579  0.25308940  0.81858426  1
  Se  Se189  1  0.24721606  0.58352639  0.29340413  1
  Se  Se190  1  0.25738075  0.59098234  0.81065728  1
  Se  Se191  1  0.25053618  0.90948959  0.30477990  1
  Se  Se192  1  0.25182881  0.92130363  0.81063008  1
  Se  Se193  1  0.57357542  0.23480522  0.30395555  1
  Se  Se194  1  0.57582064  0.24018060  0.81327499  1
  Se  Se195  1  0.57430310  0.57963865  0.30838611  1
  Se  Se196  1  0.58773550  0.59433236  0.80158790  1
  Se  Se197  1  0.58605182  0.91164836  0.30185861  1
  Se  Se198  1  0.57990020  0.91499825  0.80629937  1
  Se  Se199  1  0.91560732  0.25556950  0.29700277  1
  Se  Se200  1  0.90751889  0.23791428  0.81162710  1
  Se  Se201  1  0.91141858  0.58801774  0.30656445  1
  Se  Se202  1  0.92675631  0.57599348  0.81893644  1
  Se  Se203  1  0.92306484  0.92022618  0.29728565  1
  Se  Se204  1  0.92472440  0.90841352  0.79742276  1
  Se  Se205  1  0.08594667  0.08266879  0.29735346  1
  Se  Se206  1  0.08112691  0.07953860  0.80900428  1
  Se  Se207  1  0.07905975  0.42258782  0.29302422  1
  Se  Se208  1  0.08512730  0.43077284  0.82135360  1
  Se  Se209  1  0.08821223  0.75384409  0.30860279  1
  Se  Se210  1  0.08516991  0.74665282  0.80994639  1
  Se  Se211  1  0.41305909  0.07295028  0.30006197  1
  Se  Se212  1  0.41046182  0.08134480  0.80681309  1
  Se  Se213  1  0.41551368  0.41648479  0.30472069  1
  Se  Se214  1  0.41753221  0.42940726  0.80978078  1
  Se  Se215  1  0.41675747  0.74285198  0.30576332  1
  Se  Se216  1  0.40976759  0.75092553  0.80696587  1
  Se  Se217  1  0.75083367  0.08135917  0.29905803  1
  Se  Se218  1  0.75078076  0.08365188  0.79357890  1
  Se  Se219  1  0.75406548  0.42816562  0.30521737  1
  Se  Se220  1  0.75417713  0.41789327  0.81381906  1
  Se  Se221  1  0.76266870  0.76395058  0.30253275  1
  Se  Se222  1  0.75947555  0.75353350  0.80061051  1
  Se  Se223  1  0.24665356  0.06943527  0.20013126  1
  Se  Se224  1  0.25521309  0.08107511  0.70619270  1
  Se  Se225  1  0.24171860  0.41655222  0.17553083  1
  Se  Se226  1  0.24044504  0.42885314  0.69943280  1
  Se  Se227  1  0.24672802  0.74411181  0.18934243  1
  Se  Se228  1  0.25076312  0.75103862  0.70327082  1
  Se  Se229  1  0.58569877  0.06947559  0.19648383  1
  Se  Se230  1  0.58377107  0.07810362  0.69610761  1
  Se  Se231  1  0.57914996  0.42420099  0.19028483  1
  Se  Se232  1  0.57707379  0.42445663  0.69548443  1
  Se  Se233  1  0.57571533  0.75373472  0.18510436  1
  Se  Se234  1  0.57957757  0.75146445  0.69840616  1
  Se  Se235  1  0.92136206  0.08080647  0.19531854  1
  Se  Se236  1  0.91982637  0.08499287  0.70688097  1
  Se  Se237  1  0.92410459  0.41840637  0.19171298  1
  Se  Se238  1  0.91758017  0.41996817  0.69707305  1
  Se  Se239  1  0.91291370  0.75889320  0.17927101  1
  Se  Se240  1  0.90240303  0.77506695  0.70518388  1
  Se  Se241  1  0.09514438  0.26490611  0.18450412  1
  Se  Se242  1  0.08874945  0.24178007  0.69348446  1
  Se  Se243  1  0.08948076  0.58126881  0.17743912  1
  Se  Se244  1  0.07830217  0.58872079  0.70554677  1
  Se  Se245  1  0.07934528  0.90348941  0.18833254  1
  Se  Se246  1  0.08724038  0.91689796  0.70353502  1
  Se  Se247  1  0.41878788  0.23520780  0.18221593  1
  Se  Se248  1  0.42234460  0.23893789  0.69199012  1
  Se  Se249  1  0.40819690  0.58423216  0.19271360  1
  Se  Se250  1  0.40896243  0.58904666  0.69945447  1
  Se  Se251  1  0.41140459  0.91231415  0.19764028  1
  Se  Se252  1  0.40950202  0.91770165  0.70046297  1
  Se  Se253  1  0.75661388  0.24182770  0.18109490  1
  Se  Se254  1  0.76647183  0.23790642  0.69499494  1
  Se  Se255  1  0.76139076  0.58737530  0.18684648  1
  Se  Se256  1  0.75462539  0.57874308  0.70523877  1
  Se  Se257  1  0.74604408  0.92300193  0.19006734  1
  Se  Se258  1  0.73576047  0.92002764  0.70722486  1
