# generated using pymatgen
data_In86Cu29Se144
_symmetry_space_group_name_H-M   'P 1'
_cell_length_a   17.57354691
_cell_length_b   17.57259283
_cell_length_c   23.42872150
_cell_angle_alpha   89.99543737
_cell_angle_beta   89.99052265
_cell_angle_gamma   89.97989608
_symmetry_Int_Tables_number   1
_chemical_formula_structural   In86Cu29Se144
_chemical_formula_sum   'In86 Cu29 Se144'
_cell_volume   7235.08815495
_cell_formula_units_Z   1
loop_
 _symmetry_equiv_pos_site_id
 _symmetry_equiv_pos_as_xyz
  1  'x, y, z'
loop_
 _atom_site_type_symbol
 _atom_site_label
 _atom_site_symmetry_multiplicity
 _atom_site_fract_x
 _atom_site_fract_y
 _atom_site_fract_z
 _atom_site_occupancy
  In  In0  1  0.01325746  0.16365525  0.13103117  1
  In  In1  1  -0.02124966  0.14542390  0.59559411  1
  In  In2  1  0.00045416  0.52088497  0.12870286  1
  In  In3  1  0.00974279  0.50219413  0.62100938  1
  In  In4  1  -0.01750499  0.82920957  0.12256569  1
  In  In5  1  0.00857992  0.82573660  0.62989597  1
  In  In6  1  0.35353792  0.17682902  0.13597700  1
  In  In7  1  0.33066176  0.14937103  0.60217536  1
  In  In8  1  0.34078255  0.49812303  0.13473167  1
  In  In9  1  0.33803826  0.50862440  0.61915941  1
  In  In10  1  0.33098545  0.82596213  0.13031986  1
  In  In11  1  0.32671433  0.82672140  0.61589085  1
  In  In12  1  0.65441364  0.17300657  0.14677433  1
  In  In13  1  0.66652140  0.16478945  0.62006481  1
  In  In14  1  0.66521797  0.50524234  0.12296122  1
  In  In15  1  0.65414468  0.50997023  0.63203552  1
  In  In16  1  0.68786050  0.81253260  0.14885197  1
  In  In17  1  0.65557681  0.84027425  0.63570487  1
  In  In18  1  0.17309841  -0.00457262  0.39989873  1
  In  In19  1  0.16408209  0.01331649  0.86052155  1
  In  In20  1  0.17940486  0.31965115  0.38925120  1
  In  In21  1  0.17565031  0.32966251  0.86898755  1
  In  In22  1  0.16866767  0.66732029  0.37874108  1
  In  In23  1  0.17243463  0.67276938  0.86443842  1
  In  In24  1  0.50088852  -0.00839216  0.39081191  1
  In  In25  1  0.51371854  -0.01712110  0.86893395  1
  In  In26  1  0.50612131  0.33407238  0.37648633  1
  In  In27  1  0.51313504  0.33133807  0.87258500  1
  In  In28  1  0.49497146  0.66825029  0.37499468  1
  In  In29  1  0.49021968  0.66000881  0.86502704  1
  In  In30  1  0.84116527  0.00705768  0.37946654  1
  In  In31  1  0.82504828  -0.01241012  0.86355551  1
  In  In32  1  0.81794643  0.32802768  0.37204385  1
  In  In33  1  0.83076868  0.34997644  0.87672225  1
  In  In34  1  0.82615945  0.66751183  0.35898830  1
  In  In35  1  0.83250822  0.66604189  0.87533628  1
  In  In36  1  0.00991444  0.15586843  0.39793718  1
  In  In37  1  0.01024267  0.16165961  0.86284306  1
  In  In38  1  -0.00146664  0.51345629  0.37761515  1
  In  In39  1  -0.01416815  0.49845184  0.87645613  1
  In  In40  1  0.00564777  0.83801552  0.38007770  1
  In  In41  1  -0.01367545  0.82012517  0.86139552  1
  In  In42  1  0.32991028  0.17079198  0.38743978  1
  In  In43  1  0.32788907  0.17340794  0.86791028  1
  In  In44  1  0.33722722  0.49986874  0.37547605  1
  In  In45  1  0.33985706  0.51563568  0.87343490  1
  In  In46  1  0.34003659  0.83234194  0.38997664  1
  In  In47  1  0.34337974  0.80911430  0.87570094  1
  In  In48  1  0.66677467  0.16668802  0.37844227  1
  In  In49  1  0.66699421  0.16458313  0.86285721  1
  In  In50  1  0.65860726  0.49348939  0.36897844  1
  In  In51  1  0.66487214  0.50237352  0.87461667  1
  In  In52  1  0.65711943  0.82084563  0.36710857  1
  In  In53  1  0.67061206  0.84266356  0.86497904  1
  In  In54  1  0.16781916  0.00332363  0.12911577  1
  In  In55  1  0.14910975  -0.02089642  0.59713440  1
  In  In56  1  0.17666903  0.34765297  0.13505507  1
  In  In57  1  0.14807763  0.33445408  0.60508707  1
  In  In58  1  0.16924369  0.66236316  0.13798192  1
  In  In59  1  0.16684100  0.66689583  0.62240670  1
  In  In60  1  0.52022716  0.00622846  0.13097249  1
  In  In61  1  0.50655404  0.00407811  0.61256184  1
  In  In62  1  0.48902169  0.34380121  0.14188962  1
  In  In63  1  0.50677864  0.33477106  0.61840560  1
  In  In64  1  0.50569157  0.66021938  0.12834108  1
  In  In65  1  0.49999099  0.66459509  0.62307765  1
  In  In66  1  0.82557611  -0.01444773  0.12500979  1
  In  In67  1  0.82512087  0.00585089  0.62885617  1
  In  In68  1  0.81544023  0.33541563  0.12611517  1
  In  In69  1  0.83214141  0.31934364  0.62158927  1
  In  In70  1  0.83747755  0.67005284  0.12342119  1
  In  In71  1  0.82503693  0.67440383  0.63274344  1
  In  In72  1  -0.00073203  0.33716363  0.26550244  1
  In  In73  1  0.83151503  0.83218373  0.50386127  1
  In  In74  1  0.83077741  0.49727430  0.49576203  1
  In  In75  1  0.16537392  0.50344653  0.00373699  1
  In  In76  1  -0.00426926  0.33556505  0.74798138  1
  In  In77  1  0.50355234  0.16935986  0.00837582  1
  In  In78  1  0.50775106  0.82398299  0.00063117  1
  In  In79  1  0.33600077  -0.00673655  0.74017828  1
  In  In80  1  0.15625325  0.82778564  -0.01624685  1
  In  In81  1  -0.00266213  -0.00308155  0.26160982  1
  In  In82  1  0.16182635  0.16802382  -0.00204176  1
  In  In83  1  0.33868637  -0.00251740  0.27098538  1
  In  In84  1  0.33698530  0.33516249  0.72654682  1
  In  In85  1  0.82654282  0.16629357  0.00064899  1
  Cu  Cu86  1  -0.00309942  0.67034435  -0.00129507  1
  Cu  Cu87  1  0.66100754  0.34625354  0.00133233  1
  Cu  Cu88  1  0.82906740  0.50184336  0.75337728  1
  Cu  Cu89  1  0.00031223  0.66941969  0.50151005  1
  Cu  Cu90  1  0.33956908  0.34042116  0.00948410  1
  Cu  Cu91  1  0.49751336  0.49515374  0.74491353  1
  Cu  Cu92  1  0.49039888  0.83790268  0.25840676  1
  Cu  Cu93  1  0.50451763  0.50613981  0.25426938  1
  Cu  Cu94  1  0.67138144  -0.00263274  -0.00150328  1
  Cu  Cu95  1  0.50558582  0.15445089  0.74126607  1
  Cu  Cu96  1  0.83151011  0.16313923  0.74100308  1
  Cu  Cu97  1  0.65398896  0.66367579  0.49652309  1
  Cu  Cu98  1  -0.01694328  -0.00978460  -0.00723662  1
  Cu  Cu99  1  0.33254604  0.66258191  0.49927305  1
  Cu  Cu100  1  0.17854646  0.50018219  0.25767311  1
  Cu  Cu101  1  0.15787773  0.16142876  0.72873835  1
  Cu  Cu102  1  0.84308377  0.83448693  0.74872648  1
  Cu  Cu103  1  0.16620398  0.50924766  0.74466384  1
  Cu  Cu104  1  0.83419886  0.50134592  0.24491706  1
  Cu  Cu105  1  0.83151753  0.16116708  0.25711246  1
  Cu  Cu106  1  0.67174035  -0.00174184  0.50058172  1
  Cu  Cu107  1  0.15935904  0.82439531  0.25558183  1
  Cu  Cu108  1  0.33106068  -0.01087888  0.00331560  1
  Cu  Cu109  1  0.66619282  0.33149953  0.49818822  1
  Cu  Cu110  1  0.17729627  0.16725972  0.26326958  1
  Cu  Cu111  1  0.17169003  0.83695301  0.74078351  1
  Cu  Cu112  1  0.34398384  0.34658094  0.49841020  1
  Cu  Cu113  1  0.67271507  0.66828158  0.00126115  1
  Cu  Cu114  1  -0.01120096  0.33711181  0.00245107  1
  Se  Se115  1  0.06962723  0.06684231  0.05271981  1
  Se  Se116  1  0.10710135  0.10557697  0.55080227  1
  Se  Se117  1  0.07490534  0.41023874  0.06409024  1
  Se  Se118  1  0.07358473  0.42769647  0.54076633  1
  Se  Se119  1  0.08204530  0.74305697  0.06031418  1
  Se  Se120  1  0.08551350  0.75204097  0.55270499  1
  Se  Se121  1  0.40945446  0.07209860  0.06284713  1
  Se  Se122  1  0.42532199  0.07770695  0.53803387  1
  Se  Se123  1  0.42356441  0.42182007  0.06064521  1
  Se  Se124  1  0.42636629  0.42574480  0.55491142  1
  Se  Se125  1  0.40983374  0.74197383  0.05891893  1
  Se  Se126  1  0.41747464  0.74513176  0.55182840  1
  Se  Se127  1  0.73546962  0.08482715  0.06527564  1
  Se  Se128  1  0.75407055  0.08418672  0.55147393  1
  Se  Se129  1  0.75120327  0.42332592  0.05272091  1
  Se  Se130  1  0.74107244  0.41511404  0.56168264  1
  Se  Se131  1  0.74841043  0.75439292  0.05820698  1
  Se  Se132  1  0.73567602  0.74165026  0.55732814  1
  Se  Se133  1  0.25607683  0.25485613  0.06407262  1
  Se  Se134  1  0.26336404  0.26694700  0.55738166  1
  Se  Se135  1  0.25681912  0.58819669  0.06425974  1
  Se  Se136  1  0.24548540  0.58131442  0.55223651  1
  Se  Se137  1  0.24398310  0.91251295  0.05696654  1
  Se  Se138  1  0.26537261  0.92319797  0.54524135  1
  Se  Se139  1  0.58991238  0.26238478  0.06650238  1
  Se  Se140  1  0.58231289  0.24568240  0.55025463  1
  Se  Se141  1  0.58419332  0.58766041  0.05174743  1
  Se  Se142  1  0.57769853  0.57647714  0.55149749  1
  Se  Se143  1  0.59443229  0.91624915  0.06070947  1
  Se  Se144  1  0.59020682  0.90937378  0.55136181  1
  Se  Se145  1  0.92223619  0.24960916  0.06508357  1
  Se  Se146  1  0.92205492  0.26352082  0.54702494  1
  Se  Se147  1  0.91641462  0.58420674  0.05169289  1
  Se  Se148  1  0.91261028  0.59355571  0.55901032  1
  Se  Se149  1  0.90480241  0.90997766  0.04995233  1
  Se  Se150  1  0.91942313  0.91740841  0.56621008  1
  Se  Se151  1  0.08127889  0.25646955  0.45590879  1
  Se  Se152  1  0.07041983  0.26338297  0.93803981  1
  Se  Se153  1  0.08417409  0.58549538  0.44957084  1
  Se  Se154  1  0.07931284  0.59180439  0.93775912  1
  Se  Se155  1  0.07178498  0.91922973  0.45567977  1
  Se  Se156  1  0.07309199  0.92767376  0.92782802  1
  Se  Se157  1  0.42194557  0.25567958  0.44804414  1
  Se  Se158  1  0.40924241  0.25377406  0.94399630  1
  Se  Se159  1  0.41920891  0.58228358  0.44620220  1
  Se  Se160  1  0.42168235  0.58646062  0.94553161  1
  Se  Se161  1  0.39742201  0.93359875  0.45837286  1
  Se  Se162  1  0.41341609  0.91746951  0.94082982  1
  Se  Se163  1  0.75344499  0.24714253  0.45016540  1
  Se  Se164  1  0.73582673  0.25778785  0.94095072  1
  Se  Se165  1  0.74327567  0.59190879  0.43729708  1
  Se  Se166  1  0.75067672  0.58238878  0.94398309  1
  Se  Se167  1  0.74361207  0.91441074  0.43720942  1
  Se  Se168  1  0.75142087  0.91465495  0.94249377  1
  Se  Se169  1  0.23483098  0.10429767  0.45644569  1
  Se  Se170  1  0.25762479  0.07506214  0.94017112  1
  Se  Se171  1  0.25223838  0.42290033  0.44736573  1
  Se  Se172  1  0.25615313  0.41099565  0.94292123  1
  Se  Se173  1  0.24720682  0.75019772  0.45056635  1
  Se  Se174  1  0.25892428  0.72995063  0.94850667  1
  Se  Se175  1  0.58759928  0.08325006  0.44965908  1
  Se  Se176  1  0.58852035  0.07864973  0.94101452  1
  Se  Se177  1  0.58609777  0.42096588  0.44806588  1
  Se  Se178  1  0.57631932  0.42224026  0.94445575  1
  Se  Se179  1  0.57625783  0.75406160  0.44522806  1
  Se  Se180  1  0.59401300  0.74145961  0.93298626  1
  Se  Se181  1  0.92060490  0.07091457  0.45771802  1
  Se  Se182  1  0.91647337  0.08361632  0.93345112  1
  Se  Se183  1  0.91805053  0.40933823  0.43374030  1
  Se  Se184  1  0.90839692  0.42399281  0.95288099  1
  Se  Se185  1  0.91356763  0.73884737  0.43971898  1
  Se  Se186  1  0.91513301  0.75359131  0.94386909  1
  Se  Se187  1  0.26043818  0.25479742  0.30994693  1
  Se  Se188  1  0.24039366  0.24228589  0.78808836  1
  Se  Se189  1  0.25611177  0.58970232  0.30926614  1
  Se  Se190  1  0.25452395  0.58465973  0.79959351  1
  Se  Se191  1  0.23543594  0.90852533  0.31774356  1
  Se  Se192  1  0.25062319  0.90731899  0.81048438  1
  Se  Se193  1  0.60973417  0.27129054  0.31279731  1
  Se  Se194  1  0.57891278  0.24534559  0.79736102  1
  Se  Se195  1  0.58646186  0.59252045  0.30655148  1
  Se  Se196  1  0.57941193  0.57703276  0.80223764  1
  Se  Se197  1  0.57501047  0.91998262  0.31080652  1
  Se  Se198  1  0.58667890  0.91512378  0.79102115  1
  Se  Se199  1  0.91867543  0.23190165  0.31802915  1
  Se  Se200  1  0.90375051  0.24464664  0.80926059  1
  Se  Se201  1  0.91779983  0.58114348  0.30032547  1
  Se  Se202  1  0.91656843  0.58378979  0.80389706  1
  Se  Se203  1  0.90291500  0.90222331  0.30977080  1
  Se  Se204  1  0.92655431  0.92508637  0.79684189  1
  Se  Se205  1  0.09541336  0.08350939  0.31797257  1
  Se  Se206  1  0.07768098  0.07986356  0.78618677  1
  Se  Se207  1  0.09725340  0.42297255  0.31950181  1
  Se  Se208  1  0.09131146  0.42614190  0.80787176  1
  Se  Se209  1  0.07601126  0.74588535  0.31127888  1
  Se  Se210  1  0.08870802  0.75428645  0.79808670  1
  Se  Se211  1  0.42775929  0.09300314  0.32201998  1
  Se  Se212  1  0.42192067  0.08578606  0.80761870  1
  Se  Se213  1  0.42418932  0.41990547  0.30761153  1
  Se  Se214  1  0.41573791  0.41301133  0.80554058  1
  Se  Se215  1  0.40665899  0.75494715  0.31021829  1
  Se  Se216  1  0.43157668  0.76223235  0.79798845  1
  Se  Se217  1  0.74978461  0.07823319  0.31053598  1
  Se  Se218  1  0.74946278  0.08033412  0.79791658  1
  Se  Se219  1  0.75300189  0.42072282  0.30167150  1
  Se  Se220  1  0.74476206  0.41559336  0.80309900  1
  Se  Se221  1  0.74484225  0.75225576  0.29471234  1
  Se  Se222  1  0.75825490  0.75361622  0.80428839  1
  Se  Se223  1  0.25325580  0.08626993  0.19875083  1
  Se  Se224  1  0.24363518  0.07676521  0.67714592  1
  Se  Se225  1  0.26270695  0.41441223  0.20747751  1
  Se  Se226  1  0.23293764  0.42289102  0.68096743  1
  Se  Se227  1  0.25210122  0.74913449  0.20360110  1
  Se  Se228  1  0.25284824  0.74820321  0.69199753  1
  Se  Se229  1  0.56862479  0.09224048  0.21066420  1
  Se  Se230  1  0.59027198  0.07332835  0.68875948  1
  Se  Se231  1  0.58766299  0.42481876  0.19747057  1
  Se  Se232  1  0.58250822  0.40970930  0.69586603  1
  Se  Se233  1  0.56925813  0.75701468  0.19829693  1
  Se  Se234  1  0.60175684  0.72515115  0.68983993  1
  Se  Se235  1  0.91343822  0.08681783  0.19224234  1
  Se  Se236  1  0.92204880  0.08821097  0.68849654  1
  Se  Se237  1  0.91767247  0.41689873  0.18979862  1
  Se  Se238  1  0.90695292  0.42559080  0.68697737  1
  Se  Se239  1  0.92562385  0.74068108  0.19647409  1
  Se  Se240  1  0.92211987  0.74560201  0.69713864  1
  Se  Se241  1  0.09488824  0.24756389  0.20280761  1
  Se  Se242  1  0.07338183  0.24808714  0.67934576  1
  Se  Se243  1  0.08820686  0.57864604  0.20625730  1
  Se  Se244  1  0.07823088  0.58934489  0.69381078  1
  Se  Se245  1  0.08675472  0.91054045  0.19328340  1
  Se  Se246  1  0.08996555  0.92319387  0.68948122  1
  Se  Se247  1  0.42569302  0.24936775  0.21196081  1
  Se  Se248  1  0.42139146  0.22933532  0.67943611  1
  Se  Se249  1  0.41853259  0.58807260  0.20103175  1
  Se  Se250  1  0.41523233  0.58246673  0.69527066  1
  Se  Se251  1  0.41831431  0.91927081  0.19167480  1
  Se  Se252  1  0.42617564  0.90796025  0.68036324  1
  Se  Se253  1  0.75451848  0.25129947  0.20397559  1
  Se  Se254  1  0.74585916  0.24851204  0.69354730  1
  Se  Se255  1  0.75248756  0.58513122  0.19078663  1
  Se  Se256  1  0.74704435  0.58420075  0.69816924  1
  Se  Se257  1  0.73174276  0.93539049  0.19906017  1
  Se  Se258  1  0.75494435  0.91368096  0.69674978  1
