# generated using pymatgen
data_In86Cu29Se144
_symmetry_space_group_name_H-M   'P 1'
_cell_length_a   17.55007511
_cell_length_b   17.55139812
_cell_length_c   23.39972057
_cell_angle_alpha   89.99085708
_cell_angle_beta   90.00997571
_cell_angle_gamma   89.99463696
_symmetry_Int_Tables_number   1
_chemical_formula_structural   In86Cu29Se144
_chemical_formula_sum   'In86 Cu29 Se144'
_cell_volume   7207.77720790
_cell_formula_units_Z   1
loop_
 _symmetry_equiv_pos_site_id
 _symmetry_equiv_pos_as_xyz
  1  'x, y, z'
loop_
 _atom_site_type_symbol
 _atom_site_label
 _atom_site_symmetry_multiplicity
 _atom_site_fract_x
 _atom_site_fract_y
 _atom_site_fract_z
 _atom_site_occupancy
  In  In0  1  -0.01030718  0.16018590  0.13116728  1
  In  In1  1  -0.00589125  0.17031287  0.61657745  1
  In  In2  1  0.00744207  0.50331721  0.13050865  1
  In  In3  1  -0.00852744  0.50028318  0.61600549  1
  In  In4  1  0.00846560  0.83634402  0.12860720  1
  In  In5  1  0.00642790  0.82880854  0.61583641  1
  In  In6  1  0.33118206  0.16290852  0.14040253  1
  In  In7  1  0.31681614  0.16692415  0.62130808  1
  In  In8  1  0.33875208  0.49675789  0.13120757  1
  In  In9  1  0.33569655  0.50924570  0.62276249  1
  In  In10  1  0.33827747  0.83193191  0.12694156  1
  In  In11  1  0.32026804  0.83811992  0.62888662  1
  In  In12  1  0.66974927  0.16972570  0.14025694  1
  In  In13  1  0.67207974  0.16524716  0.62248521  1
  In  In14  1  0.65780386  0.51043357  0.12938665  1
  In  In15  1  0.67962237  0.49917603  0.62570849  1
  In  In16  1  0.65829070  0.84684237  0.12566059  1
  In  In17  1  0.68223692  0.82064982  0.63376939  1
  In  In18  1  0.16201098  0.00733127  0.36985201  1
  In  In19  1  0.16185773  -0.00761264  0.86350543  1
  In  In20  1  0.16841413  0.32480943  0.39041834  1
  In  In21  1  0.16834443  0.34338443  0.86538773  1
  In  In22  1  0.14920616  0.67204081  0.39868284  1
  In  In23  1  0.16599360  0.66433831  0.85667189  1
  In  In24  1  0.50196315  0.00097191  0.36744515  1
  In  In25  1  0.48616271  -0.00990584  0.86360573  1
  In  In26  1  0.50316205  0.33677415  0.37353379  1
  In  In27  1  0.51991401  0.33587945  0.87153842  1
  In  In28  1  0.49212509  0.65316433  0.37618893  1
  In  In29  1  0.49207220  0.66653610  0.87521584  1
  In  In30  1  0.83395337  -0.00083425  0.38174778  1
  In  In31  1  0.83263300  -0.00403042  0.86189252  1
  In  In32  1  0.82514565  0.32727962  0.39462402  1
  In  In33  1  0.83289867  0.33816939  0.85124159  1
  In  In34  1  0.85002954  0.65538113  0.40001194  1
  In  In35  1  0.82551354  0.65119569  0.84443719  1
  In  In36  1  0.01630346  0.15168581  0.39877395  1
  In  In37  1  -0.00725006  0.16190053  0.86001176  1
  In  In38  1  0.00123767  0.47716172  0.41316735  1
  In  In39  1  -0.00175217  0.49654330  0.84520960  1
  In  In40  1  -0.00558615  0.83695704  0.38860664  1
  In  In41  1  -0.00409841  0.82675621  0.85812628  1
  In  In42  1  0.31371822  0.16278859  0.36188160  1
  In  In43  1  0.34460556  0.15962047  0.86959500  1
  In  In44  1  0.34449595  0.49364942  0.38451570  1
  In  In45  1  0.33831261  0.51202905  0.86910700  1
  In  In46  1  0.31763939  0.84094521  0.37504690  1
  In  In47  1  0.33208821  0.83422506  0.87239497  1
  In  In48  1  0.67228904  0.17148904  0.37534369  1
  In  In49  1  0.67292865  0.17395282  0.86452224  1
  In  In50  1  0.67922523  0.46747625  0.40126449  1
  In  In51  1  0.65989115  0.49401735  0.86420049  1
  In  In52  1  0.67048096  0.84058451  0.37724544  1
  In  In53  1  0.65660445  0.82643639  0.86433540  1
  In  In54  1  0.17181219  -0.00976767  0.15452152  1
  In  In55  1  0.16525210  -0.00268001  0.62013305  1
  In  In56  1  0.17582035  0.34833716  0.13646179  1
  In  In57  1  0.14085446  0.31936389  0.59981196  1
  In  In58  1  0.16998245  0.66585100  0.12708357  1
  In  In59  1  0.16205197  0.66874950  0.61655454  1
  In  In60  1  0.50298034  0.00124863  0.12817851  1
  In  In61  1  0.50242957  -0.00370015  0.63118057  1
  In  In62  1  0.50222849  0.33708209  0.13278410  1
  In  In63  1  0.50922434  0.35273760  0.61986716  1
  In  In64  1  0.48734751  0.66585497  0.10791871  1
  In  In65  1  0.51150057  0.65268369  0.63808912  1
  In  In66  1  0.82856256  0.00128098  0.14136508  1
  In  In67  1  0.83823719  -0.00029295  0.62112297  1
  In  In68  1  0.83791838  0.31909768  0.13141609  1
  In  In69  1  0.83991423  0.33464169  0.61797281  1
  In  In70  1  0.83674233  0.65418531  0.12336736  1
  In  In71  1  0.83310526  0.66664162  0.61925475  1
  In  In72  1  0.32849219  0.32877329  0.74002402  1
  In  In73  1  0.82498997  0.16274608  -0.00135511  1
  In  In74  1  0.00564610  0.32410911  0.26964663  1
  In  In75  1  0.17119248  0.50880935  0.00369012  1
  In  In76  1  0.16693954  0.16463070  0.01215775  1
  In  In77  1  0.17580955  0.82982046  -0.00248333  1
  In  In78  1  0.66572297  0.66982234  0.25604494  1
  In  In79  1  0.50472179  0.17041419  -0.00272102  1
  In  In80  1  0.32868294  0.67133190  0.25068059  1
  In  In81  1  0.50492498  0.82417666  0.50329925  1
  In  In82  1  0.82543332  0.49404534  -0.01753690  1
  In  In83  1  0.50014600  0.17204569  0.50028154  1
  In  In84  1  0.82840401  0.82710590  -0.00476506  1
  In  In85  1  -0.00902399  0.67385633  0.27571298  1
  Cu  Cu86  1  0.83799434  0.16956584  0.73785820  1
  Cu  Cu87  1  0.83381680  0.48497474  0.26683684  1
  Cu  Cu88  1  0.34302350  0.34379032  0.00575747  1
  Cu  Cu89  1  0.33754407  0.66849996  0.50347338  1
  Cu  Cu90  1  -0.00185095  0.66318542  -0.01404308  1
  Cu  Cu91  1  0.65534805  0.67248162  -0.00586131  1
  Cu  Cu92  1  0.50161084  0.83904157  0.24763171  1
  Cu  Cu93  1  0.32847218  0.33186686  0.49996562  1
  Cu  Cu94  1  0.83576658  0.83213878  0.25992029  1
  Cu  Cu95  1  0.33134859  0.00114893  -0.00307706  1
  Cu  Cu96  1  0.66944722  0.34511945  -0.00014460  1
  Cu  Cu97  1  0.16164522  0.49186041  0.73305808  1
  Cu  Cu98  1  0.83076449  0.16546627  0.26188873  1
  Cu  Cu99  1  0.51107256  0.49367616  0.25474372  1
  Cu  Cu100  1  0.49657126  0.83381092  0.74829981  1
  Cu  Cu101  1  0.50133651  0.50336936  0.74755835  1
  Cu  Cu102  1  0.00338606  -0.00029468  0.50294283  1
  Cu  Cu103  1  0.00872079  0.33034614  -0.01281399  1
  Cu  Cu104  1  0.66522801  0.66018201  0.51119001  1
  Cu  Cu105  1  0.32876121  0.00140529  0.49573390  1
  Cu  Cu106  1  0.65532592  -0.00136400  -0.00243456  1
  Cu  Cu107  1  0.16244578  0.82943039  0.74024483  1
  Cu  Cu108  1  -0.00033316  -0.00625493  0.00257094  1
  Cu  Cu109  1  0.16116731  0.15947547  0.73720712  1
  Cu  Cu110  1  0.50436725  0.16812000  0.74484164  1
  Cu  Cu111  1  0.49916184  0.17066339  0.25460457  1
  Cu  Cu112  1  0.16996233  0.51026056  0.26515363  1
  Cu  Cu113  1  0.67748359  -0.00382775  0.50269677  1
  Cu  Cu114  1  0.84050093  0.84316466  0.73659440  1
  Se  Se115  1  0.07754249  0.06826496  0.06740296  1
  Se  Se116  1  0.08591324  0.08678789  0.55348238  1
  Se  Se117  1  0.07792943  0.40786703  0.05662264  1
  Se  Se118  1  0.09277484  0.43802879  0.54661951  1
  Se  Se119  1  0.07342554  0.73889993  0.05313034  1
  Se  Se120  1  0.10519799  0.76869753  0.54636937  1
  Se  Se121  1  0.40713746  0.08715264  0.05713124  1
  Se  Se122  1  0.41133123  0.07526585  0.55781548  1
  Se  Se123  1  0.42660513  0.42265045  0.06074344  1
  Se  Se124  1  0.40887215  0.41525911  0.55465186  1
  Se  Se125  1  0.40736630  0.75871176  0.04863540  1
  Se  Se126  1  0.41726248  0.74233780  0.56935254  1
  Se  Se127  1  0.73723121  0.07307810  0.06196351  1
  Se  Se128  1  0.75619348  0.08622063  0.55269313  1
  Se  Se129  1  0.75368821  0.41469537  0.06476816  1
  Se  Se130  1  0.75998943  0.42448742  0.55003179  1
  Se  Se131  1  0.73953422  0.73967674  0.06170345  1
  Se  Se132  1  0.75006101  0.75429368  0.54984888  1
  Se  Se133  1  0.26072397  0.26350957  0.06373633  1
  Se  Se134  1  0.24360950  0.24118368  0.54370166  1
  Se  Se135  1  0.26810428  0.59701893  0.05940913  1
  Se  Se136  1  0.25016376  0.58330599  0.55107979  1
  Se  Se137  1  0.24795402  0.93107845  0.06246694  1
  Se  Se138  1  0.24964475  0.91503876  0.55018527  1
  Se  Se139  1  0.59816286  0.25467173  0.05951280  1
  Se  Se140  1  0.59356830  0.26230085  0.55493565  1
  Se  Se141  1  0.58345730  0.58202202  0.05094782  1
  Se  Se142  1  0.58058968  0.57539306  0.56019246  1
  Se  Se143  1  0.57255218  0.91696051  0.05202754  1
  Se  Se144  1  0.59328972  0.91732712  0.56113506  1
  Se  Se145  1  0.92699558  0.25398230  0.05085395  1
  Se  Se146  1  0.93573030  0.26985561  0.54441564  1
  Se  Se147  1  0.92511115  0.57773332  0.04838209  1
  Se  Se148  1  0.92645544  0.60045475  0.54639949  1
  Se  Se149  1  0.91201223  0.91902885  0.06177394  1
  Se  Se150  1  0.91736254  0.91469869  0.55211913  1
  Se  Se151  1  0.05910086  0.27170459  0.45508910  1
  Se  Se152  1  0.08861584  0.24466701  0.93350294  1
  Se  Se153  1  0.06835764  0.58739435  0.46656453  1
  Se  Se154  1  0.07789564  0.57871332  0.92949570  1
  Se  Se155  1  0.08871661  0.92355984  0.44510336  1
  Se  Se156  1  0.07372179  0.91256466  0.93883374  1
  Se  Se157  1  0.40459219  0.24988295  0.43591462  1
  Se  Se158  1  0.41220306  0.26215958  0.93869316  1
  Se  Se159  1  0.42158873  0.58039475  0.45566207  1
  Se  Se160  1  0.42232563  0.57328837  0.94471723  1
  Se  Se161  1  0.41776865  0.91976167  0.44328325  1
  Se  Se162  1  0.41278929  0.91845555  0.94310135  1
  Se  Se163  1  0.73799434  0.24133101  0.45730077  1
  Se  Se164  1  0.74987749  0.26640354  0.93786950  1
  Se  Se165  1  0.74775432  0.57813197  0.45448794  1
  Se  Se166  1  0.74149777  0.59853302  0.93310733  1
  Se  Se167  1  0.75692077  0.90754751  0.45067950  1
  Se  Se168  1  0.74235061  0.92425143  0.93768886  1
  Se  Se169  1  0.24716463  0.08671022  0.44332714  1
  Se  Se170  1  0.24930824  0.08073595  0.93834088  1
  Se  Se171  1  0.24769180  0.42292065  0.44989163  1
  Se  Se172  1  0.25597059  0.41294988  0.94249140  1
  Se  Se173  1  0.25524712  0.75158977  0.44966929  1
  Se  Se174  1  0.25244847  0.73222998  0.93620749  1
  Se  Se175  1  0.58757710  0.07164151  0.44522527  1
  Se  Se176  1  0.58695948  0.08109078  0.93117832  1
  Se  Se177  1  0.55850855  0.42319637  0.45299739  1
  Se  Se178  1  0.58426363  0.42428004  0.94572935  1
  Se  Se179  1  0.59302623  0.73502057  0.43979712  1
  Se  Se180  1  0.57584172  0.75802012  0.94126628  1
  Se  Se181  1  0.91069713  0.08173295  0.45512169  1
  Se  Se182  1  0.92123329  0.07414043  0.94072139  1
  Se  Se183  1  0.89441874  0.41204805  0.47230952  1
  Se  Se184  1  0.92836250  0.41011631  0.92867548  1
  Se  Se185  1  0.93270100  0.74346469  0.46152352  1
  Se  Se186  1  0.91185638  0.73852098  0.92824032  1
  Se  Se187  1  0.24145342  0.26694198  0.30586750  1
  Se  Se188  1  0.24194309  0.23511119  0.80367576  1
  Se  Se189  1  0.24731504  0.59180552  0.32496070  1
  Se  Se190  1  0.24368943  0.56799891  0.79506051  1
  Se  Se191  1  0.25229698  0.92747254  0.30324740  1
  Se  Se192  1  0.24648889  0.90843283  0.79961360  1
  Se  Se193  1  0.58548978  0.25126598  0.30713659  1
  Se  Se194  1  0.58852914  0.25480040  0.79553124  1
  Se  Se195  1  0.59065718  0.56999682  0.31765432  1
  Se  Se196  1  0.57942921  0.58914236  0.80461986  1
  Se  Se197  1  0.58865225  0.91460296  0.30376172  1
  Se  Se198  1  0.58333972  0.92113838  0.79806913  1
  Se  Se199  1  0.91083565  0.23872233  0.32643080  1
  Se  Se200  1  0.92330162  0.25376466  0.79120009  1
  Se  Se201  1  0.91887635  0.55974217  0.32640512  1
  Se  Se202  1  0.92204590  0.58506764  0.78026739  1
  Se  Se203  1  0.91841591  0.91580514  0.31281381  1
  Se  Se204  1  0.92405856  0.92392016  0.79425395  1
  Se  Se205  1  0.08037569  0.10206063  0.30877180  1
  Se  Se206  1  0.08066125  0.07798390  0.79711327  1
  Se  Se207  1  0.08436302  0.43123729  0.32307942  1
  Se  Se208  1  0.08385534  0.40292357  0.78747141  1
  Se  Se209  1  0.09486763  0.76312320  0.31722788  1
  Se  Se210  1  0.07722291  0.74247636  0.79099022  1
  Se  Se211  1  0.41497347  0.08430226  0.30381042  1
  Se  Se212  1  0.41610039  0.08328175  0.79319638  1
  Se  Se213  1  0.41657778  0.41909983  0.30511732  1
  Se  Se214  1  0.42093493  0.41384289  0.80410474  1
  Se  Se215  1  0.42482848  0.75841718  0.31107432  1
  Se  Se216  1  0.41305120  0.75039558  0.80351221  1
  Se  Se217  1  0.74663893  0.07628192  0.31045440  1
  Se  Se218  1  0.75611858  0.09008655  0.79851685  1
  Se  Se219  1  0.74751433  0.40231112  0.31595462  1
  Se  Se220  1  0.76158382  0.44023236  0.79597996  1
  Se  Se221  1  0.76609806  0.74322824  0.32042329  1
  Se  Se222  1  0.75648016  0.76444868  0.79629684  1
  Se  Se223  1  0.24009405  0.09574433  0.20875006  1
  Se  Se224  1  0.25188362  0.07568483  0.69292527  1
  Se  Se225  1  0.25266209  0.43152899  0.20743143  1
  Se  Se226  1  0.23983803  0.40871410  0.67435676  1
  Se  Se227  1  0.23430327  0.76514296  0.19604109  1
  Se  Se228  1  0.24766570  0.74143046  0.69293535  1
  Se  Se229  1  0.58108022  0.08386570  0.20010348  1
  Se  Se230  1  0.58848612  0.08423998  0.69269875  1
  Se  Se231  1  0.59508570  0.41456645  0.19829115  1
  Se  Se232  1  0.58876293  0.42152210  0.69682629  1
  Se  Se233  1  0.57273841  0.74936855  0.18839107  1
  Se  Se234  1  0.58518402  0.75121003  0.69964323  1
  Se  Se235  1  0.91492002  0.08341023  0.20687515  1
  Se  Se236  1  0.92202846  0.08313171  0.68938820  1
  Se  Se237  1  0.91912764  0.41727640  0.19933745  1
  Se  Se238  1  0.91533251  0.42017972  0.68938892  1
  Se  Se239  1  0.90861581  0.74880047  0.19387715  1
  Se  Se240  1  0.91813323  0.75286943  0.68637197  1
  Se  Se241  1  0.08547252  0.25066385  0.19069446  1
  Se  Se242  1  0.08260735  0.24870672  0.68696883  1
  Se  Se243  1  0.08538700  0.58882399  0.20551859  1
  Se  Se244  1  0.08065501  0.58231415  0.68449035  1
  Se  Se245  1  0.06322590  0.92124997  0.20625311  1
  Se  Se246  1  0.08084871  0.91629863  0.68931142  1
  Se  Se247  1  0.41739762  0.25449370  0.19900592  1
  Se  Se248  1  0.42574979  0.24489281  0.68012911  1
  Se  Se249  1  0.43180895  0.58312416  0.19785793  1
  Se  Se250  1  0.40894179  0.58428466  0.70142006  1
  Se  Se251  1  0.41492627  0.92007792  0.19485884  1
  Se  Se252  1  0.41224545  0.91622253  0.69514001  1
  Se  Se253  1  0.75292606  0.25411530  0.20704149  1
  Se  Se254  1  0.75306965  0.25432008  0.68783690  1
  Se  Se255  1  0.76410868  0.57244240  0.20271078  1
  Se  Se256  1  0.73627901  0.60527023  0.68976546  1
  Se  Se257  1  0.74788795  0.90686897  0.20164928  1
  Se  Se258  1  0.74817791  0.92730567  0.69301400  1
