# generated using pymatgen
data_In86Cu29Se144
_symmetry_space_group_name_H-M   'P 1'
_cell_length_a   17.58949873
_cell_length_b   17.58554598
_cell_length_c   23.45143504
_cell_angle_alpha   89.98265711
_cell_angle_beta   89.99141880
_cell_angle_gamma   89.99051200
_symmetry_Int_Tables_number   1
_chemical_formula_structural   In86Cu29Se144
_chemical_formula_sum   'In86 Cu29 Se144'
_cell_volume   7254.01938617
_cell_formula_units_Z   1
loop_
 _symmetry_equiv_pos_site_id
 _symmetry_equiv_pos_as_xyz
  1  'x, y, z'
loop_
 _atom_site_type_symbol
 _atom_site_label
 _atom_site_symmetry_multiplicity
 _atom_site_fract_x
 _atom_site_fract_y
 _atom_site_fract_z
 _atom_site_occupancy
  In  In0  1  0.00319845  0.17129819  0.12083092  1
  In  In1  1  0.00896581  0.17321580  0.62092275  1
  In  In2  1  -0.00146329  0.51315267  0.11474784  1
  In  In3  1  0.00047708  0.49979247  0.62898152  1
  In  In4  1  -0.00659820  0.81489551  0.12817719  1
  In  In5  1  -0.01034372  0.82164317  0.61681597  1
  In  In6  1  0.32759682  0.16716551  0.12686488  1
  In  In7  1  0.32744453  0.18178118  0.63064999  1
  In  In8  1  0.33618195  0.50098116  0.11222151  1
  In  In9  1  0.33346511  0.50201414  0.62458581  1
  In  In10  1  0.34905377  0.83580138  0.12887361  1
  In  In11  1  0.32577056  0.82282467  0.61701742  1
  In  In12  1  0.67487214  0.15628689  0.12042856  1
  In  In13  1  0.66820603  0.15769835  0.62183512  1
  In  In14  1  0.69056379  0.52634262  0.09694978  1
  In  In15  1  0.67842765  0.50888283  0.62023761  1
  In  In16  1  0.65412427  0.83108262  0.13125102  1
  In  In17  1  0.65666648  0.81958731  0.61357580  1
  In  In18  1  0.17609698  -0.01025620  0.38165255  1
  In  In19  1  0.18380514  0.00893584  0.88147791  1
  In  In20  1  0.16068639  0.33908205  0.38526755  1
  In  In21  1  0.16357416  0.33870307  0.87230163  1
  In  In22  1  0.15686900  0.67632135  0.38488270  1
  In  In23  1  0.14791545  0.64791443  0.85946765  1
  In  In24  1  0.48130346  -0.00590197  0.36638088  1
  In  In25  1  0.49364552  -0.02125952  0.88123611  1
  In  In26  1  0.50716063  0.33876939  0.37661018  1
  In  In27  1  0.50056538  0.36426176  0.87926729  1
  In  In28  1  0.50625329  0.66271351  0.37877835  1
  In  In29  1  0.49859069  0.66846008  0.87555958  1
  In  In30  1  0.83895105  -0.00799297  0.38193917  1
  In  In31  1  0.84271098  0.00866467  0.87751701  1
  In  In32  1  0.83564039  0.33211208  0.38475848  1
  In  In33  1  0.83456409  0.33540173  0.87843532  1
  In  In34  1  0.83114912  0.66591853  0.37381470  1
  In  In35  1  0.82794883  0.65912894  0.87226918  1
  In  In36  1  -0.00103153  0.16957830  0.38445263  1
  In  In37  1  -0.00964808  0.18561799  0.88032069  1
  In  In38  1  -0.01243339  0.51281562  0.38423128  1
  In  In39  1  0.00516468  0.50336885  0.87380414  1
  In  In40  1  0.00118244  0.82426056  0.37771237  1
  In  In41  1  0.00493309  0.82762086  0.87079678  1
  In  In42  1  0.33507077  0.15176167  0.37571793  1
  In  In43  1  0.31147677  0.16778062  0.87963085  1
  In  In44  1  0.33141164  0.50226660  0.38339431  1
  In  In45  1  0.32804063  0.50219017  0.86982780  1
  In  In46  1  0.32942393  0.83457341  0.37947897  1
  In  In47  1  0.34773681  0.82829167  0.87958441  1
  In  In48  1  0.66709721  0.17648172  0.37650519  1
  In  In49  1  0.67118543  0.18554352  0.88123268  1
  In  In50  1  0.66095292  0.51062238  0.38176111  1
  In  In51  1  0.64881727  0.52076380  0.89511279  1
  In  In52  1  0.67693924  0.81898276  0.38035825  1
  In  In53  1  0.66483101  0.80576366  0.88095022  1
  In  In54  1  0.16865700  0.01298795  0.12889331  1
  In  In55  1  0.16763762  -0.00192697  0.61661805  1
  In  In56  1  0.16594401  0.33830759  0.11663425  1
  In  In57  1  0.16436020  0.33505123  0.62811237  1
  In  In58  1  0.16368826  0.65615080  0.12008838  1
  In  In59  1  0.16834993  0.66350400  0.62474258  1
  In  In60  1  0.50218885  -0.01097881  0.13113017  1
  In  In61  1  0.50901289  -0.00533429  0.62093625  1
  In  In62  1  0.49766110  0.34241308  0.11888807  1
  In  In63  1  0.48183061  0.33709468  0.63104929  1
  In  In64  1  0.51802994  0.68275471  0.10265974  1
  In  In65  1  0.50224881  0.66355403  0.62425344  1
  In  In66  1  0.82669294  -0.00217706  0.12420948  1
  In  In67  1  0.83859549  0.00088782  0.61339086  1
  In  In68  1  0.82938627  0.34243036  0.11061220  1
  In  In69  1  0.84425018  0.34482934  0.62225390  1
  In  In70  1  0.83611970  0.66453568  0.13360212  1
  In  In71  1  0.83455396  0.66230623  0.62670256  1
  In  In72  1  0.49892553  0.16657084  0.49980936  1
  In  In73  1  0.66380527  0.33728322  0.24849333  1
  In  In74  1  0.66577392  -0.00743840  0.24963051  1
  In  In75  1  0.00110454  0.33955433  0.24292752  1
  In  In76  1  0.66916609  -0.00442353  0.74345896  1
  In  In77  1  0.50299105  0.16916988  0.00142085  1
  In  In78  1  0.17226358  0.83000649  0.00358264  1
  In  In79  1  0.83360919  0.83496289  0.00065267  1
  In  In80  1  0.00457270  -0.00937399  0.25952930  1
  In  In81  1  0.33341286  -0.00530479  0.75173424  1
  In  In82  1  0.33321896  0.33503441  0.24017728  1
  In  In83  1  0.33478731  0.66663291  0.24827397  1
  In  In84  1  0.00260168  -0.00129017  0.75120413  1
  In  In85  1  0.67243432  0.34350619  0.75382960  1
  Cu  Cu86  1  0.33921988  0.66500886  0.50157404  1
  Cu  Cu87  1  0.00060148  0.33358338  0.50692206  1
  Cu  Cu88  1  0.83677527  0.17369030  0.75275507  1
  Cu  Cu89  1  0.00940429  0.00720214  0.00088744  1
  Cu  Cu90  1  0.00427282  0.33855439  -0.00421492  1
  Cu  Cu91  1  0.82810995  0.82109814  0.74488852  1
  Cu  Cu92  1  0.50401957  0.82254268  0.74799739  1
  Cu  Cu93  1  0.16791894  0.83192254  0.25707333  1
  Cu  Cu94  1  0.00122134  -0.00169347  0.49654284  1
  Cu  Cu95  1  0.82642682  0.50752242  0.24989654  1
  Cu  Cu96  1  0.48985170  0.17131855  0.75787300  1
  Cu  Cu97  1  0.83470755  0.16292781  0.24907257  1
  Cu  Cu98  1  0.50193424  0.50390506  0.24751627  1
  Cu  Cu99  1  0.33066271  -0.00046365  0.49872631  1
  Cu  Cu100  1  0.66833593  0.33622991  0.50006998  1
  Cu  Cu101  1  0.15896903  0.17452870  0.75297644  1
  Cu  Cu102  1  0.67239339  0.66190951  0.50074098  1
  Cu  Cu103  1  0.67049697  0.00302107  0.00156044  1
  Cu  Cu104  1  0.17833274  0.16348178  0.25534930  1
  Cu  Cu105  1  0.32838829  0.66116807  -0.00658895  1
  Cu  Cu106  1  0.83616291  0.50261572  0.75145050  1
  Cu  Cu107  1  0.00111168  0.66103800  0.50412562  1
  Cu  Cu108  1  0.16955415  0.49896979  0.74642409  1
  Cu  Cu109  1  0.32629712  0.33684681  0.50616656  1
  Cu  Cu110  1  0.15675494  0.51086990  0.24939328  1
  Cu  Cu111  1  0.16730882  0.82380179  0.74568119  1
  Cu  Cu112  1  0.33058015  0.33380907  -0.00580933  1
  Cu  Cu113  1  0.49787370  0.50706745  0.75106591  1
  Cu  Cu114  1  0.66783699  -0.00495470  0.49650363  1
  Se  Se115  1  0.09072073  0.09038727  0.05495185  1
  Se  Se116  1  0.08192353  0.08195696  0.55258376  1
  Se  Se117  1  0.08294104  0.42333948  0.05232087  1
  Se  Se118  1  0.08388452  0.41847983  0.55830350  1
  Se  Se119  1  0.07164833  0.73865977  0.05133461  1
  Se  Se120  1  0.08619078  0.74712525  0.55417120  1
  Se  Se121  1  0.41768761  0.07930212  0.06285458  1
  Se  Se122  1  0.40675496  0.07987558  0.56377025  1
  Se  Se123  1  0.41787773  0.41626134  0.04435194  1
  Se  Se124  1  0.41698779  0.41804304  0.55352986  1
  Se  Se125  1  0.40467263  0.74699191  0.05067519  1
  Se  Se126  1  0.42274704  0.74970072  0.55385850  1
  Se  Se127  1  0.76096955  0.08314346  0.04874340  1
  Se  Se128  1  0.74815332  0.08241161  0.54931904  1
  Se  Se129  1  0.74104468  0.41057055  0.04076934  1
  Se  Se130  1  0.75366276  0.41748685  0.55342402  1
  Se  Se131  1  0.74485594  0.75024537  0.06280657  1
  Se  Se132  1  0.75637984  0.74602853  0.55371319  1
  Se  Se133  1  0.25441582  0.25288919  0.05513254  1
  Se  Se134  1  0.24430405  0.24908011  0.55592149  1
  Se  Se135  1  0.24475429  0.57972127  0.04788649  1
  Se  Se136  1  0.25198402  0.58337175  0.55379976  1
  Se  Se137  1  0.25543023  0.92220499  0.06478811  1
  Se  Se138  1  0.24848032  0.91270705  0.55036568  1
  Se  Se139  1  0.59634895  0.25620742  0.05936860  1
  Se  Se140  1  0.58602413  0.25889552  0.56266853  1
  Se  Se141  1  0.56354342  0.56388269  0.05001260  1
  Se  Se142  1  0.58462321  0.58084476  0.55362114  1
  Se  Se143  1  0.58938692  0.92152734  0.05712118  1
  Se  Se144  1  0.58102563  0.91348596  0.54776550  1
  Se  Se145  1  0.92318422  0.25629235  0.05400140  1
  Se  Se146  1  0.91395919  0.24778815  0.55607537  1
  Se  Se147  1  0.89439509  0.57815073  0.05512027  1
  Se  Se148  1  0.91645832  0.57848884  0.55759538  1
  Se  Se149  1  0.93096660  0.92377733  0.06038873  1
  Se  Se150  1  0.91721997  0.91261782  0.54796240  1
  Se  Se151  1  0.08347639  0.24999693  0.45175070  1
  Se  Se152  1  0.08908212  0.25198929  0.94582994  1
  Se  Se153  1  0.08668331  0.57908952  0.45012795  1
  Se  Se154  1  0.08645924  0.58410273  0.94510528  1
  Se  Se155  1  0.08253802  0.91209748  0.44405212  1
  Se  Se156  1  0.08087466  0.92316085  0.93955027  1
  Se  Se157  1  0.40673264  0.25930186  0.44133076  1
  Se  Se158  1  0.41586625  0.25594895  0.93513456  1
  Se  Se159  1  0.42143174  0.58103167  0.44745499  1
  Se  Se160  1  0.41423815  0.57965418  0.94028163  1
  Se  Se161  1  0.41628090  0.91765618  0.44720763  1
  Se  Se162  1  0.40459059  0.91930780  0.95425158  1
  Se  Se163  1  0.74967980  0.24766104  0.45000891  1
  Se  Se164  1  0.77376008  0.23558293  0.94722134  1
  Se  Se165  1  0.75745990  0.57893954  0.44757519  1
  Se  Se166  1  0.74374186  0.60170832  0.95189582  1
  Se  Se167  1  0.75355500  0.90995345  0.44762302  1
  Se  Se168  1  0.74316161  0.92205538  0.93522394  1
  Se  Se169  1  0.24699282  0.08578047  0.44890943  1
  Se  Se170  1  0.25759042  0.08149490  0.95774224  1
  Se  Se171  1  0.24596268  0.42185279  0.45082294  1
  Se  Se172  1  0.24833682  0.41914588  0.94148965  1
  Se  Se173  1  0.25295173  0.74860674  0.44924393  1
  Se  Se174  1  0.24686671  0.74071408  0.93312375  1
  Se  Se175  1  0.58504599  0.07595260  0.43687350  1
  Se  Se176  1  0.58973687  0.07684785  0.93633887  1
  Se  Se177  1  0.58260884  0.41889374  0.44835285  1
  Se  Se178  1  0.61410401  0.39239737  0.94328563  1
  Se  Se179  1  0.58619182  0.74564271  0.44951743  1
  Se  Se180  1  0.56448356  0.75807850  0.95018919  1
  Se  Se181  1  0.91423959  0.08367787  0.44788201  1
  Se  Se182  1  0.92232183  0.08746350  0.94793772  1
  Se  Se183  1  0.91839869  0.41575945  0.45041879  1
  Se  Se184  1  0.91994083  0.42105561  0.94293156  1
  Se  Se185  1  0.91853723  0.74171336  0.44588883  1
  Se  Se186  1  0.92181198  0.74571337  0.94012984  1
  Se  Se187  1  0.24797109  0.25505606  0.31296998  1
  Se  Se188  1  0.24860937  0.25323606  0.80373190  1
  Se  Se189  1  0.24237213  0.58173247  0.31134041  1
  Se  Se190  1  0.25276351  0.58638277  0.79679749  1
  Se  Se191  1  0.25318101  0.91645161  0.30476154  1
  Se  Se192  1  0.24133794  0.90469456  0.81027409  1
  Se  Se193  1  0.57170501  0.24219588  0.30462304  1
  Se  Se194  1  0.57535630  0.25326631  0.81065885  1
  Se  Se195  1  0.58427092  0.58282463  0.30445616  1
  Se  Se196  1  0.58345055  0.58331875  0.80790104  1
  Se  Se197  1  0.58173404  0.90620523  0.31401224  1
  Se  Se198  1  0.58274446  0.90630324  0.80703233  1
  Se  Se199  1  0.91419535  0.24684275  0.30669815  1
  Se  Se200  1  0.91716973  0.26063073  0.80258226  1
  Se  Se201  1  0.91647533  0.58320842  0.30341259  1
  Se  Se202  1  0.92001217  0.58644006  0.80466515  1
  Se  Se203  1  0.90509527  0.90111579  0.30725659  1
  Se  Se204  1  0.90331378  0.90713447  0.80504560  1
  Se  Se205  1  0.09066822  0.09046888  0.31370004  1
  Se  Se206  1  0.08733915  0.08866673  0.81485503  1
  Se  Se207  1  0.08381717  0.42597773  0.31032193  1
  Se  Se208  1  0.08293202  0.41923668  0.80109846  1
  Se  Se209  1  0.08288189  0.74632715  0.30439870  1
  Se  Se210  1  0.07575700  0.74709751  0.79595152  1
  Se  Se211  1  0.41995699  0.09203573  0.29989649  1
  Se  Se212  1  0.41965573  0.08336381  0.81696874  1
  Se  Se213  1  0.41991630  0.42448142  0.30598853  1
  Se  Se214  1  0.41512931  0.41956113  0.80071910  1
  Se  Se215  1  0.42089670  0.75276316  0.31193939  1
  Se  Se216  1  0.41518377  0.74764103  0.80242548  1
  Se  Se217  1  0.75629662  0.08633355  0.31120188  1
  Se  Se218  1  0.75293609  0.09062587  0.80689202  1
  Se  Se219  1  0.75650080  0.42021439  0.31205716  1
  Se  Se220  1  0.75194722  0.43532325  0.81740766  1
  Se  Se221  1  0.73813332  0.73378398  0.30380637  1
  Se  Se222  1  0.74560118  0.74299267  0.80195010  1
  Se  Se223  1  0.25858096  0.08022194  0.20150978  1
  Se  Se224  1  0.23829432  0.08746497  0.69541026  1
  Se  Se225  1  0.23925371  0.43208559  0.18995656  1
  Se  Se226  1  0.25365553  0.41528806  0.69383643  1
  Se  Se227  1  0.24109893  0.75485485  0.18765367  1
  Se  Se228  1  0.25534685  0.74502003  0.69436248  1
  Se  Se229  1  0.58224359  0.09179790  0.19300929  1
  Se  Se230  1  0.56969836  0.09399277  0.69591984  1
  Se  Se231  1  0.58293442  0.42842622  0.18527960  1
  Se  Se232  1  0.57871471  0.42550222  0.68995746  1
  Se  Se233  1  0.57197478  0.74311754  0.19345083  1
  Se  Se234  1  0.59009873  0.74360014  0.69401956  1
  Se  Se235  1  0.91870648  0.08351300  0.19282809  1
  Se  Se236  1  0.91053086  0.08786875  0.69158796  1
  Se  Se237  1  0.90396609  0.42594796  0.18851922  1
  Se  Se238  1  0.91823539  0.41667652  0.70046143  1
  Se  Se239  1  0.91364638  0.74903375  0.20332285  1
  Se  Se240  1  0.92080183  0.74441094  0.69556485  1
  Se  Se241  1  0.09872402  0.24318316  0.19431095  1
  Se  Se242  1  0.07663967  0.25466331  0.69756838  1
  Se  Se243  1  0.07425685  0.58898012  0.19304416  1
  Se  Se244  1  0.08465285  0.58430768  0.69570952  1
  Se  Se245  1  0.08953455  0.90746178  0.18968013  1
  Se  Se246  1  0.08823655  0.90915734  0.68792880  1
  Se  Se247  1  0.42997827  0.24457895  0.18925067  1
  Se  Se248  1  0.40830980  0.25478874  0.70493469  1
  Se  Se249  1  0.42030917  0.57846344  0.18509909  1
  Se  Se250  1  0.41537977  0.58647249  0.69402075  1
  Se  Se251  1  0.42176126  0.91396749  0.20348818  1
  Se  Se252  1  0.42502095  0.90812511  0.68974802  1
  Se  Se253  1  0.75883053  0.24634169  0.18978301  1
  Se  Se254  1  0.75236618  0.24668795  0.68979616  1
  Se  Se255  1  0.73922470  0.58144586  0.19255238  1
  Se  Se256  1  0.74963119  0.58377292  0.69859209  1
  Se  Se257  1  0.76113311  0.90289462  0.19420402  1
  Se  Se258  1  0.75765729  0.90746794  0.68248274  1
