# generated using pymatgen
data_In86Cu29Se144
_symmetry_space_group_name_H-M   'P 1'
_cell_length_a   17.75520297
_cell_length_b   17.73417050
_cell_length_c   23.60168255
_cell_angle_alpha   89.98908468
_cell_angle_beta   89.97155050
_cell_angle_gamma   90.03308637
_symmetry_Int_Tables_number   1
_chemical_formula_structural   In86Cu29Se144
_chemical_formula_sum   'In86 Cu29 Se144'
_cell_volume   7431.54910572
_cell_formula_units_Z   1
loop_
 _symmetry_equiv_pos_site_id
 _symmetry_equiv_pos_as_xyz
  1  'x, y, z'
loop_
 _atom_site_type_symbol
 _atom_site_label
 _atom_site_symmetry_multiplicity
 _atom_site_fract_x
 _atom_site_fract_y
 _atom_site_fract_z
 _atom_site_occupancy
  In  In0  1  -0.00033695  0.16340046  0.12861161  1
  In  In1  1  -0.01266414  0.15547982  0.61736581  1
  In  In2  1  0.00263803  0.49603042  0.12614732  1
  In  In3  1  -0.00577819  0.51102249  0.62134701  1
  In  In4  1  0.00180410  0.83172680  0.13459160  1
  In  In5  1  0.00449019  0.84296638  0.61664376  1
  In  In6  1  0.32789844  0.16287395  0.12283221  1
  In  In7  1  0.32182178  0.15186173  0.62361277  1
  In  In8  1  0.33736117  0.50098817  0.11411813  1
  In  In9  1  0.34340361  0.51392519  0.63001642  1
  In  In10  1  0.34702720  0.81928205  0.13649930  1
  In  In11  1  0.33525434  0.83361822  0.63000725  1
  In  In12  1  0.66912956  0.14842242  0.12893004  1
  In  In13  1  0.66517233  0.16222267  0.61068188  1
  In  In14  1  0.67147799  0.50309134  0.12291046  1
  In  In15  1  0.67150089  0.50182808  0.62412875  1
  In  In16  1  0.66816605  0.82527679  0.13165939  1
  In  In17  1  0.65690824  0.81983941  0.61861006  1
  In  In18  1  0.15514383  -0.00548864  0.36988307  1
  In  In19  1  0.17006631  0.00805371  0.87670886  1
  In  In20  1  0.17488466  0.35019394  0.36870921  1
  In  In21  1  0.16155297  0.33540718  0.88467989  1
  In  In22  1  0.17235549  0.66648138  0.36803785  1
  In  In23  1  0.16223044  0.65893744  0.87871723  1
  In  In24  1  0.50783366  -0.00203001  0.36708482  1
  In  In25  1  0.48844319  0.00067889  0.87578585  1
  In  In26  1  0.49946979  0.33076053  0.37404585  1
  In  In27  1  0.51942569  0.34463433  0.87783098  1
  In  In28  1  0.53539825  0.72872853  0.31443243  1
  In  In29  1  0.49418792  0.67867714  0.87860576  1
  In  In30  1  0.83980576  -0.00216172  0.37770981  1
  In  In31  1  0.84435331  -0.00324298  0.87595236  1
  In  In32  1  0.83368876  0.33023724  0.37706192  1
  In  In33  1  0.82218883  0.34049954  0.87934362  1
  In  In34  1  0.83396645  0.66519600  0.37777050  1
  In  In35  1  0.82485431  0.66685003  0.87608303  1
  In  In36  1  -0.00668023  0.16610699  0.36704057  1
  In  In37  1  -0.00021038  0.16430197  0.88080774  1
  In  In38  1  -0.00455826  0.49197388  0.36478709  1
  In  In39  1  -0.00513607  0.50267852  0.88705416  1
  In  In40  1  0.00028730  0.83215578  0.37759775  1
  In  In41  1  -0.00531295  0.83633122  0.86943319  1
  In  In42  1  0.35187119  0.16383650  0.37610744  1
  In  In43  1  0.33040967  0.15257157  0.87785498  1
  In  In44  1  0.37737078  0.57932303  0.32387440  1
  In  In45  1  0.32122102  0.51190568  0.88524323  1
  In  In46  1  0.32015142  0.82503914  0.37330879  1
  In  In47  1  0.33836337  0.84908010  0.87376794  1
  In  In48  1  0.68075368  0.14641207  0.38941773  1
  In  In49  1  0.66762889  0.17498518  0.87695075  1
  In  In50  1  0.66669436  0.54045900  0.36028943  1
  In  In51  1  0.63075294  0.56067995  0.93284927  1
  In  In52  1  0.68052027  0.83587836  0.37953968  1
  In  In53  1  0.66804598  0.81572819  0.87365415  1
  In  In54  1  0.16335586  0.00291794  0.12977665  1
  In  In55  1  0.17957701  -0.02430845  0.64157123  1
  In  In56  1  0.16267608  0.31895322  0.11736810  1
  In  In57  1  0.16352510  0.33321221  0.62545321  1
  In  In58  1  0.17757818  0.64855862  0.13676689  1
  In  In59  1  0.16538086  0.68158075  0.62203219  1
  In  In60  1  0.51373481  -0.02107673  0.14080696  1
  In  In61  1  0.48603549  -0.00712870  0.62016509  1
  In  In62  1  0.49499543  0.33756094  0.11984552  1
  In  In63  1  0.50985950  0.33709653  0.62377278  1
  In  In64  1  0.49878020  0.65864334  0.12285964  1
  In  In65  1  0.49824487  0.66803213  0.63465674  1
  In  In66  1  0.82523310  0.00163843  0.13460406  1
  In  In67  1  0.83772736  0.00771788  0.61591246  1
  In  In68  1  0.84638790  0.33765896  0.12390171  1
  In  In69  1  0.83262577  0.33021699  0.61549461  1
  In  In70  1  0.84155032  0.65862947  0.13114501  1
  In  In71  1  0.81663310  0.66184443  0.61304398  1
  In  In72  1  0.33455212  0.33005589  0.24649972  1
  In  In73  1  0.66539356  0.33349439  0.24842851  1
  In  In74  1  0.66753316  -0.00293117  0.74120472  1
  In  In75  1  0.16783210  0.83814283  0.00564658  1
  In  In76  1  0.49949489  0.16681497  -0.00269680  1
  In  In77  1  0.67301538  0.34050455  0.74738248  1
  In  In78  1  0.15843201  0.16340945  0.49487686  1
  In  In79  1  0.33364795  0.33202725  0.75948041  1
  In  In80  1  0.00425946  0.67502380  0.74536737  1
  In  In81  1  -0.00117618  0.32857501  0.74757131  1
  In  In82  1  0.50652197  0.83164851  0.49062519  1
  In  In83  1  0.83164129  0.83044104  0.00669216  1
  In  In84  1  0.16983956  0.50235560  0.48339070  1
  In  In85  1  0.50075690  0.50153194  0.48716534  1
  Cu  Cu86  1  0.33134435  0.66971776  0.49675341  1
  Cu  Cu87  1  0.83501510  0.83060988  0.74538160  1
  Cu  Cu88  1  0.83625312  0.16081190  0.74560829  1
  Cu  Cu89  1  -0.00023113  0.66262740  0.00689999  1
  Cu  Cu90  1  0.16122386  0.83746177  0.25252872  1
  Cu  Cu91  1  0.49154818  0.16656415  0.74563070  1
  Cu  Cu92  1  0.16721438  0.16745248  0.24597005  1
  Cu  Cu93  1  0.66917720  -0.00557388  0.00824022  1
  Cu  Cu94  1  0.50703283  0.15861094  0.25323296  1
  Cu  Cu95  1  0.83787789  0.16732063  0.25449684  1
  Cu  Cu96  1  0.33102773  0.67215013  0.00571807  1
  Cu  Cu97  1  0.49903468  0.83445751  0.75106696  1
  Cu  Cu98  1  0.33196911  -0.00180315  0.50234032  1
  Cu  Cu99  1  -0.00131184  0.32320957  0.00442254  1
  Cu  Cu100  1  0.33499401  0.33511089  -0.00113343  1
  Cu  Cu101  1  0.67727096  0.33081465  0.00412898  1
  Cu  Cu102  1  0.00389824  -0.00195419  0.49673390  1
  Cu  Cu103  1  -0.01235686  0.66892540  0.49898016  1
  Cu  Cu104  1  0.66481186  0.33451946  0.49661680  1
  Cu  Cu105  1  0.83012532  0.50563010  0.74975017  1
  Cu  Cu106  1  -0.00154756  0.00816291  0.00333447  1
  Cu  Cu107  1  0.33652775  0.33247230  0.49658549  1
  Cu  Cu108  1  0.83304600  0.50123128  0.24762451  1
  Cu  Cu109  1  0.15963531  0.15450531  0.75350646  1
  Cu  Cu110  1  0.17073687  0.49981167  0.75657047  1
  Cu  Cu111  1  0.33875453  -0.00278224  0.00241514  1
  Cu  Cu112  1  0.00054265  0.33993636  0.49435066  1
  Cu  Cu113  1  0.83538416  0.83678796  0.25610611  1
  Cu  Cu114  1  0.50286172  0.51444459  0.76462519  1
  Se  Se115  1  0.08497533  0.08388148  0.05822707  1
  Se  Se116  1  0.08635891  0.07001570  0.56190610  1
  Se  Se117  1  0.07970311  0.40937622  0.05588640  1
  Se  Se118  1  0.08063234  0.41655316  0.55617258  1
  Se  Se119  1  0.07988511  0.74522304  0.06287597  1
  Se  Se120  1  0.07610190  0.74692481  0.55144327  1
  Se  Se121  1  0.42195495  0.07554455  0.06234400  1
  Se  Se122  1  0.41194662  0.08452684  0.55357820  1
  Se  Se123  1  0.42191429  0.41754567  0.04675378  1
  Se  Se124  1  0.41053529  0.41510888  0.56037993  1
  Se  Se125  1  0.41931668  0.74936159  0.05669403  1
  Se  Se126  1  0.41652750  0.74490970  0.55630297  1
  Se  Se127  1  0.75381547  0.07892987  0.05572960  1
  Se  Se128  1  0.75594616  0.08839093  0.54863069  1
  Se  Se129  1  0.75458025  0.41505657  0.05988482  1
  Se  Se130  1  0.74514199  0.41510809  0.55485993  1
  Se  Se131  1  0.74649458  0.73562157  0.06112486  1
  Se  Se132  1  0.74077467  0.75065690  0.54740091  1
  Se  Se133  1  0.25703989  0.24687535  0.05049855  1
  Se  Se134  1  0.25241160  0.25669552  0.55507042  1
  Se  Se135  1  0.24637738  0.58482032  0.05224827  1
  Se  Se136  1  0.25410656  0.58554876  0.55601246  1
  Se  Se137  1  0.26134987  0.92002738  0.06622111  1
  Se  Se138  1  0.25448823  0.91427517  0.55878078  1
  Se  Se139  1  0.59332324  0.25007376  0.06130832  1
  Se  Se140  1  0.58148003  0.25484861  0.55175325  1
  Se  Se141  1  0.58420799  0.57858751  0.05273719  1
  Se  Se142  1  0.57948162  0.58640764  0.56077620  1
  Se  Se143  1  0.58955010  0.91109424  0.06133881  1
  Se  Se144  1  0.58671395  0.92458017  0.55583434  1
  Se  Se145  1  0.91538707  0.24223599  0.05794390  1
  Se  Se146  1  0.92463600  0.25396339  0.55154005  1
  Se  Se147  1  0.91679690  0.57849690  0.05768147  1
  Se  Se148  1  0.90955582  0.58082525  0.55098031  1
  Se  Se149  1  0.92280186  0.92267048  0.06231421  1
  Se  Se150  1  0.91639093  0.91903371  0.54994352  1
  Se  Se151  1  0.08240178  0.26334800  0.43472828  1
  Se  Se152  1  0.08349343  0.24523107  0.94790490  1
  Se  Se153  1  0.06900541  0.59130875  0.43755768  1
  Se  Se154  1  0.08339870  0.58226188  0.95125905  1
  Se  Se155  1  0.08688507  0.91410375  0.44575522  1
  Se  Se156  1  0.07274799  0.92166016  0.94404412  1
  Se  Se157  1  0.42253604  0.25066565  0.44732538  1
  Se  Se158  1  0.41415141  0.25876849  0.93423394  1
  Se  Se159  1  0.40785129  0.59113540  0.43577006  1
  Se  Se160  1  0.41175396  0.59190545  0.94680922  1
  Se  Se161  1  0.40689470  0.91856005  0.43784149  1
  Se  Se162  1  0.42248889  0.91546435  0.95023840  1
  Se  Se163  1  0.75127720  0.25093930  0.44667136  1
  Se  Se164  1  0.75293370  0.24599004  0.94741651  1
  Se  Se165  1  0.75056508  0.57866142  0.44243578  1
  Se  Se166  1  0.77555510  0.56854138  0.94514825  1
  Se  Se167  1  0.73819606  0.93683636  0.44356850  1
  Se  Se168  1  0.74508937  0.91845305  0.94053181  1
  Se  Se169  1  0.25568869  0.07808854  0.43883090  1
  Se  Se170  1  0.25213363  0.07956318  0.95251447  1
  Se  Se171  1  0.27133171  0.41806716  0.43497973  1
  Se  Se172  1  0.24763146  0.41703936  0.94872553  1
  Se  Se173  1  0.24179258  0.74679948  0.44615478  1
  Se  Se174  1  0.25282033  0.74974463  0.94174588  1
  Se  Se175  1  0.56787987  0.08671764  0.44114859  1
  Se  Se176  1  0.59346575  0.07294486  0.94167218  1
  Se  Se177  1  0.59775600  0.41650220  0.43097391  1
  Se  Se178  1  0.59445383  0.41564876  0.95288901  1
  Se  Se179  1  0.57839919  0.73720574  0.42529372  1
  Se  Se180  1  0.59203738  0.74374982  0.94762795  1
  Se  Se181  1  0.92603693  0.08468344  0.44314110  1
  Se  Se182  1  0.91212189  0.08371832  0.94756989  1
  Se  Se183  1  0.91630616  0.41935780  0.44094666  1
  Se  Se184  1  0.92028299  0.40532750  0.94588637  1
  Se  Se185  1  0.91077798  0.75555293  0.44492655  1
  Se  Se186  1  0.92623486  0.74532871  0.94405553  1
  Se  Se187  1  0.24842783  0.23961061  0.31127675  1
  Se  Se188  1  0.23661083  0.24093363  0.81153793  1
  Se  Se189  1  0.23162378  0.55109794  0.31725425  1
  Se  Se190  1  0.24911370  0.58685494  0.80718605  1
  Se  Se191  1  0.24685099  0.91677194  0.30602246  1
  Se  Se192  1  0.24655664  0.92258478  0.81037939  1
  Se  Se193  1  0.58603504  0.23934248  0.31165797  1
  Se  Se194  1  0.57592552  0.24497258  0.80230467  1
  Se  Se195  1  0.54848092  0.57880891  0.30565480  1
  Se  Se196  1  0.58670176  0.58527624  0.82610575  1
  Se  Se197  1  0.56933140  0.88607319  0.31246494  1
  Se  Se198  1  0.58169409  0.91445123  0.81022671  1
  Se  Se199  1  0.91611759  0.25822233  0.30298042  1
  Se  Se200  1  0.90544923  0.24597079  0.80830058  1
  Se  Se201  1  0.91249596  0.58363132  0.30498719  1
  Se  Se202  1  0.91909315  0.58021020  0.80595900  1
  Se  Se203  1  0.92126211  0.91770819  0.30780151  1
  Se  Se204  1  0.91225811  0.91503983  0.80016102  1
  Se  Se205  1  0.08441697  0.08796182  0.30349017  1
  Se  Se206  1  0.07506360  0.08008025  0.81031172  1
  Se  Se207  1  0.09641057  0.42916271  0.29999182  1
  Se  Se208  1  0.08380782  0.42209454  0.80959797  1
  Se  Se209  1  0.08324531  0.75156262  0.30726370  1
  Se  Se210  1  0.09370053  0.75796582  0.80945879  1
  Se  Se211  1  0.41757260  0.07858156  0.30188829  1
  Se  Se212  1  0.41553071  0.08503645  0.80382233  1
  Se  Se213  1  0.41617786  0.41801163  0.30989899  1
  Se  Se214  1  0.42244967  0.42567957  0.81633624  1
  Se  Se215  1  0.38717948  0.73045500  0.30197985  1
  Se  Se216  1  0.41426807  0.75795427  0.80770419  1
  Se  Se217  1  0.75709555  0.08363719  0.30836690  1
  Se  Se218  1  0.75173970  0.08742775  0.80722731  1
  Se  Se219  1  0.74963359  0.42606471  0.30970613  1
  Se  Se220  1  0.74880122  0.43153368  0.81143938  1
  Se  Se221  1  0.75420327  0.75121914  0.30816729  1
  Se  Se222  1  0.75492958  0.74843212  0.80071806  1
  Se  Se223  1  0.25156557  0.08436305  0.19569091  1
  Se  Se224  1  0.24978194  0.07920463  0.70090447  1
  Se  Se225  1  0.24978028  0.41220762  0.18008164  1
  Se  Se226  1  0.24683108  0.42099925  0.69319437  1
  Se  Se227  1  0.24038802  0.75504801  0.19550750  1
  Se  Se228  1  0.25882315  0.73908468  0.69112234  1
  Se  Se229  1  0.59158675  0.07410568  0.20265287  1
  Se  Se230  1  0.57452508  0.09061372  0.68665158  1
  Se  Se231  1  0.57448339  0.42188815  0.19034786  1
  Se  Se232  1  0.57199986  0.43297932  0.69777194  1
  Se  Se233  1  0.57938360  0.74109792  0.19443556  1
  Se  Se234  1  0.58325611  0.75248291  0.69909328  1
  Se  Se235  1  0.91525308  0.08249543  0.19756417  1
  Se  Se236  1  0.91777642  0.07727480  0.69412544  1
  Se  Se237  1  0.91784717  0.41732295  0.19812991  1
  Se  Se238  1  0.90858388  0.42348934  0.69079473  1
  Se  Se239  1  0.91219182  0.75308518  0.19792282  1
  Se  Se240  1  0.90894569  0.75055963  0.68158834  1
  Se  Se241  1  0.08369511  0.24957412  0.19467670  1
  Se  Se242  1  0.08806798  0.23551204  0.68934373  1
  Se  Se243  1  0.06445952  0.59706087  0.19150108  1
  Se  Se244  1  0.09291282  0.57488753  0.69083364  1
  Se  Se245  1  0.08083567  0.92161351  0.19831141  1
  Se  Se246  1  0.07529619  0.90892075  0.69799228  1
  Se  Se247  1  0.43027495  0.23720767  0.19008522  1
  Se  Se248  1  0.41559727  0.25033168  0.68713017  1
  Se  Se249  1  0.40668123  0.58202949  0.18947989  1
  Se  Se250  1  0.41779481  0.58774858  0.70578791  1
  Se  Se251  1  0.40799917  0.92077914  0.20026394  1
  Se  Se252  1  0.41725386  0.91808310  0.69805152  1
  Se  Se253  1  0.75609099  0.24242168  0.19103263  1
  Se  Se254  1  0.75473950  0.24136034  0.68843085  1
  Se  Se255  1  0.74742456  0.58290508  0.19675179  1
  Se  Se256  1  0.74829246  0.58535320  0.69389092  1
  Se  Se257  1  0.74819575  0.91107731  0.19900589  1
  Se  Se258  1  0.75591376  0.90761439  0.68268701  1
