# generated using pymatgen
data_In86Cu29Se144
_symmetry_space_group_name_H-M   'P 1'
_cell_length_a   17.61222942
_cell_length_b   17.60413430
_cell_length_c   23.47686484
_cell_angle_alpha   90.00733712
_cell_angle_beta   90.00569442
_cell_angle_gamma   89.99171600
_symmetry_Int_Tables_number   1
_chemical_formula_structural   In86Cu29Se144
_chemical_formula_sum   'In86 Cu29 Se144'
_cell_volume   7278.95603734
_cell_formula_units_Z   1
loop_
 _symmetry_equiv_pos_site_id
 _symmetry_equiv_pos_as_xyz
  1  'x, y, z'
loop_
 _atom_site_type_symbol
 _atom_site_label
 _atom_site_symmetry_multiplicity
 _atom_site_fract_x
 _atom_site_fract_y
 _atom_site_fract_z
 _atom_site_occupancy
  In  In0  1  -0.00304979  0.16549756  0.12091871  1
  In  In1  1  0.00922737  0.17222685  0.61711700  1
  In  In2  1  0.01953320  0.49306351  0.14118274  1
  In  In3  1  -0.00844830  0.50521617  0.62753893  1
  In  In4  1  -0.00118322  0.83354391  0.12608557  1
  In  In5  1  -0.00658109  0.82802297  0.62910560  1
  In  In6  1  0.33190936  0.16453980  0.13005055  1
  In  In7  1  0.32824136  0.16159219  0.62232812  1
  In  In8  1  0.31256546  0.49662677  0.13491520  1
  In  In9  1  0.34301605  0.48205757  0.61931815  1
  In  In10  1  0.34686461  0.85355351  0.11673201  1
  In  In11  1  0.32984541  0.85548336  0.62706412  1
  In  In12  1  0.65795340  0.15514644  0.11709295  1
  In  In13  1  0.67147792  0.15973171  0.62549891  1
  In  In14  1  0.66974441  0.49505373  0.12130384  1
  In  In15  1  0.64954886  0.49766210  0.61832033  1
  In  In16  1  0.68911195  0.86226907  0.11267540  1
  In  In17  1  0.66110135  0.84149344  0.63359766  1
  In  In18  1  0.16770530  0.00008121  0.37300586  1
  In  In19  1  0.17102467  -0.00147110  0.88309500  1
  In  In20  1  0.15657628  0.32329114  0.36541898  1
  In  In21  1  0.15568110  0.32845146  0.87337784  1
  In  In22  1  0.16344332  0.68252134  0.37748135  1
  In  In23  1  0.16020055  0.68202991  0.87977347  1
  In  In24  1  0.50522404  0.01087185  0.36809966  1
  In  In25  1  0.50072722  0.00190285  0.86484271  1
  In  In26  1  0.49251361  0.32592799  0.38888211  1
  In  In27  1  0.49649877  0.30184792  0.86821097  1
  In  In28  1  0.48935629  0.66552027  0.37928618  1
  In  In29  1  0.51340481  0.67571772  0.87348156  1
  In  In30  1  0.83729689  0.00552249  0.36669568  1
  In  In31  1  0.82088070  0.01549609  0.88494334  1
  In  In32  1  0.83858282  0.32293706  0.37353814  1
  In  In33  1  0.82933764  0.32523597  0.86795203  1
  In  In34  1  0.84369397  0.66574165  0.37228626  1
  In  In35  1  0.83948341  0.66438761  0.87555894  1
  In  In36  1  0.00124553  0.16426045  0.36897679  1
  In  In37  1  -0.00642926  0.17957900  0.89149686  1
  In  In38  1  0.01623058  0.50555217  0.35720126  1
  In  In39  1  -0.00843883  0.49246896  0.86676556  1
  In  In40  1  0.01211417  0.86172959  0.34835553  1
  In  In41  1  0.00422864  0.82883248  0.88486506  1
  In  In42  1  0.33242744  0.15787796  0.37326981  1
  In  In43  1  0.34824133  0.15096064  0.89167350  1
  In  In44  1  0.34341033  0.49262555  0.37976436  1
  In  In45  1  0.33281829  0.49853677  0.87619493  1
  In  In46  1  0.32191488  0.82766787  0.37592091  1
  In  In47  1  0.32907485  0.84747376  0.87800861  1
  In  In48  1  0.66994495  0.15955192  0.38798780  1
  In  In49  1  0.66474949  0.16460820  0.86430707  1
  In  In50  1  0.66122723  0.48522288  0.37912251  1
  In  In51  1  0.67837090  0.49012016  0.87196133  1
  In  In52  1  0.66960597  0.84442174  0.37114529  1
  In  In53  1  0.64825873  0.85929931  0.88505458  1
  In  In54  1  0.16817244  0.00137687  0.12307346  1
  In  In55  1  0.17324039  0.01282666  0.61539451  1
  In  In56  1  0.17345477  0.32702529  0.13605103  1
  In  In57  1  0.16907373  0.31665699  0.62271450  1
  In  In58  1  0.15359943  0.67096235  0.12766102  1
  In  In59  1  0.15181160  0.66808065  0.62491628  1
  In  In60  1  0.50169932  0.00702261  0.12736184  1
  In  In61  1  0.49705915  0.00309684  0.63963485  1
  In  In62  1  0.50178028  0.31585289  0.12490693  1
  In  In63  1  0.49711613  0.33374032  0.62099987  1
  In  In64  1  0.48412554  0.67791559  0.12643310  1
  In  In65  1  0.50365913  0.66007385  0.62417762  1
  In  In66  1  0.83385565  0.00167666  0.12607789  1
  In  In67  1  0.81812036  0.01178054  0.62635880  1
  In  In68  1  0.84852425  0.32838946  0.12005604  1
  In  In69  1  0.84621640  0.31813240  0.62901461  1
  In  In70  1  0.84709158  0.68373206  0.12172268  1
  In  In71  1  0.83665917  0.68354868  0.62967256  1
  In  In72  1  0.32593202  0.67058985  0.75874600  1
  In  In73  1  0.32879093  0.32424157  0.74357311  1
  In  In74  1  0.67267973  0.66716251  0.74644371  1
  In  In75  1  0.49371686  0.83689241  0.50950056  1
  In  In76  1  0.49888161  0.49819201  -0.00133709  1
  In  In77  1  0.17161517  0.48956776  0.49402909  1
  In  In78  1  0.32689135  0.66447127  0.25267939  1
  In  In79  1  0.66615668  0.67332608  0.24788463  1
  In  In80  1  0.00250925  -0.00204127  0.75845608  1
  In  In81  1  0.83450573  0.49962346  -0.00173877  1
  In  In82  1  0.83363896  0.84340885  0.49902469  1
  In  In83  1  0.83198507  0.49616528  0.49450450  1
  In  In84  1  0.16372819  0.49877482  0.01072957  1
  In  In85  1  0.67092768  0.32810409  0.25447805  1
  Cu  Cu86  1  0.16625330  0.16477753  0.75013866  1
  Cu  Cu87  1  0.00312236  0.33140623  0.49463947  1
  Cu  Cu88  1  0.50535189  0.84395750  0.24678711  1
  Cu  Cu89  1  0.49464424  0.16553192  0.25126955  1
  Cu  Cu90  1  0.00169306  -0.00431863  0.00418601  1
  Cu  Cu91  1  0.66386146  0.31945138  -0.00974877  1
  Cu  Cu92  1  0.16429978  0.15867810  0.24926404  1
  Cu  Cu93  1  0.15352993  0.49957215  0.74826114  1
  Cu  Cu94  1  0.66165514  0.67925118  0.00416079  1
  Cu  Cu95  1  0.33418033  0.68099038  -0.00183674  1
  Cu  Cu96  1  0.32677618  0.66068314  0.49946859  1
  Cu  Cu97  1  0.00035212  0.67776726  0.49901449  1
  Cu  Cu98  1  0.83911207  0.16598810  0.75328263  1
  Cu  Cu99  1  0.16985985  0.83676967  0.24584421  1
  Cu  Cu100  1  0.49864795  0.49200801  0.25786895  1
  Cu  Cu101  1  -0.00185879  0.66485424  0.00175712  1
  Cu  Cu102  1  0.33612879  0.00627153  0.00227355  1
  Cu  Cu103  1  0.33008811  -0.00253241  0.49878297  1
  Cu  Cu104  1  0.16222233  0.83665192  0.75629993  1
  Cu  Cu105  1  0.66386059  0.32889971  0.50472212  1
  Cu  Cu106  1  0.83413896  0.49331321  0.74569639  1
  Cu  Cu107  1  0.84075859  0.50707754  0.24501637  1
  Cu  Cu108  1  0.00065945  0.00200428  0.49116815  1
  Cu  Cu109  1  0.66276424  0.66892406  0.49994740  1
  Cu  Cu110  1  0.83433271  0.16511348  0.24797564  1
  Cu  Cu111  1  0.66337789  0.00546113  -0.00390954  1
  Cu  Cu112  1  0.49773074  0.49296483  0.74643977  1
  Cu  Cu113  1  0.83849790  0.82827635  0.75804656  1
  Cu  Cu114  1  0.33142151  0.33239497  0.00797330  1
  Se  Se115  1  0.08436417  0.08266471  0.05435622  1
  Se  Se116  1  0.08411503  0.08601137  0.54610833  1
  Se  Se117  1  0.07563600  0.40193702  0.06244248  1
  Se  Se118  1  0.07461755  0.41332648  0.55888796  1
  Se  Se119  1  0.08124766  0.75031410  0.05338757  1
  Se  Se120  1  0.08032716  0.75810859  0.55544297  1
  Se  Se121  1  0.41816586  0.08892854  0.05793593  1
  Se  Se122  1  0.41250516  0.06838399  0.56202690  1
  Se  Se123  1  0.40869504  0.41765411  0.06607349  1
  Se  Se124  1  0.41711286  0.40740267  0.54559382  1
  Se  Se125  1  0.42211979  0.76061263  0.04926035  1
  Se  Se126  1  0.40185675  0.74169603  0.56487240  1
  Se  Se127  1  0.75112891  0.08133623  0.05239937  1
  Se  Se128  1  0.75860167  0.09409269  0.54921005  1
  Se  Se129  1  0.74011952  0.40171519  0.05160291  1
  Se  Se130  1  0.74881340  0.40977770  0.56097682  1
  Se  Se131  1  0.75424249  0.75387442  0.05432740  1
  Se  Se132  1  0.73910054  0.74989875  0.55884025  1
  Se  Se133  1  0.24947749  0.24932604  0.06078609  1
  Se  Se134  1  0.26264260  0.25720127  0.55357837  1
  Se  Se135  1  0.25969156  0.59735871  0.05939128  1
  Se  Se136  1  0.25130946  0.58225738  0.56373975  1
  Se  Se137  1  0.24979803  0.91975309  0.05047087  1
  Se  Se138  1  0.24337727  0.91394684  0.54981938  1
  Se  Se139  1  0.57928356  0.24459054  0.04910217  1
  Se  Se140  1  0.58484350  0.24618181  0.55983662  1
  Se  Se141  1  0.58558154  0.59202875  0.06146799  1
  Se  Se142  1  0.57656317  0.58393179  0.54706785  1
  Se  Se143  1  0.58116144  0.92376736  0.05394407  1
  Se  Se144  1  0.58958598  0.92661015  0.55940237  1
  Se  Se145  1  0.91102648  0.24007559  0.04868327  1
  Se  Se146  1  0.91939862  0.24915127  0.54851950  1
  Se  Se147  1  0.92754761  0.57784017  0.06375272  1
  Se  Se148  1  0.91486818  0.59747868  0.55371948  1
  Se  Se149  1  0.91548716  0.91511336  0.05718820  1
  Se  Se150  1  0.92447488  0.93023067  0.56117164  1
  Se  Se151  1  0.08322904  0.24541202  0.44155541  1
  Se  Se152  1  0.09365404  0.25056802  0.95225507  1
  Se  Se153  1  0.07676819  0.58829157  0.44362348  1
  Se  Se154  1  0.07558270  0.58193121  0.94066944  1
  Se  Se155  1  0.07903243  0.91415822  0.43818238  1
  Se  Se156  1  0.08641035  0.91459611  0.94992267  1
  Se  Se157  1  0.44024177  0.20875862  0.44292102  1
  Se  Se158  1  0.41793922  0.25324984  0.95337618  1
  Se  Se159  1  0.41630068  0.58126491  0.45054162  1
  Se  Se160  1  0.41043978  0.59641940  0.93912186  1
  Se  Se161  1  0.41266333  0.91971007  0.43781945  1
  Se  Se162  1  0.41814987  0.92758646  0.94230665  1
  Se  Se163  1  0.75033190  0.25719820  0.44586507  1
  Se  Se164  1  0.75073080  0.24158355  0.93753129  1
  Se  Se165  1  0.73999903  0.59213942  0.43763251  1
  Se  Se166  1  0.73619773  0.59258785  0.94443738  1
  Se  Se167  1  0.74128543  0.93290767  0.44335551  1
  Se  Se168  1  0.75201254  0.91713284  0.95038416  1
  Se  Se169  1  0.24796232  0.08080348  0.44480638  1
  Se  Se170  1  0.24463833  0.08745374  0.95370352  1
  Se  Se171  1  0.25705294  0.39600252  0.43750806  1
  Se  Se172  1  0.25522210  0.41280945  0.94639299  1
  Se  Se173  1  0.24673456  0.75155375  0.45257562  1
  Se  Se174  1  0.24776595  0.75925266  0.94531107  1
  Se  Se175  1  0.56126152  0.09721500  0.44827747  1
  Se  Se176  1  0.58344452  0.08433141  0.93607920  1
  Se  Se177  1  0.58049203  0.41279806  0.45165336  1
  Se  Se178  1  0.58440136  0.40814942  0.93587948  1
  Se  Se179  1  0.58562498  0.75271165  0.43955483  1
  Se  Se180  1  0.57835667  0.75887159  0.94893939  1
  Se  Se181  1  0.91589416  0.08443834  0.43957471  1
  Se  Se182  1  0.91917428  0.08038541  0.95115967  1
  Se  Se183  1  0.93105368  0.41810432  0.43388985  1
  Se  Se184  1  0.92085008  0.40550499  0.94155235  1
  Se  Se185  1  0.92402147  0.75740134  0.43749694  1
  Se  Se186  1  0.91301285  0.74618689  0.94896179  1
  Se  Se187  1  0.24876902  0.24014536  0.30437117  1
  Se  Se188  1  0.24867383  0.23974184  0.81344238  1
  Se  Se189  1  0.24541473  0.57827825  0.32015784  1
  Se  Se190  1  0.23244836  0.57415409  0.81312570  1
  Se  Se191  1  0.25241701  0.91473213  0.30431050  1
  Se  Se192  1  0.24610622  0.92281333  0.80496240  1
  Se  Se193  1  0.57822660  0.24320984  0.31337729  1
  Se  Se194  1  0.59627465  0.26132093  0.79693144  1
  Se  Se195  1  0.57900649  0.57828508  0.31046821  1
  Se  Se196  1  0.57936942  0.57231080  0.80594858  1
  Se  Se197  1  0.58758957  0.92397325  0.30252440  1
  Se  Se198  1  0.58960836  0.92157812  0.79781997  1
  Se  Se199  1  0.91864512  0.25067607  0.29954347  1
  Se  Se200  1  0.92509601  0.24646804  0.80608198  1
  Se  Se201  1  0.92216975  0.58927339  0.29931503  1
  Se  Se202  1  0.91023379  0.58050022  0.80177201  1
  Se  Se203  1  0.89764726  0.91196347  0.29392638  1
  Se  Se204  1  0.90957526  0.91379753  0.81955441  1
  Se  Se205  1  0.08025443  0.07504371  0.30199326  1
  Se  Se206  1  0.08712231  0.09260232  0.81661694  1
  Se  Se207  1  0.08385885  0.40927948  0.29448512  1
  Se  Se208  1  0.07917842  0.41036735  0.80180673  1
  Se  Se209  1  0.08673307  0.75135039  0.29927170  1
  Se  Se210  1  0.07734732  0.75181491  0.80520030  1
  Se  Se211  1  0.41087017  0.07725275  0.29915541  1
  Se  Se212  1  0.41563694  0.09504038  0.80577622  1
  Se  Se213  1  0.42097739  0.40612394  0.31119588  1
  Se  Se214  1  0.41869617  0.41594523  0.80875419  1
  Se  Se215  1  0.42612696  0.75934057  0.30485894  1
  Se  Se216  1  0.42236667  0.75946646  0.81053573  1
  Se  Se217  1  0.74669468  0.09363033  0.30693521  1
  Se  Se218  1  0.75324218  0.07887552  0.79969533  1
  Se  Se219  1  0.76250447  0.42830722  0.30683161  1
  Se  Se220  1  0.74990239  0.41095978  0.79763483  1
  Se  Se221  1  0.75941478  0.75719950  0.30799595  1
  Se  Se222  1  0.74810242  0.75602169  0.81578737  1
  Se  Se223  1  0.25109969  0.07773570  0.19677770  1
  Se  Se224  1  0.24773954  0.08221863  0.69543701  1
  Se  Se225  1  0.24622481  0.41407178  0.20790525  1
  Se  Se226  1  0.23918247  0.42453447  0.69005936  1
  Se  Se227  1  0.25401540  0.76005447  0.18560115  1
  Se  Se228  1  0.24035683  0.75625976  0.69248834  1
  Se  Se229  1  0.58476979  0.08798609  0.19864744  1
  Se  Se230  1  0.60571590  0.06635965  0.69638664  1
  Se  Se231  1  0.57958356  0.42066647  0.19253775  1
  Se  Se232  1  0.58124719  0.41374762  0.69224309  1
  Se  Se233  1  0.57951329  0.76155863  0.18561097  1
  Se  Se234  1  0.56944646  0.75398997  0.69626011  1
  Se  Se235  1  0.91874086  0.08378756  0.19446360  1
  Se  Se236  1  0.92091839  0.08678365  0.69126800  1
  Se  Se237  1  0.91506765  0.41509892  0.19393473  1
  Se  Se238  1  0.92119966  0.41208092  0.69462385  1
  Se  Se239  1  0.93115632  0.74184516  0.19801025  1
  Se  Se240  1  0.92221908  0.74636471  0.70555299  1
  Se  Se241  1  0.08148775  0.24140357  0.19464133  1
  Se  Se242  1  0.08346676  0.24761765  0.69617283  1
  Se  Se243  1  0.10276497  0.57964401  0.20312607  1
  Se  Se244  1  0.07513379  0.58673909  0.69618424  1
  Se  Se245  1  0.08545800  0.91767384  0.19216610  1
  Se  Se246  1  0.08927922  0.91683625  0.68986914  1
  Se  Se247  1  0.41461818  0.25264184  0.19859900  1
  Se  Se248  1  0.42548975  0.23717790  0.69118648  1
  Se  Se249  1  0.42290860  0.57265250  0.19447688  1
  Se  Se250  1  0.41293285  0.57707255  0.69455036  1
  Se  Se251  1  0.41644653  0.92510020  0.19713980  1
  Se  Se252  1  0.41819294  0.90952165  0.70188036  1
  Se  Se253  1  0.75366526  0.24419740  0.18590292  1
  Se  Se254  1  0.75520499  0.24477553  0.69530314  1
  Se  Se255  1  0.75582180  0.58128533  0.18595356  1
  Se  Se256  1  0.75658550  0.57350056  0.68237093  1
  Se  Se257  1  0.75288137  0.92126317  0.19871487  1
  Se  Se258  1  0.76349023  0.90771927  0.69474662  1
