# generated using pymatgen
data_In86Cu29Se144
_symmetry_space_group_name_H-M   'P 1'
_cell_length_a   17.58807497
_cell_length_b   17.58356923
_cell_length_c   23.44897602
_cell_angle_alpha   90.02495776
_cell_angle_beta   90.00391601
_cell_angle_gamma   89.99125331
_symmetry_Int_Tables_number   1
_chemical_formula_structural   In86Cu29Se144
_chemical_formula_sum   'In86 Cu29 Se144'
_cell_volume   7251.85612220
_cell_formula_units_Z   1
loop_
 _symmetry_equiv_pos_site_id
 _symmetry_equiv_pos_as_xyz
  1  'x, y, z'
loop_
 _atom_site_type_symbol
 _atom_site_label
 _atom_site_symmetry_multiplicity
 _atom_site_fract_x
 _atom_site_fract_y
 _atom_site_fract_z
 _atom_site_occupancy
  In  In0  1  -0.01056410  0.17773260  0.13014774  1
  In  In1  1  0.00078703  0.16629882  0.62139191  1
  In  In2  1  0.00481530  0.48662285  0.13718898  1
  In  In3  1  -0.01367543  0.50118255  0.61860689  1
  In  In4  1  -0.01014937  0.83837533  0.14059256  1
  In  In5  1  0.00389212  0.84421071  0.62190296  1
  In  In6  1  0.34809442  0.16234767  0.12267962  1
  In  In7  1  0.31721706  0.16612517  0.61969076  1
  In  In8  1  0.32563080  0.49543783  0.11905763  1
  In  In9  1  0.36722061  0.49436542  0.62972531  1
  In  In10  1  0.33977056  0.82611656  0.12335679  1
  In  In11  1  0.33431172  0.82360536  0.63874609  1
  In  In12  1  0.67308013  0.16789614  0.11736432  1
  In  In13  1  0.68765454  0.15576713  0.64230161  1
  In  In14  1  0.65479566  0.50180900  0.12502953  1
  In  In15  1  0.66056807  0.48982568  0.62400229  1
  In  In16  1  0.66419016  0.84243061  0.12332190  1
  In  In17  1  0.67857914  0.84360327  0.61870313  1
  In  In18  1  0.15699512  0.02526850  0.38724393  1
  In  In19  1  0.16546875  -0.00675867  0.85849548  1
  In  In20  1  0.15546451  0.32941848  0.37139905  1
  In  In21  1  0.16824524  0.34771828  0.87504982  1
  In  In22  1  0.15513873  0.67514025  0.37787075  1
  In  In23  1  0.16765763  0.65068128  0.87877341  1
  In  In24  1  0.48609108  -0.00422995  0.38615851  1
  In  In25  1  0.50193951  0.00186478  0.86707906  1
  In  In26  1  0.51247647  0.34251995  0.36852864  1
  In  In27  1  0.50076663  0.32423639  0.88120677  1
  In  In28  1  0.50219557  0.66474247  0.38542549  1
  In  In29  1  0.49450897  0.67005432  0.87969893  1
  In  In30  1  0.84532753  -0.00793830  0.38568482  1
  In  In31  1  0.84407003  0.02236166  0.85537960  1
  In  In32  1  0.82901527  0.33054390  0.37792317  1
  In  In33  1  0.81100820  0.30722676  0.85009673  1
  In  In34  1  0.83404651  0.66401182  0.37988456  1
  In  In35  1  0.83494433  0.67161638  0.87239329  1
  In  In36  1  -0.00423964  0.16753926  0.37765170  1
  In  In37  1  -0.00858800  0.16554968  0.86844729  1
  In  In38  1  -0.03005591  0.47917918  0.35435656  1
  In  In39  1  0.01215593  0.49273771  0.87960713  1
  In  In40  1  -0.01810422  0.82719886  0.36285465  1
  In  In41  1  -0.01158756  0.84117421  0.87254248  1
  In  In42  1  0.31632303  0.17031580  0.38479776  1
  In  In43  1  0.34626433  0.16829396  0.87181042  1
  In  In44  1  0.34787527  0.49483934  0.37947981  1
  In  In45  1  0.32814350  0.50159849  0.87989570  1
  In  In46  1  0.33796320  0.84420436  0.38262629  1
  In  In47  1  0.34497362  0.84659728  0.85759134  1
  In  In48  1  0.66669555  0.18563980  0.37556488  1
  In  In49  1  0.66396981  0.16416772  0.86946134  1
  In  In50  1  0.67762351  0.48532068  0.38545387  1
  In  In51  1  0.66345472  0.48182944  0.87510448  1
  In  In52  1  0.66548385  0.83333462  0.38549153  1
  In  In53  1  0.65469969  0.83581433  0.87351775  1
  In  In54  1  0.16105250  -0.00712289  0.12462547  1
  In  In55  1  0.15336105  0.00246559  0.63541579  1
  In  In56  1  0.15860166  0.34292772  0.13160430  1
  In  In57  1  0.17695453  0.31573360  0.61633624  1
  In  In58  1  0.16927039  0.65583767  0.12616306  1
  In  In59  1  0.17684381  0.68132537  0.63060236  1
  In  In60  1  0.50430120  -0.00074461  0.11251599  1
  In  In61  1  0.50753132  -0.00243587  0.62934286  1
  In  In62  1  0.49958751  0.33024930  0.12437247  1
  In  In63  1  0.50279327  0.34901187  0.62118826  1
  In  In64  1  0.50208531  0.66489336  0.11555782  1
  In  In65  1  0.49245783  0.65472744  0.62709649  1
  In  In66  1  0.82712580  0.01050503  0.12637958  1
  In  In67  1  0.84032112  0.00615438  0.62385448  1
  In  In68  1  0.84135414  0.32523567  0.13392283  1
  In  In69  1  0.83458695  0.33021822  0.62614718  1
  In  In70  1  0.83866512  0.66336590  0.13621736  1
  In  In71  1  0.83027510  0.66584466  0.61099228  1
  In  In72  1  0.16855993  0.83787060  0.50444802  1
  In  In73  1  0.17129864  0.17010542  -0.00499092  1
  In  In74  1  0.67033306  0.66008523  0.25900070  1
  In  In75  1  0.67226918  0.00269199  0.24884094  1
  In  In76  1  0.82513650  0.83831391  0.00090303  1
  In  In77  1  0.16712055  0.50636483  0.49819891  1
  In  In78  1  0.33115866  0.33036036  0.74664161  1
  In  In79  1  0.50395689  0.17068624  0.50352947  1
  In  In80  1  0.32976473  0.66408472  0.24920526  1
  In  In81  1  0.00569555  0.66943378  0.74942829  1
  In  In82  1  0.83318759  0.49052483  0.00237389  1
  In  In83  1  0.32900810  0.00603183  0.25779304  1
  In  In84  1  0.66323625  0.66279414  0.75392637  1
  In  In85  1  0.17295661  0.82900517  -0.00242499  1
  Cu  Cu86  1  0.50703483  0.83451085  0.74731800  1
  Cu  Cu87  1  0.49933792  0.16734461  0.74959540  1
  Cu  Cu88  1  0.83651299  0.84512976  0.74175934  1
  Cu  Cu89  1  0.50190965  0.83489895  0.25048404  1
  Cu  Cu90  1  0.34135188  0.66353529  0.50807450  1
  Cu  Cu91  1  0.00686894  0.66408505  0.00688742  1
  Cu  Cu92  1  0.83686493  0.49434371  0.74620289  1
  Cu  Cu93  1  0.15836060  0.16637490  0.74473300  1
  Cu  Cu94  1  -0.00666527  0.33555068  0.00545304  1
  Cu  Cu95  1  0.65774530  0.67169709  0.50382180  1
  Cu  Cu96  1  0.34251487  0.66925792  -0.00212715  1
  Cu  Cu97  1  -0.00567014  0.66187615  0.49201365  1
  Cu  Cu98  1  0.66335371  0.00140896  -0.00865891  1
  Cu  Cu99  1  0.67121891  0.00749712  0.50765550  1
  Cu  Cu100  1  0.33435058  0.33691982  0.00130357  1
  Cu  Cu101  1  0.67098838  0.33366954  0.50454368  1
  Cu  Cu102  1  0.16981858  0.49830054  0.74966154  1
  Cu  Cu103  1  0.16098700  0.16979966  0.25374837  1
  Cu  Cu104  1  0.66363957  0.32346835  -0.00264445  1
  Cu  Cu105  1  0.66483678  0.66235428  -0.00204425  1
  Cu  Cu106  1  -0.00367108  0.00931238  -0.00492294  1
  Cu  Cu107  1  -0.00117573  0.33040815  0.49439156  1
  Cu  Cu108  1  0.16793064  0.49988382  0.25043860  1
  Cu  Cu109  1  0.50062906  0.49005690  0.24952799  1
  Cu  Cu110  1  0.83711275  0.16715526  0.25274555  1
  Cu  Cu111  1  0.15601102  0.84144150  0.25452795  1
  Cu  Cu112  1  0.34444582  -0.00120568  -0.01125818  1
  Cu  Cu113  1  0.00022813  0.00255101  0.50273796  1
  Cu  Cu114  1  0.49955869  0.17485908  0.24921006  1
  Se  Se115  1  0.07910874  0.08367606  0.05759191  1
  Se  Se116  1  0.08874892  0.08155276  0.55479662  1
  Se  Se117  1  0.07984928  0.41836343  0.05597589  1
  Se  Se118  1  0.07849157  0.41094315  0.55667694  1
  Se  Se119  1  0.07870228  0.75274540  0.06494920  1
  Se  Se120  1  0.07570549  0.73733970  0.55571084  1
  Se  Se121  1  0.42056731  0.08370049  0.04655541  1
  Se  Se122  1  0.41532865  0.07897107  0.56123049  1
  Se  Se123  1  0.41913282  0.41796360  0.05581474  1
  Se  Se124  1  0.40830190  0.40696729  0.54853312  1
  Se  Se125  1  0.42325300  0.75607949  0.05025455  1
  Se  Se126  1  0.41699518  0.75094580  0.56330349  1
  Se  Se127  1  0.74908620  0.07855057  0.04848430  1
  Se  Se128  1  0.75576665  0.09210697  0.55642805  1
  Se  Se129  1  0.74074139  0.40375611  0.06193714  1
  Se  Se130  1  0.75472439  0.41907581  0.55693626  1
  Se  Se131  1  0.74500908  0.73789421  0.06176188  1
  Se  Se132  1  0.75029768  0.75524273  0.54734573  1
  Se  Se133  1  0.25465647  0.25591856  0.06275251  1
  Se  Se134  1  0.25446854  0.24607014  0.54039832  1
  Se  Se135  1  0.25450017  0.59030836  0.05141678  1
  Se  Se136  1  0.25724846  0.58566943  0.56642860  1
  Se  Se137  1  0.26309290  0.92669413  0.05502924  1
  Se  Se138  1  0.25317944  0.91905986  0.57119664  1
  Se  Se139  1  0.57873546  0.24387166  0.05385322  1
  Se  Se140  1  0.59580841  0.25162654  0.56765127  1
  Se  Se141  1  0.58079893  0.57741855  0.04812751  1
  Se  Se142  1  0.58308354  0.58202458  0.55822240  1
  Se  Se143  1  0.58610098  0.91254351  0.04633340  1
  Se  Se144  1  0.58549559  0.92116299  0.55400354  1
  Se  Se145  1  0.90947359  0.24834833  0.05339112  1
  Se  Se146  1  0.91720454  0.25129950  0.55382673  1
  Se  Se147  1  0.92194393  0.58390694  0.06209902  1
  Se  Se148  1  0.90998850  0.57837858  0.54409087  1
  Se  Se149  1  0.92366792  0.92377128  0.05796461  1
  Se  Se150  1  0.91593883  0.91664641  0.55254297  1
  Se  Se151  1  0.08564238  0.24588073  0.44645281  1
  Se  Se152  1  0.07608463  0.25982561  0.94131877  1
  Se  Se153  1  0.06854593  0.57749610  0.43255706  1
  Se  Se154  1  0.08496509  0.57828957  0.95269048  1
  Se  Se155  1  0.07530571  0.91766934  0.43943630  1
  Se  Se156  1  0.07889585  0.92430070  0.94195981  1
  Se  Se157  1  0.42099213  0.25567640  0.43572844  1
  Se  Se158  1  0.41257002  0.24713917  0.95042138  1
  Se  Se159  1  0.42023243  0.57927561  0.45212427  1
  Se  Se160  1  0.41981151  0.57816822  0.94684707  1
  Se  Se161  1  0.42306623  0.90580028  0.45766431  1
  Se  Se162  1  0.42413592  0.91206675  0.93705774  1
  Se  Se163  1  0.75218783  0.24775892  0.45220168  1
  Se  Se164  1  0.74895518  0.24766340  0.93949625  1
  Se  Se165  1  0.74071796  0.59117115  0.44649459  1
  Se  Se166  1  0.74798387  0.58653285  0.93856939  1
  Se  Se167  1  0.74845409  0.92043978  0.45007724  1
  Se  Se168  1  0.75028888  0.92687629  0.93112915  1
  Se  Se169  1  0.27656502  0.05478365  0.44520144  1
  Se  Se170  1  0.25353000  0.07284583  0.93435300  1
  Se  Se171  1  0.25078819  0.41145732  0.43902867  1
  Se  Se172  1  0.24688402  0.41928069  0.95123354  1
  Se  Se173  1  0.25847831  0.73958638  0.44603676  1
  Se  Se174  1  0.26318576  0.74640607  0.93411708  1
  Se  Se175  1  0.59293403  0.07952973  0.43931610  1
  Se  Se176  1  0.57890953  0.08529334  0.93992851  1
  Se  Se177  1  0.58203893  0.41346554  0.45143812  1
  Se  Se178  1  0.58079740  0.41234622  0.94986752  1
  Se  Se179  1  0.57502333  0.75706638  0.45193410  1
  Se  Se180  1  0.58524726  0.74987629  0.94606101  1
  Se  Se181  1  0.91575746  0.08805921  0.45122275  1
  Se  Se182  1  0.91142340  0.08787054  0.94168775  1
  Se  Se183  1  0.91416751  0.41677579  0.44502511  1
  Se  Se184  1  0.91484042  0.40484875  0.93529244  1
  Se  Se185  1  0.91475467  0.75556369  0.44554724  1
  Se  Se186  1  0.92450112  0.74295691  0.94769703  1
  Se  Se187  1  0.24813672  0.24880668  0.30632322  1
  Se  Se188  1  0.23929537  0.24231765  0.80976707  1
  Se  Se189  1  0.24358246  0.57857227  0.31531042  1
  Se  Se190  1  0.25114158  0.58028934  0.80420328  1
  Se  Se191  1  0.23820066  0.91477693  0.31626837  1
  Se  Se192  1  0.24857388  0.91310795  0.79251274  1
  Se  Se193  1  0.58893896  0.25557086  0.29791772  1
  Se  Se194  1  0.57881927  0.25295859  0.80418050  1
  Se  Se195  1  0.57382763  0.57197026  0.31392439  1
  Se  Se196  1  0.57538493  0.57344383  0.81301797  1
  Se  Se197  1  0.57695781  0.91722257  0.31119144  1
  Se  Se198  1  0.58928911  0.92077308  0.79848608  1
  Se  Se199  1  0.91688277  0.25203565  0.30770277  1
  Se  Se200  1  0.93492979  0.26772022  0.80163906  1
  Se  Se201  1  0.91755707  0.59756795  0.30408403  1
  Se  Se202  1  0.91382280  0.57528357  0.80910051  1
  Se  Se203  1  0.91611640  0.92999355  0.30201901  1
  Se  Se204  1  0.92284877  0.92329043  0.79648108  1
  Se  Se205  1  0.07909855  0.08482083  0.30579036  1
  Se  Se206  1  0.07806140  0.08366157  0.80147378  1
  Se  Se207  1  0.08157047  0.41493234  0.29980241  1
  Se  Se208  1  0.08359769  0.41671666  0.80026797  1
  Se  Se209  1  0.07870816  0.74812413  0.30210446  1
  Se  Se210  1  0.08797536  0.75350076  0.81798169  1
  Se  Se211  1  0.42422613  0.09547365  0.31356111  1
  Se  Se212  1  0.41324683  0.08180423  0.79846119  1
  Se  Se213  1  0.41251008  0.41174025  0.30216669  1
  Se  Se214  1  0.41578837  0.41468210  0.81301290  1
  Se  Se215  1  0.41973187  0.75542210  0.30960589  1
  Se  Se216  1  0.42654273  0.74849125  0.80078770  1
  Se  Se217  1  0.75506807  0.09046661  0.31444235  1
  Se  Se218  1  0.74666866  0.09222396  0.79441885  1
  Se  Se219  1  0.74637190  0.41151096  0.30783560  1
  Se  Se220  1  0.74460048  0.41847925  0.79656634  1
  Se  Se221  1  0.75285822  0.76200734  0.31121546  1
  Se  Se222  1  0.75930982  0.76339184  0.80388777  1
  Se  Se223  1  0.24135954  0.09159925  0.19006852  1
  Se  Se224  1  0.24831789  0.08546976  0.69651568  1
  Se  Se225  1  0.25328380  0.41874710  0.19660793  1
  Se  Se226  1  0.24655672  0.42244769  0.68296925  1
  Se  Se227  1  0.23936741  0.76358686  0.19422548  1
  Se  Se228  1  0.24906530  0.74824724  0.70998335  1
  Se  Se229  1  0.57413064  0.08671078  0.18997801  1
  Se  Se230  1  0.58491973  0.08248636  0.69986324  1
  Se  Se231  1  0.58476525  0.41118195  0.19438403  1
  Se  Se232  1  0.57139662  0.42727734  0.69778056  1
  Se  Se233  1  0.58022158  0.75161774  0.19262642  1
  Se  Se234  1  0.58680076  0.75457571  0.68623425  1
  Se  Se235  1  0.91579569  0.08298851  0.19587354  1
  Se  Se236  1  0.92661655  0.08171033  0.69323997  1
  Se  Se237  1  0.90999483  0.41764842  0.20168172  1
  Se  Se238  1  0.92267093  0.41516507  0.69357148  1
  Se  Se239  1  0.91574495  0.74648867  0.20396860  1
  Se  Se240  1  0.90923867  0.75128889  0.68735417  1
  Se  Se241  1  0.07989520  0.25305537  0.19694264  1
  Se  Se242  1  0.08551835  0.25428613  0.68879693  1
  Se  Se243  1  0.08501238  0.58407679  0.19773838  1
  Se  Se244  1  0.08954918  0.57666847  0.68622468  1
  Se  Se245  1  0.07778043  0.92758216  0.20025781  1
  Se  Se246  1  0.08991918  0.89915597  0.69881339  1
  Se  Se247  1  0.41184986  0.25206279  0.19548639  1
  Se  Se248  1  0.42123909  0.24323443  0.68455014  1
  Se  Se249  1  0.42506815  0.57806707  0.19070938  1
  Se  Se250  1  0.40976286  0.59022217  0.70468728  1
  Se  Se251  1  0.42079877  0.91740668  0.19270297  1
  Se  Se252  1  0.42041865  0.91765886  0.69745028  1
  Se  Se253  1  0.74889134  0.24088912  0.19489703  1
  Se  Se254  1  0.74438445  0.26616755  0.70026110  1
  Se  Se255  1  0.75391916  0.56803165  0.19578960  1
  Se  Se256  1  0.75890272  0.58237525  0.69026525  1
  Se  Se257  1  0.76122280  0.90516448  0.19393897  1
  Se  Se258  1  0.74961178  0.92693880  0.69247424  1
