# generated using pymatgen
data_In86Cu29Se144
_symmetry_space_group_name_H-M   'P 1'
_cell_length_a   17.58240384
_cell_length_b   17.58617752
_cell_length_c   23.44557029
_cell_angle_alpha   90.00905179
_cell_angle_beta   90.01486424
_cell_angle_gamma   89.99312558
_symmetry_Int_Tables_number   1
_chemical_formula_structural   In86Cu29Se144
_chemical_formula_sum   'In86 Cu29 Se144'
_cell_volume   7249.54051857
_cell_formula_units_Z   1
loop_
 _symmetry_equiv_pos_site_id
 _symmetry_equiv_pos_as_xyz
  1  'x, y, z'
loop_
 _atom_site_type_symbol
 _atom_site_label
 _atom_site_symmetry_multiplicity
 _atom_site_fract_x
 _atom_site_fract_y
 _atom_site_fract_z
 _atom_site_occupancy
  In  In0  1  -0.00526192  0.15954056  0.12138471  1
  In  In1  1  0.00512849  0.17069014  0.62194134  1
  In  In2  1  -0.00055759  0.49630615  0.11381296  1
  In  In3  1  0.03676959  0.47550556  0.65500687  1
  In  In4  1  0.01486880  0.83790152  0.12907707  1
  In  In5  1  0.00819549  0.81826860  0.63364418  1
  In  In6  1  0.31915968  0.15127232  0.11382814  1
  In  In7  1  0.33556769  0.16972955  0.62245220  1
  In  In8  1  0.34205277  0.50967901  0.11603310  1
  In  In9  1  0.31634805  0.48928122  0.61305296  1
  In  In10  1  0.33615114  0.82311314  0.13672272  1
  In  In11  1  0.33164797  0.81839555  0.60397106  1
  In  In12  1  0.67163794  0.17090138  0.11659067  1
  In  In13  1  0.66210170  0.16411112  0.61919966  1
  In  In14  1  0.66392510  0.50629621  0.11419546  1
  In  In15  1  0.67158584  0.51134955  0.63046502  1
  In  In16  1  0.64694358  0.82839141  0.12254016  1
  In  In17  1  0.65386790  0.82535559  0.62190024  1
  In  In18  1  0.16855701  0.00083305  0.37804412  1
  In  In19  1  0.18447336  0.00715981  0.87820790  1
  In  In20  1  0.16774691  0.33559369  0.38537132  1
  In  In21  1  0.16419808  0.33686927  0.86925945  1
  In  In22  1  0.18638675  0.65915655  0.39417584  1
  In  In23  1  0.14968828  0.66119162  0.86454136  1
  In  In24  1  0.49065103  0.01095631  0.37564644  1
  In  In25  1  0.49031284  -0.00084944  0.89248119  1
  In  In26  1  0.49934998  0.33664942  0.38177653  1
  In  In27  1  0.49071284  0.34352107  0.87637187  1
  In  In28  1  0.49826676  0.67040596  0.37668334  1
  In  In29  1  0.50576538  0.66020664  0.88365512  1
  In  In30  1  0.84703089  0.00355365  0.36869256  1
  In  In31  1  0.84285188  0.01542168  0.87810375  1
  In  In32  1  0.82641965  0.32821243  0.37953601  1
  In  In33  1  0.84939232  0.32432930  0.87626821  1
  In  In34  1  0.83240564  0.67716650  0.36932183  1
  In  In35  1  0.82314623  0.65747588  0.87103838  1
  In  In36  1  0.00535208  0.16357887  0.38210720  1
  In  In37  1  -0.00782839  0.18508072  0.87759911  1
  In  In38  1  0.00814383  0.51446174  0.37833265  1
  In  In39  1  0.00199595  0.49414783  0.87344511  1
  In  In40  1  0.00118143  0.84320624  0.37710486  1
  In  In41  1  0.00924933  0.82340397  0.86858551  1
  In  In42  1  0.33941840  0.15906268  0.37616177  1
  In  In43  1  0.32196388  0.17228179  0.88615857  1
  In  In44  1  0.33081572  0.51262369  0.38691007  1
  In  In45  1  0.33458104  0.49687499  0.87276771  1
  In  In46  1  0.33254117  0.83574931  0.38025689  1
  In  In47  1  0.34440795  0.83830412  0.87986823  1
  In  In48  1  0.66454860  0.16723226  0.37837842  1
  In  In49  1  0.66920917  0.16651821  0.87990408  1
  In  In50  1  0.64915399  0.50494026  0.37485310  1
  In  In51  1  0.65965287  0.51565650  0.88442126  1
  In  In52  1  0.67139171  0.81746641  0.36947570  1
  In  In53  1  0.65786727  0.82002898  0.87901264  1
  In  In54  1  0.15683813  0.00311991  0.13640299  1
  In  In55  1  0.16837051  0.00148932  0.61736934  1
  In  In56  1  0.16707477  0.33378060  0.11603554  1
  In  In57  1  0.17375810  0.33012343  0.62753496  1
  In  In58  1  0.17777264  0.67198023  0.12334406  1
  In  In59  1  0.16633382  0.66319241  0.61810487  1
  In  In60  1  0.48210476  -0.01303634  0.11315723  1
  In  In61  1  0.49614795  -0.00450108  0.61580442  1
  In  In62  1  0.50124864  0.33479002  0.11358573  1
  In  In63  1  0.48676545  0.32517236  0.62258847  1
  In  In64  1  0.49521391  0.66442589  0.12556455  1
  In  In65  1  0.50371425  0.66603750  0.61772387  1
  In  In66  1  0.83963927  0.01606814  0.12738697  1
  In  In67  1  0.82808713  0.00355388  0.62093073  1
  In  In68  1  0.82923180  0.33147672  0.11661974  1
  In  In69  1  0.84715257  0.32880256  0.63160362  1
  In  In70  1  0.82307781  0.65174573  0.11635799  1
  In  In71  1  0.83900091  0.65583350  0.63500640  1
  In  In72  1  0.66378568  -0.00396551  0.76112396  1
  In  In73  1  0.66399137  -0.00354211  0.24482552  1
  In  In74  1  0.83714726  0.49568115  0.50777505  1
  In  In75  1  0.33558188  0.33291264  0.24713362  1
  In  In76  1  0.83380718  0.83830171  0.49481230  1
  In  In77  1  0.00450335  0.67449450  0.25092967  1
  In  In78  1  0.33607384  -0.00664823  0.75420459  1
  In  In79  1  -0.00071478  0.32715168  0.25559314  1
  In  In80  1  0.67060119  0.33791489  0.75360615  1
  In  In81  1  0.66643755  0.33418101  0.23701633  1
  In  In82  1  0.00015964  0.00193297  0.74712937  1
  In  In83  1  0.32637998  0.65779340  0.74094917  1
  In  In84  1  0.82669173  0.83832542  0.00507439  1
  In  In85  1  0.17275809  0.83348144  -0.00419038  1
  Cu  Cu86  1  0.33342783  0.00644874  0.49612772  1
  Cu  Cu87  1  0.33197021  0.33247604  -0.00447354  1
  Cu  Cu88  1  0.49249872  0.83168964  0.25094022  1
  Cu  Cu89  1  0.16476693  0.15927447  0.25277942  1
  Cu  Cu90  1  0.49263001  0.51433133  0.25069750  1
  Cu  Cu91  1  0.49509798  0.16670569  0.74776415  1
  Cu  Cu92  1  0.33369406  0.66228385  0.00106576  1
  Cu  Cu93  1  0.00165746  0.00280661  0.49965639  1
  Cu  Cu94  1  0.33189122  0.33215655  0.50044523  1
  Cu  Cu95  1  0.66321682  0.32797664  0.50229694  1
  Cu  Cu96  1  0.50092818  0.16454350  0.24583030  1
  Cu  Cu97  1  0.82431670  0.49805540  0.24272877  1
  Cu  Cu98  1  0.01020132  0.66141946  0.50856514  1
  Cu  Cu99  1  0.49859386  0.50180396  0.75385852  1
  Cu  Cu100  1  0.83128179  0.82966915  0.24513635  1
  Cu  Cu101  1  0.83389796  0.50639213  0.75809969  1
  Cu  Cu102  1  0.16570056  0.17090284  0.75272629  1
  Cu  Cu103  1  0.00828380  0.33532559  -0.00452548  1
  Cu  Cu104  1  0.66852589  0.00395498  0.00419283  1
  Cu  Cu105  1  0.00742732  0.01172957  0.00026677  1
  Cu  Cu106  1  0.49635237  0.82281623  0.74587559  1
  Cu  Cu107  1  0.66230446  0.00363007  0.49693836  1
  Cu  Cu108  1  0.17289616  0.83605810  0.25748757  1
  Cu  Cu109  1  0.00322794  0.33349638  0.50880320  1
  Cu  Cu110  1  0.17377750  0.50750864  0.25207054  1
  Cu  Cu111  1  0.67221852  0.33872043  -0.00681218  1
  Cu  Cu112  1  -0.00613639  0.66122948  -0.00727024  1
  Cu  Cu113  1  0.66836433  0.66522132  0.49886213  1
  Cu  Cu114  1  0.82609393  0.83040934  0.75204429  1
  Se  Se115  1  0.09284231  0.08663665  0.05769617  1
  Se  Se116  1  0.08509335  0.08702068  0.55250762  1
  Se  Se117  1  0.09041812  0.42147461  0.04776579  1
  Se  Se118  1  0.08670890  0.41731258  0.56091575  1
  Se  Se119  1  0.07508685  0.74233201  0.05314375  1
  Se  Se120  1  0.08739209  0.75787945  0.55286360  1
  Se  Se121  1  0.43658961  0.10497954  0.05851415  1
  Se  Se122  1  0.41701518  0.08705617  0.55289030  1
  Se  Se123  1  0.41437708  0.41716008  0.04898978  1
  Se  Se124  1  0.41685483  0.41573444  0.55233434  1
  Se  Se125  1  0.40910792  0.74873110  0.05793286  1
  Se  Se126  1  0.44045857  0.75967966  0.54710640  1
  Se  Se127  1  0.75803933  0.08566580  0.05168913  1
  Se  Se128  1  0.74783674  0.08350500  0.55093060  1
  Se  Se129  1  0.75183925  0.42066863  0.05125095  1
  Se  Se130  1  0.74327350  0.40515615  0.56548260  1
  Se  Se131  1  0.73371926  0.74199699  0.05365294  1
  Se  Se132  1  0.75407659  0.74152544  0.55874112  1
  Se  Se133  1  0.24867882  0.24906728  0.04960296  1
  Se  Se134  1  0.24867618  0.24743953  0.55348958  1
  Se  Se135  1  0.24393176  0.58242388  0.05140545  1
  Se  Se136  1  0.26942332  0.60334579  0.55353796  1
  Se  Se137  1  0.24720850  0.91384536  0.07070431  1
  Se  Se138  1  0.25276781  0.92101920  0.54972840  1
  Se  Se139  1  0.59086346  0.25487016  0.04893052  1
  Se  Se140  1  0.57597018  0.24701073  0.55475715  1
  Se  Se141  1  0.56334366  0.57411305  0.05388483  1
  Se  Se142  1  0.59065192  0.57823591  0.55321419  1
  Se  Se143  1  0.58208614  0.91726575  0.04976846  1
  Se  Se144  1  0.58619454  0.91554203  0.55092568  1
  Se  Se145  1  0.92557559  0.25567990  0.05488156  1
  Se  Se146  1  0.91435128  0.24879191  0.55375169  1
  Se  Se147  1  0.91297241  0.57898265  0.04853194  1
  Se  Se148  1  0.93046738  0.57959368  0.56694053  1
  Se  Se149  1  0.93028427  0.92390270  0.05809141  1
  Se  Se150  1  0.92579436  0.91840666  0.56165402  1
  Se  Se151  1  0.08334269  0.25129541  0.44996606  1
  Se  Se152  1  0.09142206  0.24946624  0.94371516  1
  Se  Se153  1  0.09154000  0.57652228  0.45488380  1
  Se  Se154  1  0.08320844  0.58153167  0.94282231  1
  Se  Se155  1  0.08467814  0.91756245  0.44830059  1
  Se  Se156  1  0.07721943  0.92531087  0.93798243  1
  Se  Se157  1  0.41433458  0.25014246  0.44414067  1
  Se  Se158  1  0.42064846  0.25067040  0.94534836  1
  Se  Se159  1  0.44305746  0.56651128  0.44369905  1
  Se  Se160  1  0.41380224  0.57791351  0.94481938  1
  Se  Se161  1  0.41949633  0.92190754  0.44571841  1
  Se  Se162  1  0.40224707  0.92132141  0.95815297  1
  Se  Se163  1  0.74804037  0.24647784  0.44931499  1
  Se  Se164  1  0.75532888  0.25100380  0.94389065  1
  Se  Se165  1  0.75345131  0.58657124  0.44033558  1
  Se  Se166  1  0.74807969  0.59274237  0.95121924  1
  Se  Se167  1  0.74232409  0.92611782  0.43359388  1
  Se  Se168  1  0.74402752  0.92724659  0.93635786  1
  Se  Se169  1  0.24692520  0.09033082  0.44586121  1
  Se  Se170  1  0.26656509  0.06932217  0.95406497  1
  Se  Se171  1  0.24946944  0.42113445  0.45054807  1
  Se  Se172  1  0.24939822  0.41549385  0.94071684  1
  Se  Se173  1  0.25236451  0.75996893  0.45479038  1
  Se  Se174  1  0.25458489  0.73657494  0.93430078  1
  Se  Se175  1  0.57804891  0.08821782  0.44511963  1
  Se  Se176  1  0.58532533  0.08534483  0.94796202  1
  Se  Se177  1  0.58612063  0.41644019  0.44925589  1
  Se  Se178  1  0.58170208  0.41826425  0.94406242  1
  Se  Se179  1  0.58886256  0.75131739  0.44522963  1
  Se  Se180  1  0.56275712  0.76412398  0.94944180  1
  Se  Se181  1  0.91361343  0.08264197  0.44751549  1
  Se  Se182  1  0.92019326  0.09419471  0.94990356  1
  Se  Se183  1  0.92816618  0.41077102  0.44038589  1
  Se  Se184  1  0.91830542  0.41661737  0.94631947  1
  Se  Se185  1  0.92850954  0.73780301  0.44485401  1
  Se  Se186  1  0.91745550  0.75253075  0.94044950  1
  Se  Se187  1  0.24208473  0.24771256  0.30946345  1
  Se  Se188  1  0.25371349  0.24854997  0.80659884  1
  Se  Se189  1  0.25255373  0.58714886  0.31041047  1
  Se  Se190  1  0.23773651  0.57001950  0.80265124  1
  Se  Se191  1  0.25485120  0.92196689  0.30888649  1
  Se  Se192  1  0.24224991  0.90194932  0.80944392  1
  Se  Se193  1  0.57715379  0.24883672  0.30432290  1
  Se  Se194  1  0.57658395  0.24442849  0.80876149  1
  Se  Se195  1  0.58303684  0.59200899  0.30207422  1
  Se  Se196  1  0.58117507  0.58549565  0.80564190  1
  Se  Se197  1  0.57749611  0.91027532  0.31032367  1
  Se  Se198  1  0.56300859  0.90922128  0.81201467  1
  Se  Se199  1  0.90607609  0.23924126  0.31127034  1
  Se  Se200  1  0.91918907  0.25086023  0.79692672  1
  Se  Se201  1  0.90932926  0.57533738  0.30347446  1
  Se  Se202  1  0.92226893  0.58828727  0.80816335  1
  Se  Se203  1  0.91472037  0.90784404  0.30109027  1
  Se  Se204  1  0.90694159  0.91159529  0.80991319  1
  Se  Se205  1  0.08039665  0.08120247  0.30888247  1
  Se  Se206  1  0.08946183  0.08692125  0.81287656  1
  Se  Se207  1  0.09173804  0.42614210  0.30837583  1
  Se  Se208  1  0.06940515  0.40495232  0.80098077  1
  Se  Se209  1  0.09475632  0.75135587  0.31844917  1
  Se  Se210  1  0.08692226  0.75389185  0.79336871  1
  Se  Se211  1  0.41448178  0.08469605  0.29815109  1
  Se  Se212  1  0.42160528  0.08738656  0.81343459  1
  Se  Se213  1  0.42059535  0.42408776  0.30939591  1
  Se  Se214  1  0.41279090  0.41528081  0.79931352  1
  Se  Se215  1  0.41213459  0.75103553  0.30901468  1
  Se  Se216  1  0.41567541  0.74518713  0.80740330  1
  Se  Se217  1  0.75100396  0.08755289  0.30583304  1
  Se  Se218  1  0.75963760  0.09485828  0.80421527  1
  Se  Se219  1  0.74961269  0.42154248  0.30891946  1
  Se  Se220  1  0.75450930  0.42533583  0.81868941  1
  Se  Se221  1  0.74830511  0.74252353  0.29319133  1
  Se  Se222  1  0.74260113  0.74929212  0.80637010  1
  Se  Se223  1  0.25309052  0.08237481  0.19862073  1
  Se  Se224  1  0.24561181  0.08600161  0.69511377  1
  Se  Se225  1  0.24527466  0.42434025  0.18853370  1
  Se  Se226  1  0.24332275  0.42598319  0.69440705  1
  Se  Se227  1  0.24655628  0.74489285  0.20380284  1
  Se  Se228  1  0.24768025  0.76096743  0.68645499  1
  Se  Se229  1  0.57953055  0.08723031  0.18283808  1
  Se  Se230  1  0.57528247  0.08151700  0.69318187  1
  Se  Se231  1  0.56846131  0.42828968  0.19039162  1
  Se  Se232  1  0.57686523  0.41989532  0.69041882  1
  Se  Se233  1  0.57597040  0.74837495  0.19767548  1
  Se  Se234  1  0.58322067  0.74136292  0.69545429  1
  Se  Se235  1  0.92945439  0.07836793  0.19927584  1
  Se  Se236  1  0.90773970  0.09071562  0.69043827  1
  Se  Se237  1  0.91293855  0.41950214  0.19073351  1
  Se  Se238  1  0.91170819  0.42346155  0.70040348  1
  Se  Se239  1  0.91022432  0.75043327  0.18200336  1
  Se  Se240  1  0.91317788  0.75022749  0.70026218  1
  Se  Se241  1  0.09271570  0.24624774  0.19215460  1
  Se  Se242  1  0.08366428  0.24914164  0.69493897  1
  Se  Se243  1  0.08614388  0.57755240  0.18949779  1
  Se  Se244  1  0.07640496  0.60488765  0.69453727  1
  Se  Se245  1  0.08204927  0.91517124  0.20749237  1
  Se  Se246  1  0.09616630  0.91395527  0.69325861  1
  Se  Se247  1  0.42177819  0.24484326  0.18424392  1
  Se  Se248  1  0.40933514  0.25009179  0.69858329  1
  Se  Se249  1  0.40423836  0.58995077  0.19646251  1
  Se  Se250  1  0.42242776  0.57223055  0.68423504  1
  Se  Se251  1  0.41462517  0.92066462  0.19819792  1
  Se  Se252  1  0.41832851  0.90488149  0.68657316  1
  Se  Se253  1  0.76444093  0.23824667  0.19276226  1
  Se  Se254  1  0.75046210  0.24185269  0.69160385  1
  Se  Se255  1  0.74096590  0.58185691  0.19207493  1
  Se  Se256  1  0.74694193  0.58751676  0.70597948  1
  Se  Se257  1  0.75485774  0.90834425  0.18172126  1
  Se  Se258  1  0.74897635  0.91014359  0.69050534  1
