# generated using pymatgen
data_In86Cu29Se144
_symmetry_space_group_name_H-M   'P 1'
_cell_length_a   17.58413008
_cell_length_b   17.58870676
_cell_length_c   23.44602362
_cell_angle_alpha   90.02393628
_cell_angle_beta   89.99800923
_cell_angle_gamma   90.00192420
_symmetry_Int_Tables_number   1
_chemical_formula_structural   In86Cu29Se144
_chemical_formula_sum   'In86 Cu29 Se144'
_cell_volume   7251.43495853
_cell_formula_units_Z   1
loop_
 _symmetry_equiv_pos_site_id
 _symmetry_equiv_pos_as_xyz
  1  'x, y, z'
loop_
 _atom_site_type_symbol
 _atom_site_label
 _atom_site_symmetry_multiplicity
 _atom_site_fract_x
 _atom_site_fract_y
 _atom_site_fract_z
 _atom_site_occupancy
  In  In0  1  0.02985713  0.20377162  0.08796057  1
  In  In1  1  0.00977609  0.18217038  0.63067780  1
  In  In2  1  0.00696196  0.47745725  0.12000162  1
  In  In3  1  0.00188261  0.49552151  0.62301294  1
  In  In4  1  0.00038927  0.84154280  0.12273868  1
  In  In5  1  -0.00237845  0.82949837  0.61940804  1
  In  In6  1  0.35915418  0.20368831  0.08913792  1
  In  In7  1  0.34898289  0.17037464  0.62971165  1
  In  In8  1  0.33549716  0.50055656  0.12388208  1
  In  In9  1  0.33042237  0.49239686  0.61988801  1
  In  In10  1  0.32672359  0.83827589  0.12972673  1
  In  In11  1  0.32900583  0.82637034  0.61557507  1
  In  In12  1  0.67963606  0.17648422  0.11256572  1
  In  In13  1  0.63787861  0.16862325  0.63662132  1
  In  In14  1  0.64617616  0.49965466  0.12271761  1
  In  In15  1  0.67311185  0.50490318  0.62164809  1
  In  In16  1  0.67207898  0.82674830  0.12200242  1
  In  In17  1  0.66355585  0.83182167  0.62510529  1
  In  In18  1  0.15619627  -0.00074349  0.37402156  1
  In  In19  1  0.15919862  0.00382283  0.88289264  1
  In  In20  1  0.17947566  0.34282629  0.36295392  1
  In  In21  1  0.16898989  0.32538821  0.87866492  1
  In  In22  1  0.18189661  0.65059104  0.38208184  1
  In  In23  1  0.17261476  0.66632215  0.88094117  1
  In  In24  1  0.50241527  -0.00305348  0.38286429  1
  In  In25  1  0.51727451  0.00838158  0.87260770  1
  In  In26  1  0.49988334  0.33260435  0.37622026  1
  In  In27  1  0.48995503  0.33518517  0.88808410  1
  In  In28  1  0.48664819  0.67285117  0.37882111  1
  In  In29  1  0.49448460  0.64326719  0.86902474  1
  In  In30  1  0.82050961  -0.00388655  0.37781335  1
  In  In31  1  0.81094801  0.00842828  0.88491463  1
  In  In32  1  0.84065059  0.34054863  0.36724521  1
  In  In33  1  0.83933009  0.32061793  0.87894599  1
  In  In34  1  0.83090949  0.66686683  0.38411363  1
  In  In35  1  0.83358133  0.67561024  0.87121818  1
  In  In36  1  -0.00469528  0.17276652  0.36880870  1
  In  In37  1  0.00211913  0.17376877  0.87600987  1
  In  In38  1  0.00966117  0.49273261  0.37923527  1
  In  In39  1  0.01852786  0.48796322  0.88394246  1
  In  In40  1  0.00104663  0.83108821  0.38279801  1
  In  In41  1  -0.00788863  0.83436933  0.88136576  1
  In  In42  1  0.33443089  0.18184623  0.37019689  1
  In  In43  1  0.32101644  0.18867081  0.89336652  1
  In  In44  1  0.33398780  0.49723312  0.37453146  1
  In  In45  1  0.34649892  0.46797304  0.90578436  1
  In  In46  1  0.34814056  0.81585342  0.38009035  1
  In  In47  1  0.32658643  0.82557357  0.87597778  1
  In  In48  1  0.65347230  0.16507543  0.37446714  1
  In  In49  1  0.66619882  0.16401982  0.88257614  1
  In  In50  1  0.67415512  0.49095408  0.38193575  1
  In  In51  1  0.64726528  0.49548327  0.86776612  1
  In  In52  1  0.66345306  0.83430926  0.38424821  1
  In  In53  1  0.67050146  0.83891919  0.86556392  1
  In  In54  1  0.16985405  0.00297674  0.11861511  1
  In  In55  1  0.17810818  -0.00082746  0.62636508  1
  In  In56  1  0.17599338  0.33939706  0.11796373  1
  In  In57  1  0.16070703  0.34114445  0.63547452  1
  In  In58  1  0.17337471  0.67777135  0.12560004  1
  In  In59  1  0.16603713  0.66149568  0.61934646  1
  In  In60  1  0.49103772  0.00701343  0.12269111  1
  In  In61  1  0.50530587  0.00634735  0.62112458  1
  In  In62  1  0.49718646  0.34260447  0.12416665  1
  In  In63  1  0.49397060  0.33071959  0.62005997  1
  In  In64  1  0.50227825  0.65536249  0.12691093  1
  In  In65  1  0.50438114  0.66773798  0.61928700  1
  In  In66  1  0.83699060  0.01403393  0.11206226  1
  In  In67  1  0.82976710  -0.01246417  0.62620411  1
  In  In68  1  0.84104253  0.32528901  0.12780853  1
  In  In69  1  0.83376696  0.34490135  0.62673276  1
  In  In70  1  0.82517208  0.67381119  0.12272319  1
  In  In71  1  0.82581227  0.65947915  0.62055148  1
  In  In72  1  -0.00046461  0.00880581  0.24067015  1
  In  In73  1  0.66455676  0.00454226  0.25324295  1
  In  In74  1  0.32897332  0.00789908  0.24256995  1
  In  In75  1  0.50494577  0.83710202  -0.00329347  1
  In  In76  1  0.65882081  0.66150778  0.25241667  1
  In  In77  1  0.34227704  0.01071483  0.75175538  1
  In  In78  1  0.66622106  0.33171391  0.75335635  1
  In  In79  1  -0.00314060  0.66011105  0.74517390  1
  In  In80  1  0.82765987  0.16155669  0.49869807  1
  In  In81  1  0.00399965  0.65856957  0.25661037  1
  In  In82  1  0.17045002  0.16671117  0.50168987  1
  In  In83  1  0.83663738  0.50091115  -0.00399804  1
  In  In84  1  -0.00740994  0.00762690  0.76294031  1
  In  In85  1  0.33153853  0.65799799  0.74523293  1
  Cu  Cu86  1  0.16966042  0.17902251  0.23324607  1
  Cu  Cu87  1  0.66437230  0.66895715  -0.00225588  1
  Cu  Cu88  1  0.66484766  0.33656101  -0.00043141  1
  Cu  Cu89  1  0.50241375  0.83069711  0.74411991  1
  Cu  Cu90  1  0.82754606  0.49054679  0.25016992  1
  Cu  Cu91  1  0.33233747  0.00057547  -0.00017465  1
  Cu  Cu92  1  0.00160404  -0.00942845  0.50155071  1
  Cu  Cu93  1  0.15764014  0.83983196  0.75156030  1
  Cu  Cu94  1  -0.00031742  0.67417121  0.00434312  1
  Cu  Cu95  1  0.17918032  0.82748708  0.25540701  1
  Cu  Cu96  1  0.66534984  0.33348167  0.50463970  1
  Cu  Cu97  1  0.49720342  0.17540271  0.24518074  1
  Cu  Cu98  1  0.66439341  -0.00468974  0.50415799  1
  Cu  Cu99  1  0.83223005  0.83776777  0.25053771  1
  Cu  Cu100  1  0.00481018  0.33786436  0.49782886  1
  Cu  Cu101  1  0.33479655  0.33462481  0.49636978  1
  Cu  Cu102  1  0.16966792  0.49405640  0.24853110  1
  Cu  Cu103  1  0.83214018  0.16309289  0.75691117  1
  Cu  Cu104  1  0.66470601  0.66527530  0.50131826  1
  Cu  Cu105  1  0.33370884  0.66023488  0.49962208  1
  Cu  Cu106  1  0.33249272  -0.00562261  0.50122752  1
  Cu  Cu107  1  -0.00068086  0.66718620  0.50130087  1
  Cu  Cu108  1  0.32895560  0.67168038  0.00255479  1
  Cu  Cu109  1  -0.00919043  -0.01142488  -0.00605486  1
  Cu  Cu110  1  0.81533385  0.83388795  0.75013926  1
  Cu  Cu111  1  0.84163576  0.49615572  0.74691333  1
  Cu  Cu112  1  0.17973522  0.48789171  0.75981792  1
  Cu  Cu113  1  0.49272750  0.49377353  0.25190658  1
  Cu  Cu114  1  0.83755106  0.17894323  0.24095154  1
  Se  Se115  1  0.06955993  0.06849885  0.05446843  1
  Se  Se116  1  0.07480862  0.07760529  0.56114065  1
  Se  Se117  1  0.10456448  0.43159153  0.04590370  1
  Se  Se118  1  0.08920608  0.41501978  0.55539723  1
  Se  Se119  1  0.08390369  0.75539849  0.05855525  1
  Se  Se120  1  0.08507636  0.74933074  0.55387479  1
  Se  Se121  1  0.42305034  0.08370848  0.04423954  1
  Se  Se122  1  0.41186650  0.08116476  0.55463975  1
  Se  Se123  1  0.41270581  0.41805792  0.05228509  1
  Se  Se124  1  0.41896357  0.41772783  0.54945144  1
  Se  Se125  1  0.41542315  0.75012595  0.06083810  1
  Se  Se126  1  0.41692799  0.74644477  0.55094032  1
  Se  Se127  1  0.73980536  0.07696919  0.04591270  1
  Se  Se128  1  0.73854736  0.08137214  0.56548021  1
  Se  Se129  1  0.74540104  0.41740034  0.06068069  1
  Se  Se130  1  0.75340694  0.41695015  0.55266569  1
  Se  Se131  1  0.75105541  0.75123865  0.04711215  1
  Se  Se132  1  0.74799450  0.74988765  0.55521126  1
  Se  Se133  1  0.22610093  0.23191866  0.05006335  1
  Se  Se134  1  0.25713583  0.25704203  0.56182506  1
  Se  Se135  1  0.24984898  0.58845693  0.05878141  1
  Se  Se136  1  0.24845891  0.57823129  0.55257083  1
  Se  Se137  1  0.25253804  0.91482873  0.05374012  1
  Se  Se138  1  0.24401494  0.91422629  0.55174421  1
  Se  Se139  1  0.58135192  0.25661075  0.05585422  1
  Se  Se140  1  0.58170999  0.24687551  0.55336629  1
  Se  Se141  1  0.57893324  0.58549830  0.04814692  1
  Se  Se142  1  0.58308038  0.57837280  0.55220292  1
  Se  Se143  1  0.59066415  0.92406636  0.06136329  1
  Se  Se144  1  0.57806593  0.91218731  0.55521378  1
  Se  Se145  1  0.89803479  0.24024137  0.04954749  1
  Se  Se146  1  0.92271118  0.25453261  0.55450460  1
  Se  Se147  1  0.92374299  0.58860715  0.06415109  1
  Se  Se148  1  0.91984464  0.58199895  0.55725259  1
  Se  Se149  1  0.90918248  0.91071637  0.05361494  1
  Se  Se150  1  0.91228661  0.91317819  0.55339021  1
  Se  Se151  1  0.08288820  0.25506300  0.43753838  1
  Se  Se152  1  0.08892715  0.24117935  0.94924614  1
  Se  Se153  1  0.08230911  0.58358269  0.44711813  1
  Se  Se154  1  0.07869274  0.59321676  0.94649898  1
  Se  Se155  1  0.08904763  0.91328870  0.44793927  1
  Se  Se156  1  0.08454686  0.90934172  0.94710969  1
  Se  Se157  1  0.41756867  0.24696723  0.44643373  1
  Se  Se158  1  0.41207193  0.25826659  0.96394037  1
  Se  Se159  1  0.41707752  0.57742604  0.44560331  1
  Se  Se160  1  0.41206569  0.58754734  0.95022240  1
  Se  Se161  1  0.41723280  0.91258256  0.44726633  1
  Se  Se162  1  0.41138754  0.92280956  0.93555336  1
  Se  Se163  1  0.74424417  0.25605200  0.43886482  1
  Se  Se164  1  0.74861568  0.25219396  0.94822460  1
  Se  Se165  1  0.75018465  0.58089514  0.44968999  1
  Se  Se166  1  0.74220453  0.58620141  0.93648404  1
  Se  Se167  1  0.75115578  0.91374448  0.45206743  1
  Se  Se168  1  0.75021831  0.90128964  0.94448166  1
  Se  Se169  1  0.25800755  0.07747082  0.43752960  1
  Se  Se170  1  0.24639741  0.08322790  0.94908957  1
  Se  Se171  1  0.24712484  0.41571693  0.44419661  1
  Se  Se172  1  0.21977291  0.42955665  0.95205882  1
  Se  Se173  1  0.25122114  0.74839546  0.44743259  1
  Se  Se174  1  0.24514109  0.75646689  0.95143826  1
  Se  Se175  1  0.58492234  0.08178551  0.44981198  1
  Se  Se176  1  0.58950239  0.07714505  0.95214306  1
  Se  Se177  1  0.58230076  0.41389920  0.44724717  1
  Se  Se178  1  0.58182760  0.42214438  0.94935906  1
  Se  Se179  1  0.58041309  0.74654827  0.44657441  1
  Se  Se180  1  0.58245993  0.74152717  0.93250154  1
  Se  Se181  1  0.92653361  0.07356089  0.43952294  1
  Se  Se182  1  0.92013183  0.07871994  0.93752927  1
  Se  Se183  1  0.91626022  0.41566640  0.44444034  1
  Se  Se184  1  0.92905973  0.40160572  0.94951532  1
  Se  Se185  1  0.91486155  0.75158769  0.44945482  1
  Se  Se186  1  0.91140509  0.74760388  0.94832754  1
  Se  Se187  1  0.25364701  0.25232697  0.29470953  1
  Se  Se188  1  0.26886481  0.26630169  0.80943477  1
  Se  Se189  1  0.25208686  0.57907160  0.30199971  1
  Se  Se190  1  0.25463029  0.57404489  0.81736707  1
  Se  Se191  1  0.25193487  0.91709326  0.31266591  1
  Se  Se192  1  0.24413342  0.91647427  0.80774583  1
  Se  Se193  1  0.58224296  0.25152293  0.30324924  1
  Se  Se194  1  0.57602975  0.24926012  0.81692209  1
  Se  Se195  1  0.57436385  0.57180329  0.31476020  1
  Se  Se196  1  0.58569398  0.58517294  0.79534906  1
  Se  Se197  1  0.57704488  0.90832259  0.30817541  1
  Se  Se198  1  0.57974089  0.91662088  0.79968953  1
  Se  Se199  1  0.92269946  0.25690645  0.29789073  1
  Se  Se200  1  0.91848001  0.24928075  0.80221464  1
  Se  Se201  1  0.90442170  0.57338859  0.31126071  1
  Se  Se202  1  0.91818385  0.57103978  0.81459432  1
  Se  Se203  1  0.91527881  0.91713335  0.30845490  1
  Se  Se204  1  0.89945406  0.91017116  0.81112958  1
  Se  Se205  1  0.09612757  0.09891651  0.29941240  1
  Se  Se206  1  0.09753478  0.09528211  0.80634481  1
  Se  Se207  1  0.07965362  0.41538716  0.30056472  1
  Se  Se208  1  0.08594824  0.40925538  0.80650033  1
  Se  Se209  1  0.09342644  0.75231357  0.31364614  1
  Se  Se210  1  0.08247174  0.75307432  0.80891238  1
  Se  Se211  1  0.42572787  0.08828402  0.30763112  1
  Se  Se212  1  0.41369143  0.09569384  0.82428717  1
  Se  Se213  1  0.41188672  0.40863647  0.30612170  1
  Se  Se214  1  0.42415219  0.42854622  0.81801627  1
  Se  Se215  1  0.41700175  0.74598731  0.29929556  1
  Se  Se216  1  0.42037501  0.75424532  0.80550908  1
  Se  Se217  1  0.76269258  0.09829960  0.30614384  1
  Se  Se218  1  0.74212524  0.08462615  0.80540955  1
  Se  Se219  1  0.74162820  0.41059542  0.30296246  1
  Se  Se220  1  0.76137974  0.42076000  0.81268645  1
  Se  Se221  1  0.75383220  0.75579588  0.30903240  1
  Se  Se222  1  0.74126801  0.73992315  0.80008759  1
  Se  Se223  1  0.25328722  0.10023676  0.17672207  1
  Se  Se224  1  0.24437950  0.09645329  0.69399662  1
  Se  Se225  1  0.25500665  0.41477714  0.19375215  1
  Se  Se226  1  0.26073165  0.41262094  0.69794882  1
  Se  Se227  1  0.25986092  0.74568166  0.20068894  1
  Se  Se228  1  0.23744794  0.75722721  0.69348093  1
  Se  Se229  1  0.57990812  0.09353481  0.18838118  1
  Se  Se230  1  0.56843497  0.07838076  0.70444007  1
  Se  Se231  1  0.58172367  0.41587519  0.19922198  1
  Se  Se232  1  0.58384698  0.41878949  0.68753155  1
  Se  Se233  1  0.57708826  0.75778362  0.19210429  1
  Se  Se234  1  0.58415954  0.74435707  0.69354159  1
  Se  Se235  1  0.91765157  0.10118712  0.18048865  1
  Se  Se236  1  0.91072782  0.09006146  0.68851144  1
  Se  Se237  1  0.91708476  0.41657716  0.19485564  1
  Se  Se238  1  0.92622670  0.41258609  0.69678412  1
  Se  Se239  1  0.91475358  0.75348386  0.19567605  1
  Se  Se240  1  0.90557000  0.75809587  0.69349601  1
  Se  Se241  1  0.08034567  0.25945919  0.18321041  1
  Se  Se242  1  0.08975508  0.25020510  0.70442147  1
  Se  Se243  1  0.08824261  0.57488108  0.18883248  1
  Se  Se244  1  0.09992351  0.57056220  0.69759036  1
  Se  Se245  1  0.09763231  0.90908835  0.19648416  1
  Se  Se246  1  0.07813388  0.91912093  0.69249488  1
  Se  Se247  1  0.41176218  0.25047827  0.18699086  1
  Se  Se248  1  0.42962140  0.24922139  0.69840397  1
  Se  Se249  1  0.41651694  0.58202971  0.19743459  1
  Se  Se250  1  0.42469485  0.57348236  0.68704724  1
  Se  Se251  1  0.42714163  0.91195833  0.19545974  1
  Se  Se252  1  0.41426608  0.90775270  0.68823328  1
  Se  Se253  1  0.74269727  0.25531723  0.19379093  1
  Se  Se254  1  0.75571158  0.24129475  0.68940294  1
  Se  Se255  1  0.75301074  0.57500070  0.18976586  1
  Se  Se256  1  0.75566372  0.57865863  0.69695505  1
  Se  Se257  1  0.75693231  0.91884146  0.18966570  1
  Se  Se258  1  0.73826036  0.92169836  0.69681312  1
