# generated using pymatgen
data_In86Cu29Se144
_symmetry_space_group_name_H-M   'P 1'
_cell_length_a   17.69138210
_cell_length_b   17.68389586
_cell_length_c   23.53531220
_cell_angle_alpha   90.00531550
_cell_angle_beta   89.99028641
_cell_angle_gamma   90.00155670
_symmetry_Int_Tables_number   1
_chemical_formula_structural   In86Cu29Se144
_chemical_formula_sum   'In86 Cu29 Se144'
_cell_volume   7363.08250095
_cell_formula_units_Z   1
loop_
 _symmetry_equiv_pos_site_id
 _symmetry_equiv_pos_as_xyz
  1  'x, y, z'
loop_
 _atom_site_type_symbol
 _atom_site_label
 _atom_site_symmetry_multiplicity
 _atom_site_fract_x
 _atom_site_fract_y
 _atom_site_fract_z
 _atom_site_occupancy
  In  In0  1  -0.00009586  0.17076321  0.12097613  1
  In  In1  1  -0.00644020  0.13921896  0.61764827  1
  In  In2  1  0.01315213  0.51245115  0.11477129  1
  In  In3  1  0.00097975  0.51322807  0.62420750  1
  In  In4  1  -0.00498391  0.82766534  0.11784947  1
  In  In5  1  0.00281074  0.83197591  0.62135481  1
  In  In6  1  0.33253612  0.14562418  0.11919118  1
  In  In7  1  0.32967539  0.17295758  0.63692862  1
  In  In8  1  0.33626988  0.52242550  0.12243574  1
  In  In9  1  0.32773149  0.50095946  0.63580051  1
  In  In10  1  0.33080069  0.83777226  0.11859034  1
  In  In11  1  0.33269314  0.83205482  0.62498761  1
  In  In12  1  0.65125807  0.15167436  0.10945571  1
  In  In13  1  0.68135567  0.08132931  0.66232255  1
  In  In14  1  0.66815668  0.49669524  0.11901665  1
  In  In15  1  0.68612514  0.51150804  0.63063723  1
  In  In16  1  0.67680861  0.83623726  0.11188919  1
  In  In17  1  0.65694106  0.84367871  0.62526752  1
  In  In18  1  0.18207767  -0.01954363  0.39238569  1
  In  In19  1  0.16252674  -0.00769971  0.86456134  1
  In  In20  1  0.16039063  0.33112517  0.37956620  1
  In  In21  1  0.18781270  0.33028279  0.87785042  1
  In  In22  1  0.17071730  0.67763446  0.36975851  1
  In  In23  1  0.16698586  0.67133351  0.87215051  1
  In  In24  1  0.49196566  -0.01156074  0.36669342  1
  In  In25  1  0.49885615  -0.00464009  0.87317905  1
  In  In26  1  0.51102143  0.33440613  0.37478291  1
  In  In27  1  0.47785213  0.33210434  0.87765243  1
  In  In28  1  0.50484203  0.68906142  0.37762661  1
  In  In29  1  0.50958173  0.68256682  0.86890562  1
  In  In30  1  0.81952961  -0.00643485  0.37165257  1
  In  In31  1  0.83292520  -0.00236592  0.87070293  1
  In  In32  1  0.83956024  0.33697710  0.37408204  1
  In  In33  1  0.83271683  0.33567366  0.88294244  1
  In  In34  1  0.84691664  0.66988352  0.37169609  1
  In  In35  1  0.83404099  0.67311919  0.87082311  1
  In  In36  1  0.00593476  0.16812807  0.38236525  1
  In  In37  1  0.00434284  0.14778338  0.87023558  1
  In  In38  1  -0.01001573  0.50374257  0.37316405  1
  In  In39  1  -0.00622627  0.51014991  0.88235676  1
  In  In40  1  0.01130029  0.83037751  0.38542841  1
  In  In41  1  -0.00059272  0.83557136  0.86892734  1
  In  In42  1  0.34196828  0.15002819  0.37654979  1
  In  In43  1  0.34663398  0.16255456  0.86595908  1
  In  In44  1  0.31959576  0.50838527  0.37355657  1
  In  In45  1  0.32265687  0.50010318  0.87404576  1
  In  In46  1  0.33339774  0.83486431  0.37411163  1
  In  In47  1  0.33718943  0.83673337  0.87201160  1
  In  In48  1  0.67948610  0.15464687  0.37300356  1
  In  In49  1  0.66374402  0.16518330  0.88122766  1
  In  In50  1  0.67881026  0.49875825  0.37568312  1
  In  In51  1  0.66131231  0.52601969  0.88045127  1
  In  In52  1  0.65730181  0.83882758  0.38082456  1
  In  In53  1  0.67297998  0.82696888  0.87016223  1
  In  In54  1  0.18229675  -0.00585997  0.12486655  1
  In  In55  1  0.16898154  -0.00313327  0.62256482  1
  In  In56  1  0.15753997  0.33378955  0.12349938  1
  In  In57  1  0.17583947  0.33074138  0.62650750  1
  In  In58  1  0.16690345  0.67666745  0.12061982  1
  In  In59  1  0.15434431  0.67935651  0.63038712  1
  In  In60  1  0.50149403  -0.00493182  0.11989090  1
  In  In61  1  0.49810594  -0.00118785  0.63524715  1
  In  In62  1  0.50300356  0.33300889  0.11762378  1
  In  In63  1  0.50215588  0.31647205  0.63429809  1
  In  In64  1  0.48340895  0.66970920  0.12335318  1
  In  In65  1  0.48748440  0.67959298  0.63508402  1
  In  In66  1  0.82174648  -0.01111369  0.11544793  1
  In  In67  1  0.86929956  -0.04977490  0.68963449  1
  In  In68  1  0.83606074  0.33157787  0.11252837  1
  In  In69  1  0.83153331  0.32353862  0.63145506  1
  In  In70  1  0.84469266  0.68368713  0.10651634  1
  In  In71  1  0.80665132  0.72303223  0.67758571  1
  In  In72  1  0.00254491  -0.00328875  0.25774501  1
  In  In73  1  0.83939460  0.50522409  0.49429638  1
  In  In74  1  -0.00021191  0.33334310  0.25503619  1
  In  In75  1  0.66355809  0.66581335  0.24417239  1
  In  In76  1  0.48996632  0.49855246  -0.00375147  1
  In  In77  1  0.49358415  0.51419312  0.51527310  1
  In  In78  1  0.66495831  0.32386776  0.23382246  1
  In  In79  1  0.00851664  0.33335120  0.74627462  1
  In  In80  1  0.82924130  0.16601295  0.50916705  1
  In  In81  1  0.50429613  0.16347057  0.50944334  1
  In  In82  1  0.16947391  0.15754196  -0.00527239  1
  In  In83  1  0.16514577  0.50148238  0.50622000  1
  In  In84  1  0.33317876  0.33328213  0.23959403  1
  In  In85  1  0.66501866  0.34145504  0.75363343  1
  Cu  Cu86  1  -0.00271630  0.66956576  0.50290737  1
  Cu  Cu87  1  0.50506779  0.15271646  0.24447555  1
  Cu  Cu88  1  0.50059856  0.50260475  0.75651402  1
  Cu  Cu89  1  0.17684659  0.15919046  0.25557968  1
  Cu  Cu90  1  0.16482236  0.51814094  0.24560420  1
  Cu  Cu91  1  0.66758686  0.33516554  -0.00314324  1
  Cu  Cu92  1  0.82890648  0.15222688  0.24416650  1
  Cu  Cu93  1  0.49425480  0.83731519  0.24697081  1
  Cu  Cu94  1  0.32764153  0.67516997  -0.00435590  1
  Cu  Cu95  1  0.65930620  0.33621393  0.50397665  1
  Cu  Cu96  1  -0.00726373  -0.00450009  -0.00492416  1
  Cu  Cu97  1  0.66324167  -0.00691675  0.49989928  1
  Cu  Cu98  1  0.33214857  -0.00594547  0.49965873  1
  Cu  Cu99  1  0.67527304  0.68425770  0.51226779  1
  Cu  Cu100  1  0.66734862  -0.00464615  -0.00846919  1
  Cu  Cu101  1  0.16736732  0.83184092  0.25153231  1
  Cu  Cu102  1  0.33652769  0.32487486  0.50736322  1
  Cu  Cu103  1  0.49938567  0.83582023  0.75341311  1
  Cu  Cu104  1  0.83925083  0.49969691  0.24239783  1
  Cu  Cu105  1  0.00220464  0.33086309  -0.00180011  1
  Cu  Cu106  1  0.33268378  0.67655524  0.50040756  1
  Cu  Cu107  1  0.16682880  0.15641567  0.74886379  1
  Cu  Cu108  1  0.83032086  0.82850232  0.24100481  1
  Cu  Cu109  1  0.49166093  0.50816700  0.25337949  1
  Cu  Cu110  1  0.17239885  0.83253894  0.74826089  1
  Cu  Cu111  1  0.84078656  0.50955599  0.75786797  1
  Cu  Cu112  1  0.82486723  0.17257868  0.75740255  1
  Cu  Cu113  1  0.00596432  0.67303615  -0.00767851  1
  Cu  Cu114  1  0.16599030  0.49968480  0.75488173  1
  Se  Se115  1  0.07630289  0.07135608  0.05814069  1
  Se  Se116  1  0.08154727  0.06854230  0.54982139  1
  Se  Se117  1  0.08461802  0.41437709  0.05093039  1
  Se  Se118  1  0.07569191  0.41028521  0.56306981  1
  Se  Se119  1  0.08567844  0.75675320  0.04902442  1
  Se  Se120  1  0.08711011  0.75221471  0.54921344  1
  Se  Se121  1  0.42988181  0.08836029  0.05253658  1
  Se  Se122  1  0.40571268  0.07777287  0.56190400  1
  Se  Se123  1  0.40160205  0.41235078  0.06061709  1
  Se  Se124  1  0.41200380  0.40902884  0.56551001  1
  Se  Se125  1  0.41461297  0.75326154  0.04963644  1
  Se  Se126  1  0.42010061  0.75341885  0.55431473  1
  Se  Se127  1  0.74966532  0.07986564  0.04720457  1
  Se  Se128  1  0.73721094  0.07503848  0.55963040  1
  Se  Se129  1  0.75015258  0.41763264  0.05005328  1
  Se  Se130  1  0.75004778  0.41210856  0.55795427  1
  Se  Se131  1  0.73383510  0.73247896  0.04737298  1
  Se  Se132  1  0.75652714  0.75640310  0.57470195  1
  Se  Se133  1  0.24934977  0.24835420  0.06232389  1
  Se  Se134  1  0.25139075  0.24357321  0.55764853  1
  Se  Se135  1  0.24881571  0.59067540  0.05161163  1
  Se  Se136  1  0.25691967  0.59302756  0.56128099  1
  Se  Se137  1  0.24888671  0.91780195  0.04840615  1
  Se  Se138  1  0.25052381  0.91092123  0.55384103  1
  Se  Se139  1  0.58193852  0.25308216  0.04802449  1
  Se  Se140  1  0.59813731  0.24823490  0.56657998  1
  Se  Se141  1  0.57830721  0.58535876  0.05919384  1
  Se  Se142  1  0.59581814  0.59790001  0.56716988  1
  Se  Se143  1  0.58593630  0.91551552  0.04951886  1
  Se  Se144  1  0.57234449  0.92345285  0.55663721  1
  Se  Se145  1  0.91940365  0.24478071  0.04845283  1
  Se  Se146  1  0.92588089  0.25613889  0.56209349  1
  Se  Se147  1  0.92454768  0.58812898  0.04755844  1
  Se  Se148  1  0.91186142  0.59610242  0.56130795  1
  Se  Se149  1  0.91258503  0.91171138  0.05079050  1
  Se  Se150  1  0.89343080  0.91743327  0.58396530  1
  Se  Se151  1  0.08345837  0.25233296  0.44908618  1
  Se  Se152  1  0.07863415  0.25044251  0.93532853  1
  Se  Se153  1  0.07676735  0.58841418  0.44118562  1
  Se  Se154  1  0.08982233  0.58599073  0.94394408  1
  Se  Se155  1  0.06687904  0.93449004  0.44886128  1
  Se  Se156  1  0.07929839  0.92048482  0.93887350  1
  Se  Se157  1  0.41909307  0.25604834  0.44227261  1
  Se  Se158  1  0.40419936  0.24711965  0.94597358  1
  Se  Se159  1  0.41025834  0.59208305  0.44131188  1
  Se  Se160  1  0.41144354  0.59662269  0.93572682  1
  Se  Se161  1  0.41761893  0.91556773  0.44413380  1
  Se  Se162  1  0.43182612  0.90070597  0.94147504  1
  Se  Se163  1  0.74109875  0.26092923  0.44019646  1
  Se  Se164  1  0.75026623  0.24891595  0.94678566  1
  Se  Se165  1  0.74108966  0.60093217  0.44361269  1
  Se  Se166  1  0.76726258  0.57984356  0.94111189  1
  Se  Se167  1  0.74971905  0.91255512  0.44775639  1
  Se  Se168  1  0.75298062  0.91386577  0.93965513  1
  Se  Se169  1  0.25441487  0.08567012  0.44895228  1
  Se  Se170  1  0.25594039  0.07314330  0.93165149  1
  Se  Se171  1  0.26032287  0.40945779  0.44686266  1
  Se  Se172  1  0.25552044  0.41642475  0.94895421  1
  Se  Se173  1  0.24854860  0.75347337  0.44363303  1
  Se  Se174  1  0.24757869  0.75723158  0.93975972  1
  Se  Se175  1  0.58603480  0.07655536  0.43857919  1
  Se  Se176  1  0.57950980  0.07956719  0.94476798  1
  Se  Se177  1  0.58535991  0.42417619  0.44869039  1
  Se  Se178  1  0.58649972  0.41403680  0.93588253  1
  Se  Se179  1  0.58510010  0.75462031  0.45470878  1
  Se  Se180  1  0.60150778  0.73952799  0.94164107  1
  Se  Se181  1  0.90890195  0.08048144  0.43767758  1
  Se  Se182  1  0.91465800  0.08204895  0.94146436  1
  Se  Se183  1  0.93204652  0.40409337  0.44611316  1
  Se  Se184  1  0.91963438  0.41677045  0.94768251  1
  Se  Se185  1  0.91487853  0.75141597  0.44676679  1
  Se  Se186  1  0.91944318  0.75397282  0.94012579  1
  Se  Se187  1  0.25201883  0.24841682  0.31136080  1
  Se  Se188  1  0.24725006  0.23898281  0.80435145  1
  Se  Se189  1  0.25184516  0.59338242  0.30103984  1
  Se  Se190  1  0.24951811  0.58656634  0.80347189  1
  Se  Se191  1  0.24749743  0.91707430  0.30646361  1
  Se  Se192  1  0.25527588  0.91683462  0.79982630  1
  Se  Se193  1  0.58079337  0.23793362  0.30458919  1
  Se  Se194  1  0.57750847  0.25423556  0.81454560  1
  Se  Se195  1  0.57900297  0.57754107  0.31408357  1
  Se  Se196  1  0.58560676  0.59092105  0.80021232  1
  Se  Se197  1  0.58443765  0.91196650  0.30205272  1
  Se  Se198  1  0.58665513  0.91357817  0.80620434  1
  Se  Se199  1  0.90536933  0.23472898  0.30544650  1
  Se  Se200  1  0.91412089  0.25025746  0.80958084  1
  Se  Se201  1  0.91687267  0.58323671  0.29894720  1
  Se  Se202  1  0.92703701  0.59193573  0.80606620  1
  Se  Se203  1  0.90838921  0.90263314  0.30846724  1
  Se  Se204  1  0.91141570  0.91550694  0.79750495  1
  Se  Se205  1  0.09444523  0.08477262  0.31603404  1
  Se  Se206  1  0.07775031  0.07287473  0.79455316  1
  Se  Se207  1  0.09427886  0.43075710  0.30745034  1
  Se  Se208  1  0.08899238  0.41801356  0.81553975  1
  Se  Se209  1  0.07897243  0.75462285  0.30505164  1
  Se  Se210  1  0.08563947  0.75384846  0.80235904  1
  Se  Se211  1  0.41658084  0.07866940  0.29919928  1
  Se  Se212  1  0.43292790  0.08431443  0.79762535  1
  Se  Se213  1  0.41872162  0.42008699  0.31159652  1
  Se  Se214  1  0.41331825  0.42268421  0.80618131  1
  Se  Se215  1  0.41759201  0.75241826  0.30436927  1
  Se  Se216  1  0.41438543  0.74926953  0.80124349  1
  Se  Se217  1  0.74417589  0.07252344  0.29658688  1
  Se  Se218  1  0.74478840  0.08678812  0.80925977  1
  Se  Se219  1  0.75630396  0.41659724  0.29811245  1
  Se  Se220  1  0.75651222  0.42817010  0.81345924  1
  Se  Se221  1  0.75160372  0.75275538  0.30776545  1
  Se  Se222  1  0.76179445  0.75723918  0.79547478  1
  Se  Se223  1  0.25429252  0.07838144  0.19804104  1
  Se  Se224  1  0.25150833  0.07553253  0.69507069  1
  Se  Se225  1  0.24028687  0.42931346  0.18864709  1
  Se  Se226  1  0.24554464  0.41413408  0.70059784  1
  Se  Se227  1  0.24991726  0.75633968  0.19099889  1
  Se  Se228  1  0.25297887  0.74632096  0.69456599  1
  Se  Se229  1  0.58949234  0.07419683  0.19046064  1
  Se  Se230  1  0.54625961  0.10794462  0.70125466  1
  Se  Se231  1  0.57021996  0.42866579  0.19259980  1
  Se  Se232  1  0.57926309  0.43086333  0.68807475  1
  Se  Se233  1  0.57545350  0.75765060  0.18668856  1
  Se  Se234  1  0.58317218  0.75556213  0.69660166  1
  Se  Se235  1  0.91709264  0.07912055  0.18679445  1
  Se  Se236  1  0.90677398  0.09447712  0.69923473  1
  Se  Se237  1  0.91896470  0.41754087  0.18495246  1
  Se  Se238  1  0.90855099  0.42476517  0.69343561  1
  Se  Se239  1  0.91577287  0.74773783  0.19024622  1
  Se  Se240  1  0.95057423  0.72512753  0.68862179  1
  Se  Se241  1  0.09239604  0.23768351  0.19840040  1
  Se  Se242  1  0.08663445  0.23484608  0.68622084  1
  Se  Se243  1  0.08060031  0.59508690  0.19036520  1
  Se  Se244  1  0.08768518  0.57952460  0.69631893  1
  Se  Se245  1  0.08696009  0.91140962  0.19063099  1
  Se  Se246  1  0.08854247  0.91175959  0.69153549  1
  Se  Se247  1  0.42746782  0.24028712  0.18832892  1
  Se  Se248  1  0.40233935  0.26638429  0.70218868  1
  Se  Se249  1  0.41150379  0.59214496  0.20108950  1
  Se  Se250  1  0.41712440  0.58189939  0.69864936  1
  Se  Se251  1  0.41437742  0.91795820  0.18972726  1
  Se  Se252  1  0.41314932  0.91211164  0.69722346  1
  Se  Se253  1  0.75805565  0.23445303  0.17964765  1
  Se  Se254  1  0.74024406  0.23991652  0.69192590  1
  Se  Se255  1  0.75675592  0.57910591  0.18562070  1
  Se  Se256  1  0.75133107  0.58957232  0.70840707  1
  Se  Se257  1  0.74660972  0.91216394  0.19135691  1
  Se  Se258  1  0.71795471  0.94529283  0.69855792  1
