# generated using pymatgen
data_In86Cu29Se144
_symmetry_space_group_name_H-M   'P 1'
_cell_length_a   17.57972398
_cell_length_b   17.58834700
_cell_length_c   23.43750435
_cell_angle_alpha   90.00159994
_cell_angle_beta   89.98655539
_cell_angle_gamma   89.99308631
_symmetry_Int_Tables_number   1
_chemical_formula_structural   In86Cu29Se144
_chemical_formula_sum   'In86 Cu29 Se144'
_cell_volume   7246.83590618
_cell_formula_units_Z   1
loop_
 _symmetry_equiv_pos_site_id
 _symmetry_equiv_pos_as_xyz
  1  'x, y, z'
loop_
 _atom_site_type_symbol
 _atom_site_label
 _atom_site_symmetry_multiplicity
 _atom_site_fract_x
 _atom_site_fract_y
 _atom_site_fract_z
 _atom_site_occupancy
  In  In0  1  -0.01017433  0.17881613  0.13459086  1
  In  In1  1  -0.00532627  0.17483746  0.62326625  1
  In  In2  1  -0.01320236  0.48744337  0.11761190  1
  In  In3  1  0.00806663  0.50924130  0.61884769  1
  In  In4  1  0.01332724  0.82980570  0.12492995  1
  In  In5  1  -0.01617935  0.83114637  0.62445350  1
  In  In6  1  0.33644340  0.15147944  0.12324535  1
  In  In7  1  0.34991896  0.15036453  0.63082905  1
  In  In8  1  0.33701404  0.50905884  0.11798891  1
  In  In9  1  0.34608819  0.51296163  0.61113415  1
  In  In10  1  0.34536811  0.84939099  0.11133103  1
  In  In11  1  0.35185555  0.83868765  0.64106187  1
  In  In12  1  0.68791641  0.18552287  0.09285633  1
  In  In13  1  0.66741890  0.16650448  0.62371400  1
  In  In14  1  0.65363881  0.48132222  0.10810192  1
  In  In15  1  0.67278974  0.50605613  0.62218232  1
  In  In16  1  0.66253539  0.85255942  0.11208209  1
  In  In17  1  0.66899208  0.82699028  0.63791172  1
  In  In18  1  0.17505476  0.00464695  0.36994520  1
  In  In19  1  0.16907588  -0.01861029  0.87791030  1
  In  In20  1  0.16026651  0.34469413  0.37232975  1
  In  In21  1  0.17778354  0.33774239  0.88005732  1
  In  In22  1  0.16169721  0.66687538  0.38324937  1
  In  In23  1  0.16830712  0.66491625  0.86814588  1
  In  In24  1  0.50512952  0.01000889  0.37280559  1
  In  In25  1  0.49688823  -0.00723219  0.86130997  1
  In  In26  1  0.50550103  0.32715931  0.37789819  1
  In  In27  1  0.51906149  0.32916710  0.89620036  1
  In  In28  1  0.48904365  0.65922281  0.38004368  1
  In  In29  1  0.49810216  0.66577041  0.87094856  1
  In  In30  1  0.83752278  -0.00240318  0.38358076  1
  In  In31  1  0.81326909  0.01772963  0.87668966  1
  In  In32  1  0.82849192  0.33205185  0.37288017  1
  In  In33  1  0.82155975  0.32607576  0.88690141  1
  In  In34  1  0.83530424  0.66614510  0.38760366  1
  In  In35  1  0.82384427  0.65919458  0.86502359  1
  In  In36  1  -0.01065093  0.15758954  0.36652012  1
  In  In37  1  -0.01687237  0.15897265  0.88109696  1
  In  In38  1  -0.00078921  0.49641987  0.37568423  1
  In  In39  1  -0.00999473  0.50490173  0.87832367  1
  In  In40  1  -0.00374413  0.83149872  0.37797851  1
  In  In41  1  0.01275119  0.83341763  0.87506208  1
  In  In42  1  0.34815306  0.15947230  0.37734615  1
  In  In43  1  0.36442672  0.15677814  0.87555737  1
  In  In44  1  0.33450495  0.49871501  0.38971815  1
  In  In45  1  0.33012439  0.50591114  0.87700256  1
  In  In46  1  0.32929462  0.83586241  0.37637056  1
  In  In47  1  0.33730733  0.82568891  0.86437437  1
  In  In48  1  0.65657944  0.17565480  0.37909552  1
  In  In49  1  0.66431214  0.15659753  0.87767984  1
  In  In50  1  0.67619488  0.49148169  0.38220557  1
  In  In51  1  0.65950070  0.50432693  0.88597983  1
  In  In52  1  0.66662303  0.84795762  0.38134724  1
  In  In53  1  0.65065882  0.82527504  0.86103248  1
  In  In54  1  0.17345354  -0.00392239  0.12683563  1
  In  In55  1  0.18144293  -0.00108356  0.62643546  1
  In  In56  1  0.15338940  0.33491981  0.12779868  1
  In  In57  1  0.15596870  0.33717870  0.62109395  1
  In  In58  1  0.16998907  0.67336208  0.11514051  1
  In  In59  1  0.18085008  0.65674611  0.63314097  1
  In  In60  1  0.50254556  0.00317134  0.11169002  1
  In  In61  1  0.50454934  0.01955588  0.64613920  1
  In  In62  1  0.51016531  0.33459218  0.11587040  1
  In  In63  1  0.49820668  0.33116156  0.62081147  1
  In  In64  1  0.49937293  0.67125558  0.11199218  1
  In  In65  1  0.50727653  0.66560471  0.64096575  1
  In  In66  1  0.83169591  0.02141412  0.12216659  1
  In  In67  1  0.82780588  -0.00023793  0.62190640  1
  In  In68  1  0.83090044  0.33414743  0.12622129  1
  In  In69  1  0.82821017  0.33630767  0.61577798  1
  In  In70  1  0.84652390  0.65942795  0.12293251  1
  In  In71  1  0.83161054  0.66771523  0.63016815  1
  In  In72  1  0.50649375  0.83312157  0.51338641  1
  In  In73  1  0.00384251  0.66419364  0.25536067  1
  In  In74  1  -0.00246504  -0.00313541  0.74972189  1
  In  In75  1  0.33015926  0.66866696  0.25641603  1
  In  In76  1  0.16698724  0.16692841  0.00840016  1
  In  In77  1  0.33519557  0.33791887  0.75227001  1
  In  In78  1  0.17150002  0.17075929  0.49429702  1
  In  In79  1  0.82681926  0.83423705  -0.00784821  1
  In  In80  1  0.17628674  0.83056174  0.50990914  1
  In  In81  1  0.32882315  0.33037869  0.25693544  1
  In  In82  1  -0.00705236  0.33368561  0.75852952  1
  In  In83  1  0.66765761  0.01175875  0.23803011  1
  In  In84  1  0.66939541  0.66521155  0.24975418  1
  In  In85  1  0.66925591  0.33215349  0.75615947  1
  Cu  Cu86  1  0.15699653  0.49942855  0.24808936  1
  Cu  Cu87  1  0.50629633  0.49527098  0.24432008  1
  Cu  Cu88  1  0.16901026  0.50477944  0.74682410  1
  Cu  Cu89  1  0.67205384  0.00396633  0.50390054  1
  Cu  Cu90  1  0.50006531  0.49738579  0.75552986  1
  Cu  Cu91  1  0.16189784  0.16186388  0.24761445  1
  Cu  Cu92  1  0.83716133  0.83261461  0.75252529  1
  Cu  Cu93  1  -0.00716082  0.66725989  0.50310864  1
  Cu  Cu94  1  0.66453683  0.33587448  0.49925633  1
  Cu  Cu95  1  0.83396166  0.50499578  0.74743973  1
  Cu  Cu96  1  -0.00892682  0.00117647  -0.00019415  1
  Cu  Cu97  1  0.82441840  0.48985814  0.24735895  1
  Cu  Cu98  1  0.66997083  0.66572143  -0.00844547  1
  Cu  Cu99  1  0.33086138  0.66902125  -0.01023521  1
  Cu  Cu100  1  -0.01097898  0.33817728  0.49720830  1
  Cu  Cu101  1  0.33381188  0.32816041  0.50010768  1
  Cu  Cu102  1  0.66417835  0.66817210  0.51033954  1
  Cu  Cu103  1  0.16766527  0.82647564  0.75047966  1
  Cu  Cu104  1  0.17652915  0.84440947  0.24471890  1
  Cu  Cu105  1  0.49979979  0.16748842  0.24896371  1
  Cu  Cu106  1  0.82801165  0.17012451  0.24837773  1
  Cu  Cu107  1  0.33428402  0.34645969  0.00224661  1
  Cu  Cu108  1  0.49895002  0.84084707  0.23675492  1
  Cu  Cu109  1  0.00776196  0.66506841  -0.00452643  1
  Cu  Cu110  1  -0.00166398  0.33166132  0.00508482  1
  Cu  Cu111  1  0.33030526  -0.00593197  -0.00696213  1
  Cu  Cu112  1  0.83523456  0.84084811  0.25761263  1
  Cu  Cu113  1  0.17006791  0.16104515  0.75489583  1
  Cu  Cu114  1  0.00314417  0.00113458  0.49944662  1
  Se  Se115  1  0.07080578  0.07961221  0.06426529  1
  Se  Se116  1  0.08373610  0.07914241  0.56065126  1
  Se  Se117  1  0.08555257  0.41750960  0.05176947  1
  Se  Se118  1  0.07881238  0.41668172  0.54892770  1
  Se  Se119  1  0.08528228  0.75453422  0.04723576  1
  Se  Se120  1  0.07822141  0.74306227  0.56366464  1
  Se  Se121  1  0.41154272  0.08232783  0.04451228  1
  Se  Se122  1  0.43596013  0.08083225  0.56012159  1
  Se  Se123  1  0.42300277  0.42432813  0.05496072  1
  Se  Se124  1  0.41914848  0.41340535  0.55050749  1
  Se  Se125  1  0.41314302  0.75148840  0.04595217  1
  Se  Se126  1  0.41317913  0.74173712  0.56697289  1
  Se  Se127  1  0.72059727  0.05062721  0.05612200  1
  Se  Se128  1  0.75604900  0.09151121  0.55293744  1
  Se  Se129  1  0.77264864  0.43332293  0.05666098  1
  Se  Se130  1  0.74822735  0.42265461  0.54956449  1
  Se  Se131  1  0.74552455  0.74170669  0.06021949  1
  Se  Se132  1  0.74761957  0.75265237  0.56174698  1
  Se  Se133  1  0.25905268  0.26155713  0.06448428  1
  Se  Se134  1  0.25817508  0.25062561  0.56579281  1
  Se  Se135  1  0.25121748  0.58703629  0.04958815  1
  Se  Se136  1  0.23515421  0.57138735  0.55386145  1
  Se  Se137  1  0.24285663  0.91716221  0.04841930  1
  Se  Se138  1  0.27450864  0.92121587  0.56054839  1
  Se  Se139  1  0.56405867  0.23337065  0.04778410  1
  Se  Se140  1  0.58581622  0.25040674  0.55523859  1
  Se  Se141  1  0.58486624  0.58593673  0.04875077  1
  Se  Se142  1  0.57779462  0.58753463  0.56200925  1
  Se  Se143  1  0.56159785  0.90131506  0.04392792  1
  Se  Se144  1  0.59437467  0.92711947  0.56918054  1
  Se  Se145  1  0.91363296  0.24749856  0.05594361  1
  Se  Se146  1  0.91328680  0.24962677  0.55101413  1
  Se  Se147  1  0.92143891  0.58338164  0.04776557  1
  Se  Se148  1  0.90979081  0.58405213  0.55730536  1
  Se  Se149  1  0.91561046  0.91636713  0.06172995  1
  Se  Se150  1  0.91728895  0.92097178  0.55334294  1
  Se  Se151  1  0.07200290  0.25553924  0.43863523  1
  Se  Se152  1  0.07681417  0.25182608  0.94133989  1
  Se  Se153  1  0.07404796  0.58513757  0.44594217  1
  Se  Se154  1  0.08727136  0.58111768  0.93962194  1
  Se  Se155  1  0.08806379  0.92016629  0.44389031  1
  Se  Se156  1  0.07862519  0.91834469  0.95152881  1
  Se  Se157  1  0.41976348  0.24697381  0.44715343  1
  Se  Se158  1  0.40937156  0.25727661  0.94813778  1
  Se  Se159  1  0.41575122  0.58335463  0.45449100  1
  Se  Se160  1  0.41965806  0.58280427  0.94431132  1
  Se  Se161  1  0.42311453  0.91671169  0.44075325  1
  Se  Se162  1  0.41181113  0.91470719  0.93459822  1
  Se  Se163  1  0.74794253  0.25141066  0.44534227  1
  Se  Se164  1  0.74312331  0.23707977  0.95025126  1
  Se  Se165  1  0.74474666  0.58679120  0.45048505  1
  Se  Se166  1  0.75948625  0.58238372  0.94587400  1
  Se  Se167  1  0.75346093  0.91600282  0.45321641  1
  Se  Se168  1  0.73138630  0.91656240  0.93322808  1
  Se  Se169  1  0.26404548  0.07130926  0.44774219  1
  Se  Se170  1  0.25147370  0.08419523  0.93758678  1
  Se  Se171  1  0.24647345  0.40885780  0.44800631  1
  Se  Se172  1  0.24763737  0.42570438  0.94993906  1
  Se  Se173  1  0.26364886  0.73829126  0.44714783  1
  Se  Se174  1  0.24748706  0.75236329  0.93652618  1
  Se  Se175  1  0.58599885  0.08147021  0.44746278  1
  Se  Se176  1  0.56012431  0.08547069  0.93354358  1
  Se  Se177  1  0.57914573  0.41842833  0.44600114  1
  Se  Se178  1  0.60148021  0.41258953  0.96051138  1
  Se  Se179  1  0.58938913  0.74393670  0.44159378  1
  Se  Se180  1  0.58363001  0.74701940  0.94090898  1
  Se  Se181  1  0.91954664  0.08664122  0.44857037  1
  Se  Se182  1  0.90146233  0.08288533  0.95292634  1
  Se  Se183  1  0.90763917  0.42098863  0.44169502  1
  Se  Se184  1  0.91821530  0.40924439  0.94375776  1
  Se  Se185  1  0.91481490  0.75724539  0.45146424  1
  Se  Se186  1  0.92086274  0.74278577  0.93687166  1
  Se  Se187  1  0.23995362  0.23628801  0.31540638  1
  Se  Se188  1  0.25107984  0.24069596  0.81400341  1
  Se  Se189  1  0.23877545  0.57320708  0.31156130  1
  Se  Se190  1  0.25598409  0.58342783  0.80039790  1
  Se  Se191  1  0.26045567  0.92101969  0.30290712  1
  Se  Se192  1  0.24835832  0.91504538  0.80069341  1
  Se  Se193  1  0.58261505  0.25197971  0.30135560  1
  Se  Se194  1  0.57259834  0.24654045  0.81107263  1
  Se  Se195  1  0.57782656  0.57714450  0.30988988  1
  Se  Se196  1  0.58798040  0.57855352  0.80705868  1
  Se  Se197  1  0.58273373  0.91452871  0.30038136  1
  Se  Se198  1  0.56087845  0.89530231  0.78838922  1
  Se  Se199  1  0.91319901  0.25141347  0.30240260  1
  Se  Se200  1  0.89951193  0.23956039  0.80943116  1
  Se  Se201  1  0.90064522  0.57793603  0.30651391  1
  Se  Se202  1  0.92118937  0.58502159  0.80052124  1
  Se  Se203  1  0.92007204  0.92083004  0.31026084  1
  Se  Se204  1  0.90763606  0.91582808  0.81738294  1
  Se  Se205  1  0.08215128  0.07728122  0.30373616  1
  Se  Se206  1  0.08592597  0.08635105  0.81519731  1
  Se  Se207  1  0.07372414  0.41610524  0.30000455  1
  Se  Se208  1  0.09349258  0.42222215  0.80876858  1
  Se  Se209  1  0.09905335  0.76209561  0.30705218  1
  Se  Se210  1  0.07918868  0.74711087  0.80081907  1
  Se  Se211  1  0.41833226  0.08048453  0.29948224  1
  Se  Se212  1  0.40899801  0.07416289  0.79305225  1
  Se  Se213  1  0.42050982  0.42656622  0.30980276  1
  Se  Se214  1  0.42900789  0.41489642  0.81907446  1
  Se  Se215  1  0.43031595  0.76160831  0.30611040  1
  Se  Se216  1  0.41072444  0.73373293  0.79771560  1
  Se  Se217  1  0.75252067  0.08809525  0.31169079  1
  Se  Se218  1  0.73345429  0.07946633  0.79642573  1
  Se  Se219  1  0.74040343  0.41090898  0.30282626  1
  Se  Se220  1  0.75934070  0.42588773  0.81291362  1
  Se  Se221  1  0.75502882  0.75813372  0.31377355  1
  Se  Se222  1  0.74749763  0.74879033  0.79925624  1
  Se  Se223  1  0.25044228  0.08289659  0.19681381  1
  Se  Se224  1  0.25342540  0.08273761  0.69883384  1
  Se  Se225  1  0.24828069  0.42596018  0.19120475  1
  Se  Se226  1  0.24584617  0.42131490  0.68689524  1
  Se  Se227  1  0.25373495  0.75863603  0.18687878  1
  Se  Se228  1  0.25676055  0.75122382  0.69630418  1
  Se  Se229  1  0.57821939  0.09938260  0.17991985  1
  Se  Se230  1  0.61319964  0.08176913  0.70560741  1
  Se  Se231  1  0.58725226  0.41108384  0.19210724  1
  Se  Se232  1  0.57953288  0.42016292  0.69237266  1
  Se  Se233  1  0.58317149  0.75648812  0.18551429  1
  Se  Se234  1  0.57056139  0.76557795  0.70704947  1
  Se  Se235  1  0.91468031  0.08367078  0.20031938  1
  Se  Se236  1  0.91117371  0.09186244  0.69310001  1
  Se  Se237  1  0.91755077  0.41308560  0.19746456  1
  Se  Se238  1  0.91332398  0.42194498  0.68910561  1
  Se  Se239  1  0.91229334  0.75736729  0.19651679  1
  Se  Se240  1  0.91884112  0.74731315  0.70044345  1
  Se  Se241  1  0.08153721  0.25351520  0.20192559  1
  Se  Se242  1  0.08999736  0.24346240  0.69819195  1
  Se  Se243  1  0.08560922  0.58175969  0.18417422  1
  Se  Se244  1  0.08025764  0.58590145  0.69654689  1
  Se  Se245  1  0.08239867  0.91956299  0.19555124  1
  Se  Se246  1  0.08994059  0.90863827  0.68809572  1
  Se  Se247  1  0.41669080  0.24881785  0.19000931  1
  Se  Se248  1  0.42840798  0.24520999  0.69827434  1
  Se  Se249  1  0.42640509  0.58469670  0.19321524  1
  Se  Se250  1  0.41515348  0.57456265  0.69763303  1
  Se  Se251  1  0.41858313  0.92788913  0.18731419  1
  Se  Se252  1  0.43027517  0.92276423  0.70950353  1
  Se  Se253  1  0.74427356  0.24237981  0.18612052  1
  Se  Se254  1  0.76124786  0.25034437  0.69256556  1
  Se  Se255  1  0.75294485  0.57589077  0.18591336  1
  Se  Se256  1  0.74427404  0.58629800  0.69851172  1
  Se  Se257  1  0.75968565  0.91034855  0.18854491  1
  Se  Se258  1  0.75789874  0.91695880  0.69730310  1
