# generated using pymatgen
data_In86Cu29Se144
_symmetry_space_group_name_H-M   'P 1'
_cell_length_a   17.57656417
_cell_length_b   17.57738455
_cell_length_c   23.43869695
_cell_angle_alpha   90.00534320
_cell_angle_beta   90.01736135
_cell_angle_gamma   89.97434817
_symmetry_Int_Tables_number   1
_chemical_formula_structural   In86Cu29Se144
_chemical_formula_sum   'In86 Cu29 Se144'
_cell_volume   7241.38497892
_cell_formula_units_Z   1
loop_
 _symmetry_equiv_pos_site_id
 _symmetry_equiv_pos_as_xyz
  1  'x, y, z'
loop_
 _atom_site_type_symbol
 _atom_site_label
 _atom_site_symmetry_multiplicity
 _atom_site_fract_x
 _atom_site_fract_y
 _atom_site_fract_z
 _atom_site_occupancy
  In  In0  1  -0.01597149  0.17133921  0.14502364  1
  In  In1  1  0.01001830  0.17373763  0.61596068  1
  In  In2  1  -0.00577938  0.49846472  0.12909391  1
  In  In3  1  -0.01861387  0.49667609  0.61671244  1
  In  In4  1  0.01020946  0.84273073  0.11788032  1
  In  In5  1  -0.00186687  0.82901888  0.61244470  1
  In  In6  1  0.32497041  0.16960210  0.14343225  1
  In  In7  1  0.34315234  0.17383251  0.61473562  1
  In  In8  1  0.32423757  0.48889049  0.12884026  1
  In  In9  1  0.34308227  0.49024228  0.62812303  1
  In  In10  1  0.33706531  0.85014137  0.11637315  1
  In  In11  1  0.32086058  0.84156119  0.62950738  1
  In  In12  1  0.67402994  0.15238542  0.12384928  1
  In  In13  1  0.67041598  0.16869710  0.62413418  1
  In  In14  1  0.68454212  0.50128011  0.12258494  1
  In  In15  1  0.65972109  0.49465552  0.61821588  1
  In  In16  1  0.65939810  0.82813594  0.12080071  1
  In  In17  1  0.67943562  0.83353126  0.63695297  1
  In  In18  1  0.16192747  0.00435820  0.36774889  1
  In  In19  1  0.15906067  0.00158715  0.88086428  1
  In  In20  1  0.14366788  0.31277136  0.35227206  1
  In  In21  1  0.16950289  0.33325484  0.86269633  1
  In  In22  1  0.17193885  0.66863617  0.37972415  1
  In  In23  1  0.17873982  0.67157019  0.87170569  1
  In  In24  1  0.50086669  0.01568457  0.37775214  1
  In  In25  1  0.50730920  -0.02739798  0.87352006  1
  In  In26  1  0.49215904  0.33636037  0.38416115  1
  In  In27  1  0.49692740  0.32689496  0.86672225  1
  In  In28  1  0.50008500  0.64978178  0.37935292  1
  In  In29  1  0.49910172  0.68941595  0.86834343  1
  In  In30  1  0.83720625  -0.00008885  0.37693822  1
  In  In31  1  0.82874171  0.00266592  0.87668899  1
  In  In32  1  0.84714626  0.32157452  0.38259606  1
  In  In33  1  0.83756345  0.33367184  0.87258845  1
  In  In34  1  0.82807764  0.67727122  0.38305996  1
  In  In35  1  0.82882450  0.66363173  0.88316774  1
  In  In36  1  -0.00299284  0.16589141  0.37004965  1
  In  In37  1  -0.00940761  0.16822972  0.87355497  1
  In  In38  1  0.00596357  0.48377630  0.37534691  1
  In  In39  1  -0.00017301  0.48607472  0.87315248  1
  In  In40  1  -0.01442610  0.84092888  0.38220573  1
  In  In41  1  -0.00537561  0.83649896  0.88392599  1
  In  In42  1  0.32801417  0.16870113  0.37294927  1
  In  In43  1  0.32552909  0.16426031  0.87316648  1
  In  In44  1  0.33770830  0.49376885  0.37530760  1
  In  In45  1  0.33146311  0.50126740  0.86629350  1
  In  In46  1  0.31762182  0.83382900  0.37653251  1
  In  In47  1  0.34577622  0.83237670  0.88972088  1
  In  In48  1  0.67024183  0.16544791  0.38588446  1
  In  In49  1  0.67651809  0.17526992  0.86583652  1
  In  In50  1  0.66231852  0.50343441  0.38028545  1
  In  In51  1  0.68082342  0.50077894  0.87321831  1
  In  In52  1  0.68360953  0.83376757  0.37581862  1
  In  In53  1  0.66606027  0.83746913  0.87493472  1
  In  In54  1  0.16716331  -0.00083419  0.13994152  1
  In  In55  1  0.16046268  -0.00161333  0.61398035  1
  In  In56  1  0.15830325  0.32772323  0.15121005  1
  In  In57  1  0.17830285  0.32734456  0.62557457  1
  In  In58  1  0.15761211  0.67450450  0.12597799  1
  In  In59  1  0.16420247  0.68303753  0.62045359  1
  In  In60  1  0.49782847  -0.00953096  0.12501414  1
  In  In61  1  0.49723307  0.01311546  0.62678226  1
  In  In62  1  0.49347642  0.32512114  0.12395971  1
  In  In63  1  0.50070919  0.33130524  0.62339476  1
  In  In64  1  0.49314150  0.68561760  0.12591008  1
  In  In65  1  0.50578321  0.65182565  0.62748505  1
  In  In66  1  0.84226736  0.00650909  0.11583811  1
  In  In67  1  0.82483674  -0.00526424  0.62224994  1
  In  In68  1  0.83848325  0.33325987  0.12156959  1
  In  In69  1  0.83326386  0.33292363  0.62392733  1
  In  In70  1  0.82989818  0.65871113  0.12198072  1
  In  In71  1  0.83671155  0.67124220  0.61342747  1
  In  In72  1  0.66303250  0.66299200  0.75100889  1
  In  In73  1  0.67051066  -0.00246785  0.25555379  1
  In  In74  1  0.66669387  0.33510467  0.24731590  1
  In  In75  1  0.16034924  0.50425020  0.00731003  1
  In  In76  1  0.16764930  0.49701728  0.49229975  1
  In  In77  1  0.50239759  0.15558201  0.00329563  1
  In  In78  1  0.33759121  0.00264760  0.75228204  1
  In  In79  1  0.49978097  0.83339821  0.50980449  1
  In  In80  1  -0.00305022  0.00363256  0.75476491  1
  In  In81  1  0.16393877  0.16198642  0.00965567  1
  In  In82  1  0.33258644  0.66342411  0.25749330  1
  In  In83  1  -0.00089048  0.66314287  0.25017594  1
  In  In84  1  0.50779575  0.50734718  -0.01240051  1
  In  In85  1  -0.00159191  0.66322052  0.73749481  1
  Cu  Cu86  1  0.83317652  0.49819702  0.25018689  1
  Cu  Cu87  1  0.33252996  0.68203372  -0.00080070  1
  Cu  Cu88  1  0.33094242  0.32452993  0.49803583  1
  Cu  Cu89  1  0.83493787  0.83191421  0.25149811  1
  Cu  Cu90  1  -0.00124370  0.32952512  0.49548350  1
  Cu  Cu91  1  0.16572318  0.83284512  0.74995979  1
  Cu  Cu92  1  0.17486823  0.17513522  0.74056331  1
  Cu  Cu93  1  0.50563673  0.16785205  0.74591750  1
  Cu  Cu94  1  0.00091084  0.00724816  0.49408875  1
  Cu  Cu95  1  0.83686429  0.17294496  0.74764682  1
  Cu  Cu96  1  0.49616740  0.49341245  0.74655193  1
  Cu  Cu97  1  0.16742794  0.49719651  0.74565863  1
  Cu  Cu98  1  0.67240675  0.00451194  0.50109879  1
  Cu  Cu99  1  0.16509329  0.83654916  0.24983547  1
  Cu  Cu100  1  0.50732033  0.50482143  0.25450761  1
  Cu  Cu101  1  0.32706554  -0.00014515  0.49762632  1
  Cu  Cu102  1  0.67167669  -0.00231376  -0.00280892  1
  Cu  Cu103  1  0.49461019  0.16953960  0.25573181  1
  Cu  Cu104  1  0.49992548  0.83136709  0.24673780  1
  Cu  Cu105  1  -0.00231803  0.66620263  0.00241769  1
  Cu  Cu106  1  0.66776835  0.66711460  -0.00090552  1
  Cu  Cu107  1  0.68136488  0.32703269  -0.00347332  1
  Cu  Cu108  1  0.66766694  0.33525318  0.50336979  1
  Cu  Cu109  1  -0.00247758  -0.00162006  0.00282158  1
  Cu  Cu110  1  -0.00296149  0.32742358  0.00073630  1
  Cu  Cu111  1  0.83159342  0.49578965  0.74690639  1
  Cu  Cu112  1  0.33377060  0.66269504  0.49882165  1
  Cu  Cu113  1  0.66538713  0.66682108  0.50295138  1
  Cu  Cu114  1  0.32705164  0.33344848  0.00160665  1
  Se  Se115  1  0.06919601  0.07941742  0.06855372  1
  Se  Se116  1  0.08798941  0.08872836  0.54589482  1
  Se  Se117  1  0.08084722  0.40123370  0.06453228  1
  Se  Se118  1  0.08053401  0.40847693  0.55729939  1
  Se  Se119  1  0.08514027  0.75047299  0.04980713  1
  Se  Se120  1  0.08443882  0.75181627  0.54571760  1
  Se  Se121  1  0.40384578  0.08427201  0.06787212  1
  Se  Se122  1  0.41638957  0.07907161  0.54886525  1
  Se  Se123  1  0.41556092  0.41772217  0.05177606  1
  Se  Se124  1  0.41354689  0.40952348  0.55207110  1
  Se  Se125  1  0.42040958  0.76263191  0.05002109  1
  Se  Se126  1  0.40735449  0.74123846  0.56539553  1
  Se  Se127  1  0.75396604  0.08494616  0.04702145  1
  Se  Se128  1  0.75583573  0.08897127  0.55368370  1
  Se  Se129  1  0.75656765  0.41553949  0.05125093  1
  Se  Se130  1  0.75378066  0.41936541  0.55403387  1
  Se  Se131  1  0.75005397  0.74810283  0.05578698  1
  Se  Se132  1  0.74251958  0.75617211  0.55547036  1
  Se  Se133  1  0.24996847  0.26031088  0.06703927  1
  Se  Se134  1  0.24418034  0.24259255  0.54933881  1
  Se  Se135  1  0.26091377  0.59497386  0.06072095  1
  Se  Se136  1  0.25330666  0.58218985  0.56087517  1
  Se  Se137  1  0.23093945  0.91761850  0.06145172  1
  Se  Se138  1  0.24740324  0.91271688  0.55031108  1
  Se  Se139  1  0.59518828  0.25477488  0.05767997  1
  Se  Se140  1  0.58419690  0.24894358  0.55480473  1
  Se  Se141  1  0.58525461  0.59059833  0.06156097  1
  Se  Se142  1  0.57865703  0.58003612  0.54900456  1
  Se  Se143  1  0.58486464  0.92050357  0.05296594  1
  Se  Se144  1  0.59362150  0.92502041  0.56376341  1
  Se  Se145  1  0.92131793  0.24226156  0.05852435  1
  Se  Se146  1  0.91514033  0.25039340  0.55273881  1
  Se  Se147  1  0.91912132  0.57813859  0.05515581  1
  Se  Se148  1  0.91909324  0.58948189  0.54724476  1
  Se  Se149  1  0.91259459  0.90950462  0.05048044  1
  Se  Se150  1  0.92028621  0.92659334  0.55352617  1
  Se  Se151  1  0.08288919  0.24898457  0.44002644  1
  Se  Se152  1  0.08466966  0.25573928  0.94053402  1
  Se  Se153  1  0.07243357  0.59032940  0.44050538  1
  Se  Se154  1  0.07753865  0.58972078  0.93739095  1
  Se  Se155  1  0.08278358  0.92172254  0.44020160  1
  Se  Se156  1  0.08254289  0.91678392  0.94995873  1
  Se  Se157  1  0.41744992  0.24036414  0.44701155  1
  Se  Se158  1  0.41045237  0.25279103  0.94527208  1
  Se  Se159  1  0.41449651  0.57479138  0.44942710  1
  Se  Se160  1  0.40617913  0.59567354  0.93816510  1
  Se  Se161  1  0.41372937  0.91846353  0.44164713  1
  Se  Se162  1  0.41250222  0.93379493  0.95068468  1
  Se  Se163  1  0.75226685  0.25206369  0.45067242  1
  Se  Se164  1  0.76068878  0.24333364  0.94167439  1
  Se  Se165  1  0.74822735  0.58517971  0.44741080  1
  Se  Se166  1  0.75041239  0.57698851  0.95190646  1
  Se  Se167  1  0.75385793  0.91902399  0.44800192  1
  Se  Se168  1  0.75429325  0.91182259  0.94526496  1
  Se  Se169  1  0.24688564  0.08178687  0.44040825  1
  Se  Se170  1  0.25761769  0.07644403  0.94830631  1
  Se  Se171  1  0.24967472  0.39966256  0.43449288  1
  Se  Se172  1  0.24932124  0.41555839  0.94194272  1
  Se  Se173  1  0.24934209  0.74991150  0.45192823  1
  Se  Se174  1  0.24181642  0.75830765  0.94721751  1
  Se  Se175  1  0.58251661  0.08589564  0.45282740  1
  Se  Se176  1  0.59265889  0.07861559  0.93510332  1
  Se  Se177  1  0.58297523  0.41671294  0.44812773  1
  Se  Se178  1  0.59383536  0.40270780  0.93807521  1
  Se  Se179  1  0.58591691  0.74845267  0.44171498  1
  Se  Se180  1  0.58568378  0.75066072  0.94458184  1
  Se  Se181  1  0.91386074  0.09008623  0.44395100  1
  Se  Se182  1  0.91963724  0.08119429  0.94405101  1
  Se  Se183  1  0.91570729  0.41978501  0.44906478  1
  Se  Se184  1  0.91788756  0.41449045  0.94709029  1
  Se  Se185  1  0.91491792  0.75222289  0.45142818  1
  Se  Se186  1  0.91317619  0.74811471  0.94871634  1
  Se  Se187  1  0.26838572  0.26945851  0.30519015  1
  Se  Se188  1  0.25961665  0.25125533  0.79915468  1
  Se  Se189  1  0.23791645  0.57098574  0.30951050  1
  Se  Se190  1  0.24674595  0.58368390  0.79917914  1
  Se  Se191  1  0.25098813  0.91821488  0.30222376  1
  Se  Se192  1  0.24052204  0.91718047  0.81005212  1
  Se  Se193  1  0.58117087  0.24622994  0.31252409  1
  Se  Se194  1  0.58742006  0.25383378  0.79916318  1
  Se  Se195  1  0.59020178  0.58832321  0.30478304  1
  Se  Se196  1  0.57147299  0.57323652  0.81278662  1
  Se  Se197  1  0.57572002  0.90866457  0.31434497  1
  Se  Se198  1  0.59367618  0.91459712  0.79790153  1
  Se  Se199  1  0.91777383  0.25510760  0.30214653  1
  Se  Se200  1  0.92262772  0.25489639  0.80064156  1
  Se  Se201  1  0.90989059  0.57810049  0.31387918  1
  Se  Se202  1  0.91148532  0.57828923  0.80659705  1
  Se  Se203  1  0.91514281  0.91836797  0.30362090  1
  Se  Se204  1  0.90901045  0.90700639  0.80777715  1
  Se  Se205  1  0.08726118  0.09363933  0.29835647  1
  Se  Se206  1  0.09637464  0.09775071  0.80559324  1
  Se  Se207  1  0.07753841  0.41889752  0.29412766  1
  Se  Se208  1  0.08200247  0.41573749  0.79819063  1
  Se  Se209  1  0.08668556  0.75530165  0.31094611  1
  Se  Se210  1  0.08011514  0.75365397  0.80716773  1
  Se  Se211  1  0.41291974  0.08108368  0.30481468  1
  Se  Se212  1  0.43137741  0.08952259  0.81348393  1
  Se  Se213  1  0.42590523  0.41876686  0.30557892  1
  Se  Se214  1  0.41236054  0.41237258  0.80224671  1
  Se  Se215  1  0.42454136  0.75537035  0.31553791  1
  Se  Se216  1  0.40134580  0.75671545  0.80550923  1
  Se  Se217  1  0.75617822  0.09555914  0.30905121  1
  Se  Se218  1  0.75767723  0.08551966  0.80121240  1
  Se  Se219  1  0.75452442  0.41862668  0.31281966  1
  Se  Se220  1  0.75016151  0.41296408  0.80206028  1
  Se  Se221  1  0.75136211  0.74687427  0.30218617  1
  Se  Se222  1  0.75803666  0.74928543  0.80796896  1
  Se  Se223  1  0.23984015  0.08902353  0.20803090  1
  Se  Se224  1  0.24793304  0.08438278  0.68472562  1
  Se  Se225  1  0.25443234  0.41313805  0.20433953  1
  Se  Se226  1  0.25439209  0.41277875  0.69609745  1
  Se  Se227  1  0.24929503  0.75543436  0.19263667  1
  Se  Se228  1  0.24814575  0.74873832  0.69759468  1
  Se  Se229  1  0.57483829  0.08833253  0.19545495  1
  Se  Se230  1  0.58896448  0.08374142  0.69480862  1
  Se  Se231  1  0.57702780  0.42620669  0.18470819  1
  Se  Se232  1  0.58381011  0.41596979  0.69287749  1
  Se  Se233  1  0.58592718  0.74797678  0.19814211  1
  Se  Se234  1  0.57265802  0.75513262  0.69341213  1
  Se  Se235  1  0.90512098  0.07119054  0.20074774  1
  Se  Se236  1  0.91663404  0.09181359  0.68707954  1
  Se  Se237  1  0.91430059  0.41320396  0.19697436  1
  Se  Se238  1  0.91815865  0.41467274  0.69497437  1
  Se  Se239  1  0.91472131  0.75491793  0.18731687  1
  Se  Se240  1  0.90697551  0.76178335  0.68944335  1
  Se  Se241  1  0.08852915  0.22728060  0.21098921  1
  Se  Se242  1  0.08294604  0.25377854  0.69220405  1
  Se  Se243  1  0.09553216  0.57318804  0.19363394  1
  Se  Se244  1  0.09035794  0.57234361  0.67994027  1
  Se  Se245  1  0.07334105  0.91560761  0.20107961  1
  Se  Se246  1  0.08442274  0.91253516  0.69054076  1
  Se  Se247  1  0.41678975  0.25737319  0.20171536  1
  Se  Se248  1  0.41722414  0.24709601  0.69313626  1
  Se  Se249  1  0.42256437  0.57841719  0.19028872  1
  Se  Se250  1  0.41469792  0.58282899  0.69773294  1
  Se  Se251  1  0.41470871  0.91581459  0.19803956  1
  Se  Se252  1  0.42535049  0.91075408  0.69230418  1
  Se  Se253  1  0.75514617  0.24115470  0.19091346  1
  Se  Se254  1  0.74970847  0.25376708  0.69488808  1
  Se  Se255  1  0.75077811  0.58442422  0.19909180  1
  Se  Se256  1  0.75596183  0.58034809  0.68683619  1
  Se  Se257  1  0.75291304  0.90998263  0.18927561  1
  Se  Se258  1  0.75179485  0.92531870  0.70241748  1
