# generated using pymatgen
data_In86Cu29Se144
_symmetry_space_group_name_H-M   'P 1'
_cell_length_a   17.57553609
_cell_length_b   17.57876246
_cell_length_c   23.43949982
_cell_angle_alpha   89.97522023
_cell_angle_beta   90.01216284
_cell_angle_gamma   89.97841320
_symmetry_Int_Tables_number   1
_chemical_formula_structural   In86Cu29Se144
_chemical_formula_sum   'In86 Cu29 Se144'
_cell_volume   7241.77683231
_cell_formula_units_Z   1
loop_
 _symmetry_equiv_pos_site_id
 _symmetry_equiv_pos_as_xyz
  1  'x, y, z'
loop_
 _atom_site_type_symbol
 _atom_site_label
 _atom_site_symmetry_multiplicity
 _atom_site_fract_x
 _atom_site_fract_y
 _atom_site_fract_z
 _atom_site_occupancy
  In  In0  1  0.01257548  0.17028997  0.12996867  1
  In  In1  1  0.00136075  0.16986587  0.62157286  1
  In  In2  1  0.00691618  0.49503754  0.13426937  1
  In  In3  1  -0.00175274  0.49269470  0.62097998  1
  In  In4  1  -0.01491397  0.83478664  0.12662515  1
  In  In5  1  0.01237161  0.83163508  0.63139778  1
  In  In6  1  0.34240617  0.15452488  0.13824615  1
  In  In7  1  0.33379830  0.16789705  0.62420177  1
  In  In8  1  0.32365291  0.48845305  0.12116754  1
  In  In9  1  0.31959496  0.50532157  0.62360059  1
  In  In10  1  0.34888399  0.84263368  0.13267897  1
  In  In11  1  0.34056868  0.83888239  0.61611319  1
  In  In12  1  0.64966734  0.16780399  0.12440574  1
  In  In13  1  0.65741201  0.15770042  0.61661871  1
  In  In14  1  0.66974286  0.51271604  0.12435169  1
  In  In15  1  0.67192330  0.48746534  0.62246258  1
  In  In16  1  0.66680963  0.82555608  0.13358890  1
  In  In17  1  0.66667770  0.85266033  0.62873811  1
  In  In18  1  0.17811173  -0.00808532  0.38845558  1
  In  In19  1  0.17289880  0.00201017  0.85409902  1
  In  In20  1  0.16712285  0.33297606  0.37987293  1
  In  In21  1  0.17434414  0.33912714  0.86523126  1
  In  In22  1  0.16218690  0.67899721  0.38485130  1
  In  In23  1  0.15360304  0.65693835  0.87761671  1
  In  In24  1  0.50221230  0.00058150  0.37677966  1
  In  In25  1  0.50842229  0.00837487  0.86769320  1
  In  In26  1  0.48483362  0.33267484  0.37383303  1
  In  In27  1  0.48068799  0.33717621  0.87967254  1
  In  In28  1  0.51190518  0.66958787  0.37185263  1
  In  In29  1  0.49237910  0.65736765  0.87739206  1
  In  In30  1  0.82991513  0.01146617  0.37868613  1
  In  In31  1  0.82016587  -0.01854178  0.85153252  1
  In  In32  1  0.84563917  0.32303559  0.38065310  1
  In  In33  1  0.83322416  0.32836467  0.86789997  1
  In  In34  1  0.82648497  0.65983637  0.37233815  1
  In  In35  1  0.84631172  0.67271138  0.87573242  1
  In  In36  1  -0.00427513  0.17329609  0.38381265  1
  In  In37  1  -0.00004727  0.17061506  0.86248844  1
  In  In38  1  0.00115567  0.49976382  0.37741300  1
  In  In39  1  0.01031718  0.50517366  0.87148609  1
  In  In40  1  0.01488688  0.83304777  0.37821145  1
  In  In41  1  -0.00768278  0.83153962  0.87021162  1
  In  In42  1  0.33299211  0.16743840  0.38109328  1
  In  In43  1  0.33722279  0.16910299  0.86640314  1
  In  In44  1  0.33405663  0.48593606  0.37483541  1
  In  In45  1  0.34007056  0.48323484  0.88104121  1
  In  In46  1  0.32749111  0.84006493  0.38420762  1
  In  In47  1  0.32727775  0.84628122  0.86815920  1
  In  In48  1  0.67382480  0.15433178  0.37930810  1
  In  In49  1  0.66059471  0.14640631  0.87497481  1
  In  In50  1  0.66802176  0.51367220  0.37410537  1
  In  In51  1  0.65619270  0.48942641  0.87465446  1
  In  In52  1  0.65427304  0.82750460  0.36635317  1
  In  In53  1  0.66899866  0.85355300  0.87628309  1
  In  In54  1  0.17487400  0.01076258  0.12842781  1
  In  In55  1  0.16528479  0.00089027  0.62655959  1
  In  In56  1  0.16113841  0.33677009  0.13522179  1
  In  In57  1  0.16677915  0.33546311  0.62236760  1
  In  In58  1  0.17371532  0.64832531  0.12962363  1
  In  In59  1  0.18117528  0.66996746  0.60382432  1
  In  In60  1  0.49856394  -0.00114892  0.13420007  1
  In  In61  1  0.49932833  0.00288062  0.62414481  1
  In  In62  1  0.48747720  0.31984728  0.12014168  1
  In  In63  1  0.50719516  0.31780315  0.62556440  1
  In  In64  1  0.51368519  0.66897020  0.12587357  1
  In  In65  1  0.47847141  0.67008310  0.61540416  1
  In  In66  1  0.83055194  -0.01746589  0.11929078  1
  In  In67  1  0.82102247  0.00704992  0.63487373  1
  In  In68  1  0.83817174  0.34439882  0.12785632  1
  In  In69  1  0.84802687  0.34364614  0.61761128  1
  In  In70  1  0.82268523  0.67608345  0.13553235  1
  In  In71  1  0.84419009  0.66134665  0.62468610  1
  In  In72  1  0.50405306  0.83101058  0.00718336  1
  In  In73  1  0.83482883  0.83572605  0.50778460  1
  In  In74  1  0.00331952  0.66798454  0.74625126  1
  In  In75  1  0.83122939  0.50282764  0.00025040  1
  In  In76  1  0.66553044  0.67063769  0.75181226  1
  In  In77  1  0.17166244  0.16839318  -0.00403016  1
  In  In78  1  0.32933740  0.66781797  0.74338610  1
  In  In79  1  0.33462059  0.67038405  0.25442943  1
  In  In80  1  0.00091214  0.00156425  0.25439663  1
  In  In81  1  0.50132796  0.49799316  0.49696922  1
  In  In82  1  0.66706060  0.33585928  0.24558420  1
  In  In83  1  0.66524626  0.32853317  0.75022962  1
  In  In84  1  0.83119903  0.16242514  -0.00443590  1
  In  In85  1  0.16346434  0.82621595  -0.00429141  1
  Cu  Cu86  1  0.83611586  0.16465202  0.25496831  1
  Cu  Cu87  1  -0.00285991  0.66448140  0.00267661  1
  Cu  Cu88  1  0.16553984  0.49899565  0.74561289  1
  Cu  Cu89  1  0.00325927  0.00404108  0.50331097  1
  Cu  Cu90  1  -0.00403259  -0.00243831  -0.00872070  1
  Cu  Cu91  1  0.49767049  0.16619781  0.25370330  1
  Cu  Cu92  1  0.66230583  -0.00109952  0.50120281  1
  Cu  Cu93  1  0.33570216  0.00715294  0.50356088  1
  Cu  Cu94  1  0.33880250  0.00059629  0.00349319  1
  Cu  Cu95  1  0.49816928  0.50185531  0.25091185  1
  Cu  Cu96  1  0.16743688  0.83437824  0.25856405  1
  Cu  Cu97  1  0.32953791  0.65511424  -0.00087610  1
  Cu  Cu98  1  0.33225737  0.33110790  0.50166983  1
  Cu  Cu99  1  0.83169290  0.82965491  0.25205611  1
  Cu  Cu100  1  0.67440229  0.32830753  0.49884145  1
  Cu  Cu101  1  0.83988884  0.49998920  0.25295387  1
  Cu  Cu102  1  0.49744837  0.16141412  0.74730121  1
  Cu  Cu103  1  0.83627927  0.17551783  0.74379582  1
  Cu  Cu104  1  0.00476801  0.33828395  0.00390441  1
  Cu  Cu105  1  0.49940803  0.83798310  0.74411345  1
  Cu  Cu106  1  0.00529994  0.33575767  0.50031223  1
  Cu  Cu107  1  0.17053666  0.16982236  0.25801005  1
  Cu  Cu108  1  0.66953766  0.67162626  0.00424643  1
  Cu  Cu109  1  0.16173481  0.49796007  0.25495265  1
  Cu  Cu110  1  0.32709014  0.32877340  0.00076973  1
  Cu  Cu111  1  0.16632723  0.17274278  0.73958706  1
  Cu  Cu112  1  -0.00062448  0.66238515  0.50063543  1
  Cu  Cu113  1  0.66685744  0.67000437  0.49589734  1
  Cu  Cu114  1  0.65134128  0.32978918  -0.00281419  1
  Se  Se115  1  0.07595026  0.07457970  0.05397617  1
  Se  Se116  1  0.08796436  0.08742739  0.55496900  1
  Se  Se117  1  0.08633439  0.41776713  0.06000659  1
  Se  Se118  1  0.08873611  0.42162413  0.55133084  1
  Se  Se119  1  0.07938869  0.74222678  0.06453629  1
  Se  Se120  1  0.07779708  0.75143305  0.55244223  1
  Se  Se121  1  0.41822370  0.08070886  0.06106183  1
  Se  Se122  1  0.42174512  0.08995803  0.55484161  1
  Se  Se123  1  0.41323579  0.41248025  0.05319624  1
  Se  Se124  1  0.41592481  0.40994572  0.56180493  1
  Se  Se125  1  0.40492740  0.73893105  0.06006871  1
  Se  Se126  1  0.40508314  0.74797557  0.54255949  1
  Se  Se127  1  0.74345804  0.07997849  0.06068989  1
  Se  Se128  1  0.75157463  0.07925513  0.55271176  1
  Se  Se129  1  0.73761373  0.40653726  0.05571178  1
  Se  Se130  1  0.75428951  0.41728075  0.54852846  1
  Se  Se131  1  0.75153839  0.75403056  0.05787551  1
  Se  Se132  1  0.74115202  0.74462851  0.56480547  1
  Se  Se133  1  0.25391160  0.24928879  0.06725773  1
  Se  Se134  1  0.24837550  0.24868921  0.55499757  1
  Se  Se135  1  0.24380606  0.57390853  0.05100569  1
  Se  Se136  1  0.25767533  0.57751003  0.54125358  1
  Se  Se137  1  0.25414381  0.91789684  0.05810324  1
  Se  Se138  1  0.24966010  0.92281979  0.55428459  1
  Se  Se139  1  0.57271980  0.24276266  0.04937703  1
  Se  Se140  1  0.58388236  0.24837286  0.54718239  1
  Se  Se141  1  0.58424496  0.58435691  0.05120247  1
  Se  Se142  1  0.58928310  0.58915985  0.56012316  1
  Se  Se143  1  0.59214417  0.92282553  0.06354386  1
  Se  Se144  1  0.57909070  0.91524462  0.55390811  1
  Se  Se145  1  0.92315106  0.25418458  0.05881035  1
  Se  Se146  1  0.91811881  0.25045956  0.54971072  1
  Se  Se147  1  0.91714375  0.58753727  0.06646309  1
  Se  Se148  1  0.91561207  0.57867889  0.55181289  1
  Se  Se149  1  0.91840944  0.91300310  0.04713344  1
  Se  Se150  1  0.92327749  0.92624152  0.56645147  1
  Se  Se151  1  0.08777481  0.24788790  0.45013562  1
  Se  Se152  1  0.07729569  0.25705767  0.93917258  1
  Se  Se153  1  0.08475011  0.58259586  0.44648448  1
  Se  Se154  1  0.07994566  0.57755253  0.95288216  1
  Se  Se155  1  0.08420335  0.91505189  0.45314846  1
  Se  Se156  1  0.08709374  0.92576391  0.93428456  1
  Se  Se157  1  0.41964307  0.24974211  0.45030024  1
  Se  Se158  1  0.40842687  0.24293949  0.94680468  1
  Se  Se159  1  0.41531214  0.58695476  0.43468442  1
  Se  Se160  1  0.41729490  0.57438884  0.94839278  1
  Se  Se161  1  0.41672953  0.92290018  0.44807925  1
  Se  Se162  1  0.41497684  0.91743173  0.94257004  1
  Se  Se163  1  0.75551369  0.24272085  0.44498795  1
  Se  Se164  1  0.73832080  0.25676472  0.93774110  1
  Se  Se165  1  0.75165756  0.58258508  0.44963626  1
  Se  Se166  1  0.74223371  0.59137076  0.93725514  1
  Se  Se167  1  0.74454139  0.91752440  0.44210487  1
  Se  Se168  1  0.75868313  0.92679591  0.94253607  1
  Se  Se169  1  0.24821009  0.08954417  0.45255207  1
  Se  Se170  1  0.25611895  0.07123775  0.93830154  1
  Se  Se171  1  0.25051651  0.41698310  0.44961735  1
  Se  Se172  1  0.24323303  0.41212947  0.94703108  1
  Se  Se173  1  0.25180956  0.75158220  0.45186061  1
  Se  Se174  1  0.26014345  0.73970213  0.93600261  1
  Se  Se175  1  0.58111730  0.08604845  0.44881460  1
  Se  Se176  1  0.57989911  0.07551515  0.94867663  1
  Se  Se177  1  0.59298053  0.40753219  0.43596396  1
  Se  Se178  1  0.57160518  0.41756385  0.94601716  1
  Se  Se179  1  0.58204022  0.75405394  0.44676354  1
  Se  Se180  1  0.58995535  0.74563627  0.93749148  1
  Se  Se181  1  0.91628910  0.08315021  0.44981879  1
  Se  Se182  1  0.92040531  0.08002605  0.93126247  1
  Se  Se183  1  0.91764995  0.41685326  0.44707046  1
  Se  Se184  1  0.92043603  0.41096251  0.94077426  1
  Se  Se185  1  0.91920626  0.74695222  0.44182074  1
  Se  Se186  1  0.92126568  0.75294511  0.94894836  1
  Se  Se187  1  0.25415553  0.25379040  0.31041024  1
  Se  Se188  1  0.25077609  0.24961420  0.79933046  1
  Se  Se189  1  0.24380077  0.57988311  0.31326439  1
  Se  Se190  1  0.24466322  0.57732411  0.80946637  1
  Se  Se191  1  0.25032982  0.91925495  0.30841318  1
  Se  Se192  1  0.25085025  0.91164132  0.79023942  1
  Se  Se193  1  0.58263304  0.24754222  0.31111914  1
  Se  Se194  1  0.57433686  0.24224608  0.81226346  1
  Se  Se195  1  0.58542722  0.58445438  0.29902760  1
  Se  Se196  1  0.57199220  0.57457675  0.80407420  1
  Se  Se197  1  0.59798170  0.93577556  0.30692524  1
  Se  Se198  1  0.58366639  0.91749802  0.79966680  1
  Se  Se199  1  0.92185890  0.24720711  0.30395663  1
  Se  Se200  1  0.91964471  0.25923271  0.79594050  1
  Se  Se201  1  0.92022595  0.58492601  0.30723530  1
  Se  Se202  1  0.90978027  0.57610356  0.80451157  1
  Se  Se203  1  0.91058370  0.90945673  0.31444686  1
  Se  Se204  1  0.93644205  0.92736185  0.79911623  1
  Se  Se205  1  0.09054008  0.08584878  0.31759364  1
  Se  Se206  1  0.08482237  0.08998634  0.79528595  1
  Se  Se207  1  0.08169972  0.41251441  0.30929904  1
  Se  Se208  1  0.08141804  0.41778727  0.80049962  1
  Se  Se209  1  0.08335646  0.74668875  0.30439105  1
  Se  Se210  1  0.09612605  0.75670432  0.80667580  1
  Se  Se211  1  0.41526558  0.08586494  0.31062768  1
  Se  Se212  1  0.41295013  0.07689417  0.80012838  1
  Se  Se213  1  0.41451728  0.41509926  0.29835328  1
  Se  Se214  1  0.41095268  0.41315089  0.80143239  1
  Se  Se215  1  0.42135042  0.76228465  0.31234461  1
  Se  Se216  1  0.42395766  0.75613741  0.80697739  1
  Se  Se217  1  0.74952776  0.08012811  0.30093270  1
  Se  Se218  1  0.75233374  0.09231860  0.79843259  1
  Se  Se219  1  0.75665603  0.41880701  0.31157421  1
  Se  Se220  1  0.75552743  0.42739365  0.80479922  1
  Se  Se221  1  0.74685280  0.74580226  0.30447486  1
  Se  Se222  1  0.75664537  0.75832963  0.81134151  1
  Se  Se223  1  0.24998897  0.08086513  0.20621136  1
  Se  Se224  1  0.25207961  0.08489465  0.69358729  1
  Se  Se225  1  0.24927187  0.41812070  0.20117582  1
  Se  Se226  1  0.25113654  0.41555081  0.69464495  1
  Se  Se227  1  0.24378647  0.75914051  0.19014528  1
  Se  Se228  1  0.24215775  0.75751186  0.68377475  1
  Se  Se229  1  0.58379488  0.08545275  0.20079757  1
  Se  Se230  1  0.58599517  0.08156389  0.69526144  1
  Se  Se231  1  0.57472188  0.42294100  0.18514529  1
  Se  Se232  1  0.57489251  0.42192158  0.69248897  1
  Se  Se233  1  0.57006500  0.75831059  0.19989774  1
  Se  Se234  1  0.57251891  0.75139271  0.68481812  1
  Se  Se235  1  0.91151070  0.08555751  0.18737162  1
  Se  Se236  1  0.91766953  0.08899245  0.69249169  1
  Se  Se237  1  0.92123348  0.41260780  0.20214831  1
  Se  Se238  1  0.91470790  0.42326947  0.69497236  1
  Se  Se239  1  0.91945161  0.74842753  0.20120576  1
  Se  Se240  1  0.90555016  0.76056525  0.69489660  1
  Se  Se241  1  0.08313282  0.24967111  0.20509531  1
  Se  Se242  1  0.07949546  0.25739297  0.69154394  1
  Se  Se243  1  0.08249324  0.58598559  0.20237074  1
  Se  Se244  1  0.09633820  0.58577564  0.68262452  1
  Se  Se245  1  0.09012769  0.91180200  0.19085558  1
  Se  Se246  1  0.07863781  0.92583457  0.69804677  1
  Se  Se247  1  0.41465218  0.25275353  0.20225828  1
  Se  Se248  1  0.41723883  0.24934374  0.69634030  1
  Se  Se249  1  0.41690797  0.57959273  0.18771706  1
  Se  Se250  1  0.42337672  0.57368091  0.69101001  1
  Se  Se251  1  0.41016824  0.92870815  0.20599875  1
  Se  Se252  1  0.41402404  0.91890446  0.69177102  1
  Se  Se253  1  0.75881160  0.24164820  0.18815394  1
  Se  Se254  1  0.75168986  0.24842077  0.68128525  1
  Se  Se255  1  0.75040044  0.58022890  0.20127131  1
  Se  Se256  1  0.75342552  0.57793084  0.69153727  1
  Se  Se257  1  0.75231977  0.91513065  0.19741728  1
  Se  Se258  1  0.75084213  0.91531869  0.70378314  1
