# generated using pymatgen
data_In86Cu29Se144
_symmetry_space_group_name_H-M   'P 1'
_cell_length_a   17.59088978
_cell_length_b   17.58834766
_cell_length_c   23.44778757
_cell_angle_alpha   89.99349413
_cell_angle_beta   90.00690720
_cell_angle_gamma   90.00506258
_symmetry_Int_Tables_number   1
_chemical_formula_structural   In86Cu29Se144
_chemical_formula_sum   'In86 Cu29 Se144'
_cell_volume   7254.62072279
_cell_formula_units_Z   1
loop_
 _symmetry_equiv_pos_site_id
 _symmetry_equiv_pos_as_xyz
  1  'x, y, z'
loop_
 _atom_site_type_symbol
 _atom_site_label
 _atom_site_symmetry_multiplicity
 _atom_site_fract_x
 _atom_site_fract_y
 _atom_site_fract_z
 _atom_site_occupancy
  In  In0  1  0.00889178  0.17799928  0.11833249  1
  In  In1  1  0.00458979  0.15271681  0.62555106  1
  In  In2  1  -0.00177218  0.49656400  0.13408311  1
  In  In3  1  0.00871743  0.51201597  0.61802346  1
  In  In4  1  0.00303272  0.82161329  0.12736920  1
  In  In5  1  0.01593026  0.83292104  0.63682954  1
  In  In6  1  0.31104291  0.16223039  0.12884008  1
  In  In7  1  0.34742464  0.18637020  0.59872926  1
  In  In8  1  0.34228614  0.48721420  0.12796488  1
  In  In9  1  0.32896542  0.48478976  0.61302840  1
  In  In10  1  0.34080582  0.84323623  0.12014419  1
  In  In11  1  0.32688840  0.83527915  0.61442166  1
  In  In12  1  0.67214782  0.16721160  0.12942743  1
  In  In13  1  0.66162160  0.17594648  0.63175907  1
  In  In14  1  0.65636305  0.49696112  0.12483588  1
  In  In15  1  0.65485453  0.48875781  0.61623052  1
  In  In16  1  0.66260756  0.84582587  0.12443469  1
  In  In17  1  0.66425066  0.85091579  0.62657865  1
  In  In18  1  0.17964601  -0.00250223  0.38813579  1
  In  In19  1  0.16297692  0.00344449  0.87751997  1
  In  In20  1  0.16308535  0.34016025  0.38646317  1
  In  In21  1  0.16463336  0.31679289  0.87314328  1
  In  In22  1  0.16528338  0.66476010  0.37981838  1
  In  In23  1  0.16789664  0.67968465  0.86969348  1
  In  In24  1  0.49853385  0.00393242  0.37479773  1
  In  In25  1  0.49473490  -0.01156066  0.87223123  1
  In  In26  1  0.50115955  0.32148871  0.38581337  1
  In  In27  1  0.51245752  0.33791350  0.86917668  1
  In  In28  1  0.49523472  0.67407527  0.38268122  1
  In  In29  1  0.49868235  0.66792715  0.88045569  1
  In  In30  1  0.82331735  0.01712891  0.36651911  1
  In  In31  1  0.84239528  0.01054178  0.87289902  1
  In  In32  1  0.83938710  0.33522172  0.36341324  1
  In  In33  1  0.82223598  0.32986116  0.88073373  1
  In  In34  1  0.83382810  0.65093203  0.37367773  1
  In  In35  1  0.84504349  0.65812694  0.87210950  1
  In  In36  1  -0.00047110  0.17946972  0.36983175  1
  In  In37  1  0.01481687  0.15632628  0.88875241  1
  In  In38  1  -0.00048589  0.49640134  0.37545287  1
  In  In39  1  -0.00800756  0.50484100  0.86823924  1
  In  In40  1  0.01936700  0.83305002  0.37308578  1
  In  In41  1  0.01429881  0.84447547  0.86185610  1
  In  In42  1  0.34204330  0.16336652  0.38859694  1
  In  In43  1  0.31903073  0.16380321  0.87323618  1
  In  In44  1  0.33763184  0.48621178  0.39438123  1
  In  In45  1  0.34939596  0.49591847  0.87123925  1
  In  In46  1  0.32594978  0.84787354  0.39084127  1
  In  In47  1  0.32967845  0.83886872  0.88019304  1
  In  In48  1  0.66110427  0.15944132  0.36050323  1
  In  In49  1  0.67628595  0.17692457  0.87022886  1
  In  In50  1  0.67790464  0.49388630  0.38273506  1
  In  In51  1  0.66586740  0.48038223  0.87346090  1
  In  In52  1  0.65174802  0.84358775  0.37445511  1
  In  In53  1  0.65254619  0.83679621  0.87409472  1
  In  In54  1  0.17755664  0.01231335  0.12351344  1
  In  In55  1  0.16686908  -0.00037021  0.61723713  1
  In  In56  1  0.15317012  0.31595517  0.12192726  1
  In  In57  1  0.17612059  0.34155830  0.61245431  1
  In  In58  1  0.15474402  0.66782212  0.12754841  1
  In  In59  1  0.16493383  0.66873440  0.62173278  1
  In  In60  1  0.50292038  -0.00232956  0.12891665  1
  In  In61  1  0.49988784  0.01383038  0.61132805  1
  In  In62  1  0.50098135  0.34370093  0.12451619  1
  In  In63  1  0.50271624  0.33178936  0.62191094  1
  In  In64  1  0.49664281  0.66759089  0.11867776  1
  In  In65  1  0.49564003  0.66258006  0.61751099  1
  In  In66  1  0.81793149  0.00451277  0.13045400  1
  In  In67  1  0.83265330  0.00689539  0.63503961  1
  In  In68  1  0.84197232  0.31809419  0.13791896  1
  In  In69  1  0.81803449  0.33092793  0.62504870  1
  In  In70  1  0.84493129  0.67306073  0.12930110  1
  In  In71  1  0.84899832  0.66648892  0.62546043  1
  In  In72  1  0.50114395  0.16762118  0.00073193  1
  In  In73  1  0.83003824  0.49430532  -0.00278700  1
  In  In74  1  0.83445619  0.83170427  0.50352710  1
  In  In75  1  0.17287218  0.49916714  0.00838508  1
  In  In76  1  0.32904572  0.32448711  0.25691835  1
  In  In77  1  0.32751082  0.66652870  0.26308345  1
  In  In78  1  0.83163955  0.83429932  0.00317985  1
  In  In79  1  0.83482820  0.17201556  0.49420998  1
  In  In80  1  0.66912277  0.66754498  0.24795369  1
  In  In81  1  -0.00316476  0.33196043  0.75192161  1
  In  In82  1  0.32742407  0.00364061  0.74256654  1
  In  In83  1  0.00327588  0.00071185  0.25169359  1
  In  In84  1  0.67166068  0.66569073  0.75460573  1
  In  In85  1  0.32971774  0.66580688  0.73928451  1
  Cu  Cu86  1  0.49627595  0.85087396  0.25056471  1
  Cu  Cu87  1  0.49930571  0.16747283  0.74027291  1
  Cu  Cu88  1  0.33157851  0.66634407  0.50149323  1
  Cu  Cu89  1  0.83428643  0.16427367  0.75435016  1
  Cu  Cu90  1  0.65803942  0.66424508  -0.00040694  1
  Cu  Cu91  1  0.83790306  0.49257724  0.25458785  1
  Cu  Cu92  1  0.50383132  0.50027396  0.25457495  1
  Cu  Cu93  1  0.66834121  0.66545926  0.49835323  1
  Cu  Cu94  1  0.00356723  -0.00538764  0.50169225  1
  Cu  Cu95  1  0.00157410  0.66504232  0.50019887  1
  Cu  Cu96  1  0.17253830  0.83210623  0.25773655  1
  Cu  Cu97  1  0.83681581  0.83147221  0.24861126  1
  Cu  Cu98  1  0.15908284  0.48941013  0.25457893  1
  Cu  Cu99  1  0.50349430  0.48421406  0.74629299  1
  Cu  Cu100  1  0.32888218  -0.00160219  -0.00056897  1
  Cu  Cu101  1  -0.00525348  0.33708955  0.49576834  1
  Cu  Cu102  1  0.00723479  0.66969610  -0.00200370  1
  Cu  Cu103  1  0.66179828  0.00816393  0.49743652  1
  Cu  Cu104  1  0.83548292  0.84008467  0.74695055  1
  Cu  Cu105  1  0.33593412  0.33351520  0.00181858  1
  Cu  Cu106  1  0.17115296  0.49944976  0.73897949  1
  Cu  Cu107  1  0.00001410  -0.00033797  0.00041772  1
  Cu  Cu108  1  0.66199374  0.00248403  0.00412839  1
  Cu  Cu109  1  0.83344898  0.50036445  0.74852392  1
  Cu  Cu110  1  0.66180039  0.33042428  0.49921034  1
  Cu  Cu111  1  0.16962043  0.16723443  0.74783420  1
  Cu  Cu112  1  0.33289283  0.67052669  -0.00277784  1
  Cu  Cu113  1  0.49754809  0.16642247  0.25264267  1
  Cu  Cu114  1  0.49794720  0.83518611  0.74734950  1
  Se  Se115  1  0.08450245  0.08177804  0.05472637  1
  Se  Se116  1  0.08495425  0.08634860  0.54814708  1
  Se  Se117  1  0.07181621  0.41243322  0.05737896  1
  Se  Se118  1  0.07886803  0.41857506  0.55116510  1
  Se  Se119  1  0.08799806  0.75344720  0.05177373  1
  Se  Se120  1  0.07827774  0.75258814  0.55561133  1
  Se  Se121  1  0.40703578  0.08063467  0.06058108  1
  Se  Se122  1  0.40086784  0.07102671  0.54194553  1
  Se  Se123  1  0.42024876  0.41981978  0.04979098  1
  Se  Se124  1  0.43555737  0.42611192  0.55313239  1
  Se  Se125  1  0.41684168  0.75358895  0.05218434  1
  Se  Se126  1  0.41627640  0.75111157  0.55240001  1
  Se  Se127  1  0.74727063  0.08467161  0.05452687  1
  Se  Se128  1  0.74743168  0.08270075  0.55821434  1
  Se  Se129  1  0.75064866  0.41122589  0.06603256  1
  Se  Se130  1  0.74887888  0.41351081  0.54988605  1
  Se  Se131  1  0.74055703  0.73938119  0.06193847  1
  Se  Se132  1  0.74188955  0.74445931  0.56511574  1
  Se  Se133  1  0.24992175  0.25148623  0.05288457  1
  Se  Se134  1  0.23209621  0.24073562  0.54532280  1
  Se  Se135  1  0.26357732  0.59275894  0.06684183  1
  Se  Se136  1  0.24852558  0.58384210  0.55597122  1
  Se  Se137  1  0.24557721  0.91657584  0.05488074  1
  Se  Se138  1  0.24931344  0.91999430  0.54708296  1
  Se  Se139  1  0.58942295  0.25762615  0.05925792  1
  Se  Se140  1  0.58333713  0.24296324  0.55285924  1
  Se  Se141  1  0.57842701  0.57992252  0.05412739  1
  Se  Se142  1  0.58250188  0.58299177  0.55068489  1
  Se  Se143  1  0.57674770  0.91701944  0.05235684  1
  Se  Se144  1  0.58362327  0.91968722  0.55074939  1
  Se  Se145  1  0.91122200  0.25036276  0.05574188  1
  Se  Se146  1  0.92274087  0.25587353  0.56206707  1
  Se  Se147  1  0.92434880  0.58879745  0.05567218  1
  Se  Se148  1  0.91377633  0.58210288  0.54931983  1
  Se  Se149  1  0.92150313  0.92259406  0.06496209  1
  Se  Se150  1  0.91971775  0.92335480  0.56429200  1
  Se  Se151  1  0.07712112  0.24809740  0.44807001  1
  Se  Se152  1  0.08748714  0.25310918  0.95136099  1
  Se  Se153  1  0.08154731  0.57944753  0.44555769  1
  Se  Se154  1  0.08341789  0.58345866  0.94014811  1
  Se  Se155  1  0.08797972  0.91187611  0.44956913  1
  Se  Se156  1  0.08065040  0.91624853  0.94490213  1
  Se  Se157  1  0.40010414  0.26719953  0.45383469  1
  Se  Se158  1  0.41050397  0.25275356  0.93722576  1
  Se  Se159  1  0.41876266  0.58532425  0.45003980  1
  Se  Se160  1  0.41413013  0.58377142  0.94589915  1
  Se  Se161  1  0.44855306  0.89316610  0.43851975  1
  Se  Se162  1  0.41634660  0.91674068  0.94874788  1
  Se  Se163  1  0.74083897  0.25476728  0.43419486  1
  Se  Se164  1  0.74265787  0.25087614  0.95041179  1
  Se  Se165  1  0.75582882  0.58198923  0.45116252  1
  Se  Se166  1  0.74112665  0.59076741  0.93754422  1
  Se  Se167  1  0.74844838  0.92741085  0.44220459  1
  Se  Se168  1  0.74311306  0.92290247  0.94134261  1
  Se  Se169  1  0.27723247  0.06243250  0.45624667  1
  Se  Se170  1  0.24628985  0.08408680  0.94790524  1
  Se  Se171  1  0.24095448  0.41999537  0.45855889  1
  Se  Se172  1  0.25591741  0.41312696  0.93942263  1
  Se  Se173  1  0.24707592  0.74841652  0.44794822  1
  Se  Se174  1  0.24708054  0.75153796  0.94554983  1
  Se  Se175  1  0.58370302  0.09200946  0.44071213  1
  Se  Se176  1  0.58533635  0.07700349  0.93675536  1
  Se  Se177  1  0.58246289  0.41815535  0.44573842  1
  Se  Se178  1  0.57998892  0.41705714  0.94691468  1
  Se  Se179  1  0.58834850  0.75230545  0.44695439  1
  Se  Se180  1  0.58025521  0.75361034  0.94751432  1
  Se  Se181  1  0.92389517  0.07338890  0.43958262  1
  Se  Se182  1  0.91423888  0.08471085  0.95144697  1
  Se  Se183  1  0.90885080  0.41491854  0.44114084  1
  Se  Se184  1  0.92765744  0.40969793  0.93940839  1
  Se  Se185  1  0.92258745  0.74601375  0.43820781  1
  Se  Se186  1  0.92321682  0.74937461  0.94027017  1
  Se  Se187  1  0.24315805  0.24136336  0.32182195  1
  Se  Se188  1  0.25320821  0.25208897  0.79893078  1
  Se  Se189  1  0.24598988  0.56242928  0.31536077  1
  Se  Se190  1  0.24765278  0.57517854  0.80732898  1
  Se  Se191  1  0.25275935  0.91737031  0.31021482  1
  Se  Se192  1  0.24310147  0.91252376  0.80600391  1
  Se  Se193  1  0.57584071  0.25584503  0.30404514  1
  Se  Se194  1  0.58199404  0.24468299  0.80061002  1
  Se  Se195  1  0.58056317  0.58414359  0.31346242  1
  Se  Se196  1  0.57405372  0.57471681  0.80716880  1
  Se  Se197  1  0.58689414  0.92988771  0.30004032  1
  Se  Se198  1  0.58204960  0.91924452  0.79862591  1
  Se  Se199  1  0.89607096  0.22717742  0.30212731  1
  Se  Se200  1  0.91523086  0.24173983  0.81660878  1
  Se  Se201  1  0.92109132  0.58130353  0.30234679  1
  Se  Se202  1  0.92030676  0.58702647  0.79349909  1
  Se  Se203  1  0.91145509  0.91061116  0.31417773  1
  Se  Se204  1  0.91730408  0.92277035  0.80325262  1
  Se  Se205  1  0.09181517  0.08187766  0.31787999  1
  Se  Se206  1  0.08666100  0.08853432  0.80573547  1
  Se  Se207  1  0.07863356  0.40541344  0.30852154  1
  Se  Se208  1  0.09355225  0.42398628  0.80692697  1
  Se  Se209  1  0.08881613  0.74225337  0.30287951  1
  Se  Se210  1  0.07509079  0.74012815  0.79946748  1
  Se  Se211  1  0.41352914  0.08833370  0.30846101  1
  Se  Se212  1  0.42127398  0.09053792  0.80585358  1
  Se  Se213  1  0.41998384  0.42060293  0.31189375  1
  Se  Se214  1  0.41619973  0.40583666  0.79981098  1
  Se  Se215  1  0.42154823  0.76390749  0.30963410  1
  Se  Se216  1  0.41803384  0.75452523  0.80644218  1
  Se  Se217  1  0.75108742  0.08956214  0.28994716  1
  Se  Se218  1  0.74751261  0.08034492  0.80500494  1
  Se  Se219  1  0.74356987  0.41694828  0.30264322  1
  Se  Se220  1  0.75621969  0.41331272  0.80243099  1
  Se  Se221  1  0.75474954  0.75694367  0.31332913  1
  Se  Se222  1  0.76063942  0.76091241  0.81302210  1
  Se  Se223  1  0.24640887  0.08142661  0.20549480  1
  Se  Se224  1  0.25067672  0.09932141  0.67991158  1
  Se  Se225  1  0.24182098  0.41544354  0.19159852  1
  Se  Se226  1  0.25330078  0.41190370  0.69147082  1
  Se  Se227  1  0.24910162  0.75357890  0.19190217  1
  Se  Se228  1  0.23992122  0.76557393  0.69195992  1
  Se  Se229  1  0.58064287  0.08703267  0.19426588  1
  Se  Se230  1  0.58058009  0.07905450  0.69069389  1
  Se  Se231  1  0.58266225  0.41617640  0.19990804  1
  Se  Se232  1  0.59199258  0.40592341  0.69475526  1
  Se  Se233  1  0.57156085  0.75940750  0.19350457  1
  Se  Se234  1  0.57904061  0.75021412  0.69096413  1
  Se  Se235  1  0.91875662  0.08580303  0.18623592  1
  Se  Se236  1  0.92122600  0.08523322  0.70179882  1
  Se  Se237  1  0.92260905  0.40955242  0.20219774  1
  Se  Se238  1  0.91336626  0.42130705  0.68585356  1
  Se  Se239  1  0.92469114  0.74646477  0.20364055  1
  Se  Se240  1  0.91789121  0.75424011  0.69671420  1
  Se  Se241  1  0.08788213  0.23952740  0.19987642  1
  Se  Se242  1  0.08827342  0.24948927  0.68824922  1
  Se  Se243  1  0.08530773  0.57972425  0.19905976  1
  Se  Se244  1  0.08546504  0.58663235  0.69423398  1
  Se  Se245  1  0.09277693  0.90870747  0.19248422  1
  Se  Se246  1  0.08059436  0.93901191  0.69461179  1
  Se  Se247  1  0.41894023  0.24388989  0.18751254  1
  Se  Se248  1  0.41387509  0.24690601  0.68645704  1
  Se  Se249  1  0.42118097  0.58126454  0.19741878  1
  Se  Se250  1  0.42357772  0.56972840  0.68968783  1
  Se  Se251  1  0.40750160  0.92673133  0.19668513  1
  Se  Se252  1  0.42125646  0.91374044  0.68468635  1
  Se  Se253  1  0.73576939  0.26050377  0.20032815  1
  Se  Se254  1  0.75145095  0.24886605  0.70173836  1
  Se  Se255  1  0.76109037  0.57430559  0.19037754  1
  Se  Se256  1  0.75192662  0.57776572  0.68651430  1
  Se  Se257  1  0.74807599  0.91198761  0.19948262  1
  Se  Se258  1  0.74652821  0.92247130  0.70014474  1
