# generated using pymatgen
data_In86Cu29Se144
_symmetry_space_group_name_H-M   'P 1'
_cell_length_a   17.58362383
_cell_length_b   17.58460719
_cell_length_c   23.43559238
_cell_angle_alpha   90.02283816
_cell_angle_beta   90.01282646
_cell_angle_gamma   89.98687998
_symmetry_Int_Tables_number   1
_chemical_formula_structural   In86Cu29Se144
_chemical_formula_sum   'In86 Cu29 Se144'
_cell_volume   7246.31041996
_cell_formula_units_Z   1
loop_
 _symmetry_equiv_pos_site_id
 _symmetry_equiv_pos_as_xyz
  1  'x, y, z'
loop_
 _atom_site_type_symbol
 _atom_site_label
 _atom_site_symmetry_multiplicity
 _atom_site_fract_x
 _atom_site_fract_y
 _atom_site_fract_z
 _atom_site_occupancy
  In  In0  1  -0.00656381  0.15942261  0.11396198  1
  In  In1  1  -0.01203676  0.16165063  0.63210612  1
  In  In2  1  0.00473069  0.50832850  0.12490664  1
  In  In3  1  -0.00010469  0.50234859  0.61908197  1
  In  In4  1  -0.01249628  0.82080366  0.11895818  1
  In  In5  1  -0.00708465  0.84009126  0.63328510  1
  In  In6  1  0.33327926  0.16792300  0.12282802  1
  In  In7  1  0.35316340  0.16908755  0.62489311  1
  In  In8  1  0.32188588  0.49544876  0.12676915  1
  In  In9  1  0.32791053  0.49169640  0.62089560  1
  In  In10  1  0.34908858  0.84575443  0.11464071  1
  In  In11  1  0.33037747  0.83339439  0.62752816  1
  In  In12  1  0.66531810  0.16341046  0.12089179  1
  In  In13  1  0.65571425  0.16651424  0.62768154  1
  In  In14  1  0.67071140  0.49691050  0.12967679  1
  In  In15  1  0.66874480  0.50209009  0.61481483  1
  In  In16  1  0.66496639  0.82932354  0.12726970  1
  In  In17  1  0.67441869  0.82779120  0.62851226  1
  In  In18  1  0.16858195  -0.01691281  0.36790896  1
  In  In19  1  0.15709146  0.00532631  0.88032036  1
  In  In20  1  0.18486879  0.33660915  0.36898186  1
  In  In21  1  0.18478115  0.32297967  0.88800507  1
  In  In22  1  0.15739287  0.66765489  0.37141304  1
  In  In23  1  0.16782459  0.66208044  0.88403172  1
  In  In24  1  0.50859160  0.01061024  0.36864189  1
  In  In25  1  0.51883777  -0.00885652  0.89610307  1
  In  In26  1  0.50059510  0.33324940  0.37099121  1
  In  In27  1  0.48521070  0.32804586  0.87271199  1
  In  In28  1  0.50190214  0.64845911  0.37322749  1
  In  In29  1  0.51415973  0.66918128  0.88150691  1
  In  In30  1  0.82047267  0.00134270  0.37466930  1
  In  In31  1  0.83302842  -0.00657227  0.87767568  1
  In  In32  1  0.83686884  0.34663597  0.37090663  1
  In  In33  1  0.82929595  0.34067065  0.88206828  1
  In  In34  1  0.83189124  0.66952082  0.37014826  1
  In  In35  1  0.82716724  0.66509066  0.88617198  1
  In  In36  1  -0.00514174  0.16364198  0.36992808  1
  In  In37  1  0.01116498  0.16200488  0.87872730  1
  In  In38  1  -0.01375568  0.51347478  0.38089981  1
  In  In39  1  -0.00127935  0.50343301  0.88003385  1
  In  In40  1  0.00257825  0.81930385  0.37099683  1
  In  In41  1  -0.01981808  0.84931979  0.88657811  1
  In  In42  1  0.34720735  0.18015618  0.36245738  1
  In  In43  1  0.33530791  0.17284705  0.88505383  1
  In  In44  1  0.35118142  0.49271739  0.38514844  1
  In  In45  1  0.34309023  0.46655294  0.87941142  1
  In  In46  1  0.32296670  0.83471645  0.36664554  1
  In  In47  1  0.33430745  0.83148540  0.88753065  1
  In  In48  1  0.65472380  0.15886246  0.36535236  1
  In  In49  1  0.68515748  0.14577914  0.90089294  1
  In  In50  1  0.66811480  0.49905587  0.37004438  1
  In  In51  1  0.67167138  0.50738743  0.87604588  1
  In  In52  1  0.67710933  0.84532223  0.36774778  1
  In  In53  1  0.66948293  0.83981825  0.89065322  1
  In  In54  1  0.17760087  0.01166987  0.11392671  1
  In  In55  1  0.16026053  -0.01183016  0.62917868  1
  In  In56  1  0.17667212  0.33443710  0.11687289  1
  In  In57  1  0.16920360  0.34870538  0.62472518  1
  In  In58  1  0.15724994  0.65870210  0.12158230  1
  In  In59  1  0.17069645  0.65389628  0.62327480  1
  In  In60  1  0.50530715  -0.00292381  0.12254549  1
  In  In61  1  0.49773875  0.01447191  0.62679731  1
  In  In62  1  0.50252604  0.32856365  0.12741289  1
  In  In63  1  0.50000206  0.32475231  0.62273833  1
  In  In64  1  0.50727596  0.68004449  0.12344891  1
  In  In65  1  0.50590254  0.66161656  0.61769319  1
  In  In66  1  0.79066620  -0.03176807  0.08872744  1
  In  In67  1  0.83533917  -0.01341430  0.64128793  1
  In  In68  1  0.82237828  0.32366062  0.11674974  1
  In  In69  1  0.82464425  0.33889741  0.62500209  1
  In  In70  1  0.83217777  0.67008317  0.12861239  1
  In  In71  1  0.83164156  0.66879946  0.61841728  1
  In  In72  1  -0.00438184  -0.00168556  0.23580711  1
  In  In73  1  0.16461041  0.82674898  0.49986746  1
  In  In74  1  0.66045055  0.32986488  0.75534361  1
  In  In75  1  0.33279646  0.66177542  0.74416420  1
  In  In76  1  0.82383142  0.17494964  0.50608536  1
  In  In77  1  0.66633247  0.66931583  0.75668882  1
  In  In78  1  0.16922967  0.16789649  0.49124751  1
  In  In79  1  0.50105377  0.50160754  0.00436080  1
  In  In80  1  0.33252085  0.01039578  0.75732563  1
  In  In81  1  0.00076646  0.33614431  0.24559496  1
  In  In82  1  -0.00590912  0.66985694  0.75248282  1
  In  In83  1  0.50135835  0.82774062  0.50040387  1
  In  In84  1  0.00127757  0.33318774  0.74788804  1
  In  In85  1  0.33563008  0.66446421  0.24724752  1
  Cu  Cu86  1  0.66304690  0.33795470  0.49483642  1
  Cu  Cu87  1  0.33620419  0.00183627  0.00127784  1
  Cu  Cu88  1  0.50166208  0.83980729  0.76224187  1
  Cu  Cu89  1  0.17432264  0.49095605  0.75569341  1
  Cu  Cu90  1  0.15379554  0.83804121  0.75822574  1
  Cu  Cu91  1  0.33825234  0.33216938  0.49650618  1
  Cu  Cu92  1  0.33139760  0.66182536  0.00466023  1
  Cu  Cu93  1  0.17435821  0.16970857  0.75808358  1
  Cu  Cu94  1  0.66391252  0.33521114  0.00449716  1
  Cu  Cu95  1  0.82023374  0.16414028  0.23880642  1
  Cu  Cu96  1  0.50276270  0.49378418  0.25062555  1
  Cu  Cu97  1  0.17159410  0.16261327  0.24183791  1
  Cu  Cu98  1  0.83209165  0.83614414  0.24269147  1
  Cu  Cu99  1  0.66749207  -0.00140705  0.49597943  1
  Cu  Cu100  1  0.50392033  0.16740563  0.75707858  1
  Cu  Cu101  1  0.83011878  0.50431437  0.25032469  1
  Cu  Cu102  1  0.17229418  0.83430639  0.23934952  1
  Cu  Cu103  1  -0.00204178  0.66574031  0.00275946  1
  Cu  Cu104  1  0.67117706  0.66437496  0.49400601  1
  Cu  Cu105  1  0.16633544  0.49941190  0.24800472  1
  Cu  Cu106  1  -0.00580357  0.66568154  0.49588673  1
  Cu  Cu107  1  0.00631267  0.34497233  0.49775439  1
  Cu  Cu108  1  -0.00902154  -0.00086066  0.50876418  1
  Cu  Cu109  1  0.49858381  0.16493432  0.24267506  1
  Cu  Cu110  1  0.00105080  0.34010850  0.00125452  1
  Cu  Cu111  1  0.00458885  0.00040717  -0.00320730  1
  Cu  Cu112  1  0.34045056  0.00663803  0.49337805  1
  Cu  Cu113  1  0.83175155  0.15758330  0.76024682  1
  Cu  Cu114  1  0.50573748  0.83805898  0.24630969  1
  Se  Se115  1  0.08727872  0.08770249  0.04710405  1
  Se  Se116  1  0.07918011  0.08104012  0.55907585  1
  Se  Se117  1  0.08402939  0.41970149  0.05824975  1
  Se  Se118  1  0.09008213  0.42527955  0.55181305  1
  Se  Se119  1  0.08415536  0.74971935  0.05307865  1
  Se  Se120  1  0.07120121  0.74220497  0.56377229  1
  Se  Se121  1  0.41891418  0.08291302  0.05667119  1
  Se  Se122  1  0.42222387  0.08755096  0.54853845  1
  Se  Se123  1  0.40846182  0.41031684  0.05930513  1
  Se  Se124  1  0.41905962  0.41176541  0.55583254  1
  Se  Se125  1  0.41970621  0.74700114  0.05020303  1
  Se  Se126  1  0.40273868  0.74266674  0.55800846  1
  Se  Se127  1  0.76191188  0.10145876  0.05030011  1
  Se  Se128  1  0.74486431  0.07474855  0.56340884  1
  Se  Se129  1  0.74856750  0.42141376  0.05348608  1
  Se  Se130  1  0.75203932  0.41538055  0.54868968  1
  Se  Se131  1  0.77076500  0.77066229  0.06177504  1
  Se  Se132  1  0.74666628  0.75121279  0.55106995  1
  Se  Se133  1  0.24033645  0.23536641  0.05234910  1
  Se  Se134  1  0.25569593  0.25286654  0.55811628  1
  Se  Se135  1  0.24688018  0.57892078  0.05542929  1
  Se  Se136  1  0.25348701  0.58243834  0.55327983  1
  Se  Se137  1  0.25039788  0.91458330  0.04947890  1
  Se  Se138  1  0.25883591  0.92748197  0.55352831  1
  Se  Se139  1  0.57998522  0.24965435  0.05365779  1
  Se  Se140  1  0.58831827  0.24992297  0.55187101  1
  Se  Se141  1  0.59473249  0.59223401  0.05851749  1
  Se  Se142  1  0.58458576  0.58274640  0.54576877  1
  Se  Se143  1  0.58117973  0.90708784  0.05603145  1
  Se  Se144  1  0.58556121  0.92301680  0.56038635  1
  Se  Se145  1  0.91687117  0.25326882  0.05010730  1
  Se  Se146  1  0.92859721  0.26234520  0.55873428  1
  Se  Se147  1  0.91420980  0.58496705  0.05864023  1
  Se  Se148  1  0.91332415  0.58229004  0.55236241  1
  Se  Se149  1  0.92251798  0.91964722  0.05237251  1
  Se  Se150  1  0.90973296  0.91480695  0.56045860  1
  Se  Se151  1  0.07502974  0.26019240  0.43406991  1
  Se  Se152  1  0.08205567  0.25357908  0.94759365  1
  Se  Se153  1  0.08383871  0.58580906  0.44557198  1
  Se  Se154  1  0.08208362  0.58099072  0.95074548  1
  Se  Se155  1  0.07208870  0.92340492  0.44407311  1
  Se  Se156  1  0.08796676  0.91040218  0.94769512  1
  Se  Se157  1  0.42066118  0.24833400  0.44302458  1
  Se  Se158  1  0.40668824  0.26654241  0.95178315  1
  Se  Se159  1  0.41821489  0.58959751  0.45024806  1
  Se  Se160  1  0.40937358  0.58574233  0.93789372  1
  Se  Se161  1  0.41387031  0.91702844  0.43599313  1
  Se  Se162  1  0.41970600  0.91251871  0.95340990  1
  Se  Se163  1  0.74340780  0.25622463  0.43388919  1
  Se  Se164  1  0.75421287  0.25599442  0.95296843  1
  Se  Se165  1  0.75326689  0.58146235  0.43871806  1
  Se  Se166  1  0.74590403  0.57951027  0.95198210  1
  Se  Se167  1  0.75393645  0.91436041  0.44857226  1
  Se  Se168  1  0.74883576  0.92985270  0.95644583  1
  Se  Se169  1  0.25614239  0.07721161  0.43003053  1
  Se  Se170  1  0.25121519  0.08053032  0.94486770  1
  Se  Se171  1  0.25195036  0.41587532  0.44650454  1
  Se  Se172  1  0.23762398  0.43313468  0.94953213  1
  Se  Se173  1  0.25751082  0.74150345  0.43993941  1
  Se  Se174  1  0.24865513  0.74741078  0.95171287  1
  Se  Se175  1  0.58464463  0.08485475  0.44629587  1
  Se  Se176  1  0.56677853  0.10333759  0.95708018  1
  Se  Se177  1  0.58113138  0.41979968  0.43942284  1
  Se  Se178  1  0.58630048  0.41126343  0.93878423  1
  Se  Se179  1  0.59161562  0.74713205  0.43440985  1
  Se  Se180  1  0.58686920  0.74956683  0.95266109  1
  Se  Se181  1  0.91786823  0.08256939  0.44613181  1
  Se  Se182  1  0.92049143  0.08189978  0.94189824  1
  Se  Se183  1  0.91299436  0.41992975  0.44773014  1
  Se  Se184  1  0.91544082  0.42219399  0.94864905  1
  Se  Se185  1  0.91463162  0.75184746  0.44280356  1
  Se  Se186  1  0.91351616  0.74918168  0.95062520  1
  Se  Se187  1  0.25051453  0.24949342  0.29581513  1
  Se  Se188  1  0.25874961  0.25145402  0.80794423  1
  Se  Se189  1  0.24952821  0.57588415  0.31074913  1
  Se  Se190  1  0.25183960  0.57603420  0.81327827  1
  Se  Se191  1  0.25399650  0.91881151  0.29197143  1
  Se  Se192  1  0.24755394  0.91002903  0.81213978  1
  Se  Se193  1  0.57972819  0.24986267  0.29907132  1
  Se  Se194  1  0.58759688  0.23658248  0.82245389  1
  Se  Se195  1  0.58622521  0.58167740  0.29859668  1
  Se  Se196  1  0.57104546  0.57235043  0.80570031  1
  Se  Se197  1  0.58746359  0.92289985  0.30156160  1
  Se  Se198  1  0.58761196  0.91690694  0.81533181  1
  Se  Se199  1  0.90448344  0.24001780  0.30067465  1
  Se  Se200  1  0.91103488  0.24732712  0.81210707  1
  Se  Se201  1  0.91771291  0.58693505  0.30085692  1
  Se  Se202  1  0.90498977  0.57845579  0.81004489  1
  Se  Se203  1  0.91341858  0.91372508  0.30782261  1
  Se  Se204  1  0.91588370  0.91811049  0.80400284  1
  Se  Se205  1  0.08902257  0.08570504  0.30349657  1
  Se  Se206  1  0.08645178  0.08412368  0.80219460  1
  Se  Se207  1  0.08387857  0.42419581  0.31230461  1
  Se  Se208  1  0.08938970  0.41500769  0.81442428  1
  Se  Se209  1  0.09046539  0.75435108  0.29676656  1
  Se  Se210  1  0.08201892  0.75310425  0.81821687  1
  Se  Se211  1  0.41665773  0.08079934  0.29907707  1
  Se  Se212  1  0.42861818  0.08531032  0.82001433  1
  Se  Se213  1  0.41322418  0.41607369  0.30304547  1
  Se  Se214  1  0.42656706  0.41915541  0.79789323  1
  Se  Se215  1  0.42715832  0.75529330  0.30817952  1
  Se  Se216  1  0.41855707  0.75212434  0.81143176  1
  Se  Se217  1  0.74722733  0.08043234  0.30047648  1
  Se  Se218  1  0.74380408  0.07999766  0.81241786  1
  Se  Se219  1  0.74885800  0.41425766  0.29896017  1
  Se  Se220  1  0.75700510  0.42459073  0.80397462  1
  Se  Se221  1  0.75093206  0.75359245  0.30051137  1
  Se  Se222  1  0.75509862  0.75952682  0.81507110  1
  Se  Se223  1  0.25634446  0.07735965  0.19341471  1
  Se  Se224  1  0.24507314  0.09159449  0.68645229  1
  Se  Se225  1  0.24617377  0.41115821  0.19817635  1
  Se  Se226  1  0.25718933  0.41127169  0.69955208  1
  Se  Se227  1  0.25407356  0.75333172  0.18100858  1
  Se  Se228  1  0.23207590  0.75908051  0.69519563  1
  Se  Se229  1  0.58557672  0.08195608  0.19300904  1
  Se  Se230  1  0.58307869  0.08257195  0.70140843  1
  Se  Se231  1  0.58550582  0.41243922  0.19517486  1
  Se  Se232  1  0.58377342  0.42047709  0.68702849  1
  Se  Se233  1  0.58741820  0.74709796  0.20134326  1
  Se  Se234  1  0.56910529  0.75557399  0.69498193  1
  Se  Se235  1  0.89999243  0.08316395  0.18077819  1
  Se  Se236  1  0.91743820  0.07849611  0.70443065  1
  Se  Se237  1  0.90623136  0.42133266  0.18739312  1
  Se  Se238  1  0.90979289  0.42663720  0.69245641  1
  Se  Se239  1  0.92004487  0.74807758  0.20062989  1
  Se  Se240  1  0.89821127  0.75789487  0.69701583  1
  Se  Se241  1  0.08406819  0.24021960  0.18663775  1
  Se  Se242  1  0.09479534  0.24173186  0.68891992  1
  Se  Se243  1  0.08222618  0.58607032  0.20068957  1
  Se  Se244  1  0.08988612  0.57252660  0.69868992  1
  Se  Se245  1  0.09042263  0.91153749  0.17885167  1
  Se  Se246  1  0.07453491  0.92190880  0.70331158  1
  Se  Se247  1  0.41290032  0.25107626  0.19494749  1
  Se  Se248  1  0.42255821  0.24953352  0.70111572  1
  Se  Se249  1  0.42712651  0.57551179  0.18650190  1
  Se  Se250  1  0.42594423  0.57457891  0.68722577  1
  Se  Se251  1  0.41876349  0.91859264  0.19502740  1
  Se  Se252  1  0.42062942  0.91363175  0.69670223  1
  Se  Se253  1  0.73969893  0.25506505  0.19251054  1
  Se  Se254  1  0.75837409  0.23965641  0.69553996  1
  Se  Se255  1  0.74684297  0.58778412  0.19728692  1
  Se  Se256  1  0.75192493  0.58115718  0.69030499  1
  Se  Se257  1  0.75036815  0.92223254  0.19059819  1
  Se  Se258  1  0.72915554  0.92349184  0.69949792  1
