# generated using pymatgen
data_In86Cu29Se144
_symmetry_space_group_name_H-M   'P 1'
_cell_length_a   17.56529290
_cell_length_b   17.56881791
_cell_length_c   23.41311620
_cell_angle_alpha   90.04178201
_cell_angle_beta   89.98536415
_cell_angle_gamma   89.97514640
_symmetry_Int_Tables_number   1
_chemical_formula_structural   In86Cu29Se144
_chemical_formula_sum   'In86 Cu29 Se144'
_cell_volume   7225.31836033
_cell_formula_units_Z   1
loop_
 _symmetry_equiv_pos_site_id
 _symmetry_equiv_pos_as_xyz
  1  'x, y, z'
loop_
 _atom_site_type_symbol
 _atom_site_label
 _atom_site_symmetry_multiplicity
 _atom_site_fract_x
 _atom_site_fract_y
 _atom_site_fract_z
 _atom_site_occupancy
  In  In0  1  -0.00101725  0.16751945  0.10732519  1
  In  In1  1  0.00228058  0.18397068  0.64726074  1
  In  In2  1  0.00530831  0.48483553  0.12100548  1
  In  In3  1  0.00279046  0.50124959  0.62595627  1
  In  In4  1  -0.00034005  0.84698973  0.12154765  1
  In  In5  1  0.00671624  0.82458071  0.63315388  1
  In  In6  1  0.34446493  0.17916149  0.11325865  1
  In  In7  1  0.33192970  0.16629838  0.63264598  1
  In  In8  1  0.33185053  0.49497002  0.12661030  1
  In  In9  1  0.32134725  0.49114258  0.61306129  1
  In  In10  1  0.32108751  0.82571210  0.12918256  1
  In  In11  1  0.33967300  0.84466558  0.61554664  1
  In  In12  1  0.66212024  0.16064559  0.12169928  1
  In  In13  1  0.67622215  0.17855921  0.62345529  1
  In  In14  1  0.65915611  0.51148406  0.12455788  1
  In  In15  1  0.65630911  0.48861228  0.61834132  1
  In  In16  1  0.67924997  0.83427324  0.12442428  1
  In  In17  1  0.65205283  0.84097735  0.62199490  1
  In  In18  1  0.15947138  -0.01328536  0.38429469  1
  In  In19  1  0.17451308  0.02626534  0.84729636  1
  In  In20  1  0.18009175  0.32736530  0.37626399  1
  In  In21  1  0.16926602  0.32820760  0.86499674  1
  In  In22  1  0.20183985  0.64395313  0.40719131  1
  In  In23  1  0.15410452  0.66416715  0.87432761  1
  In  In24  1  0.50789658  -0.00687839  0.37943944  1
  In  In25  1  0.51076045  0.01243501  0.86925049  1
  In  In26  1  0.49211240  0.34260358  0.38547003  1
  In  In27  1  0.49922004  0.33117953  0.87335402  1
  In  In28  1  0.48917622  0.66571344  0.38743463  1
  In  In29  1  0.48370884  0.65916937  0.87378260  1
  In  In30  1  0.83935291  0.01201274  0.37851741  1
  In  In31  1  0.83710114  -0.00006609  0.87787000  1
  In  In32  1  0.83275264  0.33161237  0.38569575  1
  In  In33  1  0.82749388  0.31866076  0.85517919  1
  In  In34  1  0.82584609  0.66082381  0.37881036  1
  In  In35  1  0.84999254  0.66609530  0.87434002  1
  In  In36  1  -0.00860310  0.15311833  0.38615734  1
  In  In37  1  -0.00224463  0.17118313  0.86696687  1
  In  In38  1  0.00014222  0.50219419  0.38628580  1
  In  In39  1  0.01451744  0.49795925  0.86365974  1
  In  In40  1  0.01926337  0.84193827  0.38606859  1
  In  In41  1  -0.00085033  0.83133728  0.87082720  1
  In  In42  1  0.33193258  0.18490568  0.37365398  1
  In  In43  1  0.33525439  0.17074504  0.86795175  1
  In  In44  1  0.33545896  0.49345474  0.37890454  1
  In  In45  1  0.33786405  0.49206790  0.87562608  1
  In  In46  1  0.34809209  0.81477407  0.39691338  1
  In  In47  1  0.31924679  0.83312137  0.86828147  1
  In  In48  1  0.67495604  0.15682332  0.38117550  1
  In  In49  1  0.66198387  0.17158143  0.87735078  1
  In  In50  1  0.66961691  0.49486477  0.38562515  1
  In  In51  1  0.66638919  0.48442919  0.87365274  1
  In  In52  1  0.65186811  0.83154916  0.37418199  1
  In  In53  1  0.67223300  0.84939160  0.87195792  1
  In  In54  1  0.15517049  0.00022936  0.12033485  1
  In  In55  1  0.17487571  0.00657540  0.63686717  1
  In  In56  1  0.17606503  0.34325302  0.11339696  1
  In  In57  1  0.15216077  0.36081626  0.65277597  1
  In  In58  1  0.18276228  0.66346827  0.13144395  1
  In  In59  1  0.16277955  0.65538749  0.61344217  1
  In  In60  1  0.49926789  0.01893700  0.12387595  1
  In  In61  1  0.48295626  -0.00331638  0.61770568  1
  In  In62  1  0.49362427  0.32738831  0.11841399  1
  In  In63  1  0.50120055  0.33116759  0.62606603  1
  In  In64  1  0.49689050  0.65016289  0.12526089  1
  In  In65  1  0.48654115  0.66839845  0.60826131  1
  In  In66  1  0.83395334  -0.00315658  0.11643225  1
  In  In67  1  0.84068821  0.02276411  0.63204503  1
  In  In68  1  0.84566999  0.32779452  0.12106209  1
  In  In69  1  0.82995355  0.32920875  0.63283389  1
  In  In70  1  0.81761648  0.67002349  0.12240893  1
  In  In71  1  0.85190877  0.66548896  0.62562522  1
  In  In72  1  0.15852332  0.83364273  -0.00312199  1
  In  In73  1  0.00437836  0.33249588  0.24486620  1
  In  In74  1  0.83172194  0.83397449  0.50325052  1
  In  In75  1  0.00141067  0.00237301  0.25292013  1
  In  In76  1  0.00031868  0.67000490  0.25886238  1
  In  In77  1  0.66003810  0.66600259  0.24944487  1
  In  In78  1  0.66480025  0.00401787  0.74754609  1
  In  In79  1  0.50104132  0.83544619  -0.00551542  1
  In  In80  1  0.32969511  0.66392893  0.74151762  1
  In  In81  1  0.66171474  0.66499443  0.73604375  1
  In  In82  1  0.33473187  0.00171019  0.24832062  1
  In  In83  1  0.16570029  0.17286420  0.51379764  1
  In  In84  1  0.66373789  0.33453398  0.25873727  1
  In  In85  1  0.83364999  0.49440112  -0.00128881  1
  Cu  Cu86  1  0.50088553  0.17070413  0.74832331  1
  Cu  Cu87  1  0.17796178  0.82357455  0.26043433  1
  Cu  Cu88  1  0.67285497  0.00569732  -0.00171591  1
  Cu  Cu89  1  0.32725724  0.01067538  0.50407679  1
  Cu  Cu90  1  0.50070553  0.49101043  0.74746033  1
  Cu  Cu91  1  0.66719252  0.66101781  0.50095617  1
  Cu  Cu92  1  0.83110416  0.82726649  0.74736524  1
  Cu  Cu93  1  0.83181081  0.16632255  0.25262384  1
  Cu  Cu94  1  0.66414641  0.32879680  -0.00466392  1
  Cu  Cu95  1  0.17183779  0.50183907  0.25454684  1
  Cu  Cu96  1  0.33291777  0.33364350  0.50563848  1
  Cu  Cu97  1  0.00429712  0.00591671  -0.01174588  1
  Cu  Cu98  1  -0.00024452  0.66537743  -0.00432952  1
  Cu  Cu99  1  0.17129497  0.16807392  0.24684312  1
  Cu  Cu100  1  0.16645732  0.83300605  0.74729329  1
  Cu  Cu101  1  0.83979224  0.49739672  0.74927837  1
  Cu  Cu102  1  0.49518570  0.83229555  0.25735340  1
  Cu  Cu103  1  0.00225482  0.66208686  0.50553161  1
  Cu  Cu104  1  0.66155189  0.00364297  0.50468511  1
  Cu  Cu105  1  0.66431231  0.66850591  0.00008538  1
  Cu  Cu106  1  0.83238196  0.84153551  0.24506099  1
  Cu  Cu107  1  0.00138174  0.33159405  -0.01386823  1
  Cu  Cu108  1  0.49154262  0.49888259  0.25428328  1
  Cu  Cu109  1  0.49989768  0.17186981  0.24651372  1
  Cu  Cu110  1  0.32903710  0.00746084  -0.00981643  1
  Cu  Cu111  1  0.00098226  0.33281308  0.51364057  1
  Cu  Cu112  1  0.33022906  0.33081226  -0.00709427  1
  Cu  Cu113  1  0.66973484  0.32449811  0.50345741  1
  Cu  Cu114  1  0.33255859  0.65234765  0.00309753  1
  Se  Se115  1  0.08908472  0.08418787  0.04496987  1
  Se  Se116  1  0.07550769  0.08680375  0.57324754  1
  Se  Se117  1  0.08174601  0.41400424  0.04424873  1
  Se  Se118  1  0.09117336  0.41532157  0.56058625  1
  Se  Se119  1  0.07815623  0.73980923  0.06422030  1
  Se  Se120  1  0.08180053  0.75290623  0.55379398  1
  Se  Se121  1  0.41672048  0.08374407  0.04673010  1
  Se  Se122  1  0.41126692  0.09616801  0.55411049  1
  Se  Se123  1  0.41015746  0.41332045  0.05327622  1
  Se  Se124  1  0.42261869  0.41635835  0.55460120  1
  Se  Se125  1  0.40991432  0.74492615  0.05692467  1
  Se  Se126  1  0.40955870  0.75751986  0.54271624  1
  Se  Se127  1  0.75527448  0.08978266  0.05290383  1
  Se  Se128  1  0.74987514  0.08275020  0.55670899  1
  Se  Se129  1  0.73947984  0.40859168  0.06200742  1
  Se  Se130  1  0.75206243  0.40946346  0.55716320  1
  Se  Se131  1  0.75034291  0.75433519  0.04729191  1
  Se  Se132  1  0.74245601  0.74182696  0.56439032  1
  Se  Se133  1  0.24660937  0.24701514  0.04728415  1
  Se  Se134  1  0.24876773  0.26793530  0.57216502  1
  Se  Se135  1  0.24434340  0.57559351  0.05652358  1
  Se  Se136  1  0.26828741  0.59847623  0.54858875  1
  Se  Se137  1  0.25790079  0.92347185  0.05468903  1
  Se  Se138  1  0.24360678  0.92840500  0.55702404  1
  Se  Se139  1  0.58300256  0.24716746  0.05364977  1
  Se  Se140  1  0.58067101  0.24548865  0.55489798  1
  Se  Se141  1  0.57977954  0.58255225  0.04840384  1
  Se  Se142  1  0.57997985  0.58028391  0.55213513  1
  Se  Se143  1  0.58920586  0.92469961  0.05860002  1
  Se  Se144  1  0.57342122  0.91784327  0.54929273  1
  Se  Se145  1  0.91440288  0.25273943  0.04199104  1
  Se  Se146  1  0.92102490  0.24765594  0.56629806  1
  Se  Se147  1  0.92076417  0.58871696  0.06163093  1
  Se  Se148  1  0.91560506  0.57640523  0.55220324  1
  Se  Se149  1  0.92382482  0.92187275  0.04636580  1
  Se  Se150  1  0.91551530  0.91701251  0.57040556  1
  Se  Se151  1  0.07526805  0.25665159  0.44332415  1
  Se  Se152  1  0.08682991  0.24643410  0.93693866  1
  Se  Se153  1  0.08777381  0.57562156  0.45626383  1
  Se  Se154  1  0.08054730  0.57816207  0.94571188  1
  Se  Se155  1  0.06171935  0.94244681  0.45867810  1
  Se  Se156  1  0.08956824  0.92847230  0.92910206  1
  Se  Se157  1  0.41458048  0.24953376  0.45112517  1
  Se  Se158  1  0.41668815  0.24707411  0.94210288  1
  Se  Se159  1  0.41669423  0.57222315  0.45090525  1
  Se  Se160  1  0.41870098  0.57415701  0.94860231  1
  Se  Se161  1  0.41130387  0.92864598  0.44846585  1
  Se  Se162  1  0.40874360  0.92245223  0.93375099  1
  Se  Se163  1  0.75529162  0.24135338  0.45028208  1
  Se  Se164  1  0.75353901  0.25511813  0.94006524  1
  Se  Se165  1  0.75526940  0.57802859  0.45248659  1
  Se  Se166  1  0.74536250  0.58834588  0.93764285  1
  Se  Se167  1  0.74013432  0.92128678  0.44112494  1
  Se  Se168  1  0.75321113  0.91712516  0.94809443  1
  Se  Se169  1  0.24878712  0.08807325  0.43968754  1
  Se  Se170  1  0.24552883  0.08619490  0.93406739  1
  Se  Se171  1  0.24775441  0.41341319  0.44920806  1
  Se  Se172  1  0.24581575  0.41220458  0.93887382  1
  Se  Se173  1  0.21850290  0.78169840  0.44199737  1
  Se  Se174  1  0.25551305  0.73827915  0.94415304  1
  Se  Se175  1  0.57991792  0.08584128  0.44774313  1
  Se  Se176  1  0.58363844  0.08512133  0.94764277  1
  Se  Se177  1  0.58668486  0.41271360  0.45240355  1
  Se  Se178  1  0.57999327  0.41507175  0.94611342  1
  Se  Se179  1  0.58501327  0.74677365  0.44815633  1
  Se  Se180  1  0.58898023  0.74423185  0.93279230  1
  Se  Se181  1  0.91544515  0.07535432  0.45845920  1
  Se  Se182  1  0.91617069  0.09169834  0.94188555  1
  Se  Se183  1  0.92045314  0.41242765  0.45153426  1
  Se  Se184  1  0.91753792  0.41337784  0.92980856  1
  Se  Se185  1  0.92449470  0.74302379  0.44164230  1
  Se  Se186  1  0.91902055  0.75410136  0.94701488  1
  Se  Se187  1  0.25307436  0.25576870  0.29591684  1
  Se  Se188  1  0.23722235  0.23037014  0.79504034  1
  Se  Se189  1  0.25109865  0.58303101  0.31315313  1
  Se  Se190  1  0.24694902  0.58073061  0.81065856  1
  Se  Se191  1  0.25423410  0.91315682  0.31554095  1
  Se  Se192  1  0.25252747  0.91944686  0.79512113  1
  Se  Se193  1  0.57566307  0.24300514  0.31657255  1
  Se  Se194  1  0.58516030  0.25128293  0.80355072  1
  Se  Se195  1  0.57741644  0.57477826  0.31377212  1
  Se  Se196  1  0.57791506  0.57736779  0.80606816  1
  Se  Se197  1  0.58316893  0.91859856  0.30074612  1
  Se  Se198  1  0.57239929  0.90628095  0.80053532  1
  Se  Se199  1  0.91627990  0.24353030  0.31078420  1
  Se  Se200  1  0.93748592  0.26688771  0.79467501  1
  Se  Se201  1  0.90944064  0.57307007  0.30987500  1
  Se  Se202  1  0.92128559  0.58213659  0.80224579  1
  Se  Se203  1  0.91546335  0.90705396  0.31263493  1
  Se  Se204  1  0.90731678  0.91028195  0.80623068  1
  Se  Se205  1  0.09470489  0.09274863  0.31209251  1
  Se  Se206  1  0.04660532  0.06119623  0.79826649  1
  Se  Se207  1  0.08834911  0.42129881  0.31193229  1
  Se  Se208  1  0.08995700  0.41243022  0.79488599  1
  Se  Se209  1  0.09590489  0.74730896  0.32042738  1
  Se  Se210  1  0.08416816  0.75007589  0.80213066  1
  Se  Se211  1  0.42184826  0.09154623  0.31048054  1
  Se  Se212  1  0.42031105  0.08406990  0.80141138  1
  Se  Se213  1  0.41327649  0.40930031  0.30598635  1
  Se  Se214  1  0.41543739  0.41164440  0.80241401  1
  Se  Se215  1  0.41635909  0.74771111  0.31160559  1
  Se  Se216  1  0.41908527  0.75611007  0.80410755  1
  Se  Se217  1  0.75207396  0.07939807  0.30455799  1
  Se  Se218  1  0.75465144  0.08989243  0.80858951  1
  Se  Se219  1  0.76133373  0.42306136  0.31104056  1
  Se  Se220  1  0.74792497  0.41779545  0.79727013  1
  Se  Se221  1  0.75653580  0.75840663  0.30644608  1
  Se  Se222  1  0.74934464  0.74760593  0.80700846  1
  Se  Se223  1  0.24632496  0.08729059  0.18340661  1
  Se  Se224  1  0.24457175  0.09828588  0.70764706  1
  Se  Se225  1  0.24518462  0.41436995  0.19572974  1
  Se  Se226  1  0.26025962  0.43396351  0.70274707  1
  Se  Se227  1  0.25946434  0.74072690  0.20642318  1
  Se  Se228  1  0.24422458  0.75729596  0.68196834  1
  Se  Se229  1  0.58531805  0.08547107  0.19889129  1
  Se  Se230  1  0.57498438  0.08842686  0.68440977  1
  Se  Se231  1  0.57576900  0.42263606  0.19340566  1
  Se  Se232  1  0.58915329  0.40968776  0.69711065  1
  Se  Se233  1  0.57231632  0.75793878  0.18711117  1
  Se  Se234  1  0.56338125  0.75544446  0.68683722  1
  Se  Se235  1  0.91619915  0.09310660  0.18917371  1
  Se  Se236  1  0.92634704  0.08416282  0.70928339  1
  Se  Se237  1  0.90629293  0.42602334  0.19431492  1
  Se  Se238  1  0.92195567  0.41428924  0.69459689  1
  Se  Se239  1  0.91233169  0.75687832  0.18869123  1
  Se  Se240  1  0.92163588  0.74333993  0.70275865  1
  Se  Se241  1  0.08970481  0.24155732  0.18272841  1
  Se  Se242  1  0.12074844  0.23301390  0.70387158  1
  Se  Se243  1  0.08517704  0.57539635  0.19396525  1
  Se  Se244  1  0.08555531  0.58798737  0.69157993  1
  Se  Se245  1  0.09735989  0.90399820  0.19958551  1
  Se  Se246  1  0.08311130  0.91919856  0.69717772  1
  Se  Se247  1  0.41438490  0.25244186  0.19432535  1
  Se  Se248  1  0.41549020  0.25507255  0.69744204  1
  Se  Se249  1  0.41081828  0.58195118  0.19818228  1
  Se  Se250  1  0.42622973  0.57485832  0.68624234  1
  Se  Se251  1  0.42436528  0.90966497  0.18635198  1
  Se  Se252  1  0.40710807  0.92429081  0.69398302  1
  Se  Se253  1  0.75482299  0.24900374  0.19249988  1
  Se  Se254  1  0.75034099  0.24567432  0.70293412  1
  Se  Se255  1  0.75793774  0.57363483  0.19678807  1
  Se  Se256  1  0.75834156  0.57286249  0.68535309  1
  Se  Se257  1  0.75102389  0.92601068  0.19292240  1
  Se  Se258  1  0.75551318  0.90967816  0.68716355  1
