# generated using pymatgen
data_In86Cu29Se144
_symmetry_space_group_name_H-M   'P 1'
_cell_length_a   17.56716044
_cell_length_b   17.56655157
_cell_length_c   23.42625381
_cell_angle_alpha   90.00125595
_cell_angle_beta   90.00969262
_cell_angle_gamma   90.00256552
_symmetry_Int_Tables_number   1
_chemical_formula_structural   In86Cu29Se144
_chemical_formula_sum   'In86 Cu29 Se144'
_cell_volume   7229.21132484
_cell_formula_units_Z   1
loop_
 _symmetry_equiv_pos_site_id
 _symmetry_equiv_pos_as_xyz
  1  'x, y, z'
loop_
 _atom_site_type_symbol
 _atom_site_label
 _atom_site_symmetry_multiplicity
 _atom_site_fract_x
 _atom_site_fract_y
 _atom_site_fract_z
 _atom_site_occupancy
  In  In0  1  0.00002140  0.17388921  0.12239933  1
  In  In1  1  -0.02152054  0.14144542  0.59724693  1
  In  In2  1  0.00023005  0.49698579  0.12686744  1
  In  In3  1  0.00957699  0.51119993  0.63027997  1
  In  In4  1  -0.01884039  0.83073932  0.12447675  1
  In  In5  1  -0.00494045  0.83628422  0.62305148  1
  In  In6  1  0.32478523  0.17498842  0.14451347  1
  In  In7  1  0.32728492  0.18368659  0.62116050  1
  In  In8  1  0.32243910  0.50436929  0.12689303  1
  In  In9  1  0.33766864  0.48175814  0.62142604  1
  In  In10  1  0.33357521  0.82723588  0.13680580  1
  In  In11  1  0.33341362  0.83517286  0.61216414  1
  In  In12  1  0.67294370  0.15806435  0.12127555  1
  In  In13  1  0.67964798  0.15006037  0.63222683  1
  In  In14  1  0.68142461  0.50152771  0.12268026  1
  In  In15  1  0.65477636  0.50956893  0.63265146  1
  In  In16  1  0.67248223  0.82458585  0.12771692  1
  In  In17  1  0.66774978  0.83505637  0.61921315  1
  In  In18  1  0.16840664  -0.01333729  0.38829850  1
  In  In19  1  0.15909927  0.01021667  0.87056077  1
  In  In20  1  0.16732777  0.33102176  0.36904585  1
  In  In21  1  0.17831758  0.33661107  0.87290498  1
  In  In22  1  0.17070066  0.66991348  0.36961401  1
  In  In23  1  0.15501880  0.67212738  0.88019841  1
  In  In24  1  0.48492866  0.00419846  0.37779767  1
  In  In25  1  0.50750442  -0.01411765  0.87192679  1
  In  In26  1  0.50078823  0.33976686  0.37535302  1
  In  In27  1  0.49556277  0.33105479  0.86657422  1
  In  In28  1  0.49893457  0.66565746  0.37357981  1
  In  In29  1  0.50854274  0.65638973  0.87450323  1
  In  In30  1  0.84189063  -0.00410369  0.40141258  1
  In  In31  1  0.83867170  0.00050825  0.87408221  1
  In  In32  1  0.83700280  0.32170543  0.37513938  1
  In  In33  1  0.82820508  0.34158401  0.88015745  1
  In  In34  1  0.84251684  0.67416678  0.36646293  1
  In  In35  1  0.83606939  0.67099278  0.87284598  1
  In  In36  1  -0.00770855  0.17171528  0.37906242  1
  In  In37  1  -0.00588805  0.15145993  0.87037151  1
  In  In38  1  0.00796392  0.50408842  0.36240529  1
  In  In39  1  -0.00927129  0.51148861  0.88428146  1
  In  In40  1  0.00620685  0.83221062  0.38657188  1
  In  In41  1  -0.00747698  0.82854930  0.86947646  1
  In  In42  1  0.33208905  0.15411829  0.36510798  1
  In  In43  1  0.31927673  0.17746462  0.87235796  1
  In  In44  1  0.33778019  0.50304747  0.36815565  1
  In  In45  1  0.33575757  0.48736253  0.88632160  1
  In  In46  1  0.33076822  0.83027618  0.37696829  1
  In  In47  1  0.32538779  0.83548425  0.87555318  1
  In  In48  1  0.67257448  0.16318755  0.38490520  1
  In  In49  1  0.67684886  0.17472745  0.86468715  1
  In  In50  1  0.64955282  0.50159347  0.37742422  1
  In  In51  1  0.67399835  0.51025319  0.86657099  1
  In  In52  1  0.67946884  0.82683209  0.38722440  1
  In  In53  1  0.68091672  0.84550709  0.86169591  1
  In  In54  1  0.16388800  0.00863481  0.12790562  1
  In  In55  1  0.14765488  -0.01126987  0.60612665  1
  In  In56  1  0.16252932  0.33430975  0.12912608  1
  In  In57  1  0.17864062  0.32866445  0.62583251  1
  In  In58  1  0.17703760  0.65037627  0.13224079  1
  In  In59  1  0.15416089  0.67029979  0.62668864  1
  In  In60  1  0.49996634  -0.00750371  0.13542391  1
  In  In61  1  0.51643380  -0.00274436  0.61931683  1
  In  In62  1  0.48307642  0.33028709  0.13146945  1
  In  In63  1  0.49033630  0.33997825  0.62934924  1
  In  In64  1  0.49822180  0.66655183  0.13431194  1
  In  In65  1  0.50921340  0.67595095  0.61458045  1
  In  In66  1  0.83990887  -0.00150526  0.10708620  1
  In  In67  1  0.83399468  -0.00555047  0.61784075  1
  In  In68  1  0.83770798  0.34355317  0.11535232  1
  In  In69  1  0.83264982  0.31690632  0.62754798  1
  In  In70  1  0.83518349  0.66673567  0.12812906  1
  In  In71  1  0.81988098  0.68060550  0.63401467  1
  In  In72  1  0.33754874  0.66544711  0.75327145  1
  In  In73  1  0.15838400  0.16890938  0.00702267  1
  In  In74  1  0.17138409  0.50462447  0.49742029  1
  In  In75  1  0.83036085  0.49934545  0.50449725  1
  In  In76  1  0.66472882  -0.00056655  0.25914388  1
  In  In77  1  0.16024374  0.82888991  -0.00356079  1
  In  In78  1  0.00163053  -0.00418275  0.25394858  1
  In  In79  1  0.50764429  0.83021444  0.01006647  1
  In  In80  1  0.50389741  0.50185662  0.00746319  1
  In  In81  1  0.49976518  0.16783771  0.00168201  1
  In  In82  1  0.00319581  0.33407899  0.74562039  1
  In  In83  1  0.34179205  0.01387834  0.74222648  1
  In  In84  1  0.66827223  0.33580941  0.25532405  1
  In  In85  1  0.49921636  0.16657855  0.50221291  1
  Cu  Cu86  1  0.68044460  0.67522078  -0.00452929  1
  Cu  Cu87  1  0.66539875  0.33532961  -0.00466149  1
  Cu  Cu88  1  0.00000350  0.66002145  0.00478780  1
  Cu  Cu89  1  0.83260919  0.50100699  0.75662525  1
  Cu  Cu90  1  0.49701574  0.50063755  0.25068929  1
  Cu  Cu91  1  0.16103235  0.83905945  0.74563980  1
  Cu  Cu92  1  0.67844905  0.00198313  -0.00819748  1
  Cu  Cu93  1  0.16407668  0.82821220  0.25827014  1
  Cu  Cu94  1  0.00462403  0.33514943  0.49588410  1
  Cu  Cu95  1  0.66636644  0.66442580  0.50257245  1
  Cu  Cu96  1  0.16019309  0.16779163  0.74304863  1
  Cu  Cu97  1  0.66334798  0.32873508  0.50294311  1
  Cu  Cu98  1  0.00056229  0.33254151  0.00035628  1
  Cu  Cu99  1  0.16655305  0.49331239  0.24781862  1
  Cu  Cu100  1  0.16773732  0.50498522  0.75016956  1
  Cu  Cu101  1  -0.00579907  0.67773779  0.50187481  1
  Cu  Cu102  1  0.33449446  0.00176307  0.00906432  1
  Cu  Cu103  1  0.33177765  0.66525523  0.49238742  1
  Cu  Cu104  1  0.50247107  0.16791754  0.74417282  1
  Cu  Cu105  1  0.16769997  0.16432395  0.25161108  1
  Cu  Cu106  1  0.83533261  0.15816448  0.74622576  1
  Cu  Cu107  1  0.49487192  0.82968044  0.25617025  1
  Cu  Cu108  1  0.83645673  0.83384715  0.74571058  1
  Cu  Cu109  1  0.82799777  0.83401376  0.25284422  1
  Cu  Cu110  1  0.83610782  0.16658050  0.25222396  1
  Cu  Cu111  1  0.50006551  0.50002503  0.74962088  1
  Cu  Cu112  1  0.83437015  0.50201197  0.24458828  1
  Cu  Cu113  1  0.33100419  -0.00096978  0.49616350  1
  Cu  Cu114  1  0.51241432  0.82891121  0.74319443  1
  Se  Se115  1  0.06693616  0.06876099  0.05499669  1
  Se  Se116  1  0.11238630  0.11547861  0.55730390  1
  Se  Se117  1  0.08280804  0.41337359  0.05661162  1
  Se  Se118  1  0.07815415  0.41592204  0.55915624  1
  Se  Se119  1  0.07955501  0.74169968  0.06525162  1
  Se  Se120  1  0.08462357  0.75480840  0.55395459  1
  Se  Se121  1  0.41232961  0.08173804  0.06857071  1
  Se  Se122  1  0.40712553  0.07545826  0.56292920  1
  Se  Se123  1  0.40707348  0.41022567  0.05706305  1
  Se  Se124  1  0.41989851  0.41098610  0.54891032  1
  Se  Se125  1  0.40863256  0.74170283  0.06022290  1
  Se  Se126  1  0.41559487  0.74773104  0.54779146  1
  Se  Se127  1  0.75560741  0.09021164  0.04627120  1
  Se  Se128  1  0.74898663  0.08111411  0.55216086  1
  Se  Se129  1  0.75000153  0.42092130  0.04627925  1
  Se  Se130  1  0.74139150  0.40985109  0.56540657  1
  Se  Se131  1  0.75918227  0.75485128  0.05551320  1
  Se  Se132  1  0.75288795  0.74957031  0.55087737  1
  Se  Se133  1  0.25822520  0.25217871  0.06095517  1
  Se  Se134  1  0.25232901  0.26004393  0.54676039  1
  Se  Se135  1  0.24754924  0.58149900  0.05164115  1
  Se  Se136  1  0.25798383  0.59215657  0.56378087  1
  Se  Se137  1  0.25184318  0.91704792  0.06240400  1
  Se  Se138  1  0.24518644  0.91265466  0.54524698  1
  Se  Se139  1  0.58896241  0.26160108  0.06189052  1
  Se  Se140  1  0.58884530  0.24910842  0.56820390  1
  Se  Se141  1  0.59675913  0.60039367  0.05856585  1
  Se  Se142  1  0.58186748  0.57707921  0.55057778  1
  Se  Se143  1  0.59911319  0.93083698  0.06052753  1
  Se  Se144  1  0.56840917  0.89752476  0.55074182  1
  Se  Se145  1  0.91512218  0.24892342  0.05152658  1
  Se  Se146  1  0.91392550  0.25731141  0.54744136  1
  Se  Se147  1  0.91408134  0.57995573  0.05920064  1
  Se  Se148  1  0.91984390  0.59269349  0.56272568  1
  Se  Se149  1  0.91743845  0.90722874  0.04499519  1
  Se  Se150  1  0.92850643  0.92387260  0.54913759  1
  Se  Se151  1  0.08598124  0.25323680  0.44133477  1
  Se  Se152  1  0.07641110  0.25357762  0.93504187  1
  Se  Se153  1  0.07211866  0.59226906  0.44287754  1
  Se  Se154  1  0.08722729  0.58124583  0.95111283  1
  Se  Se155  1  0.06242250  0.93402402  0.45433275  1
  Se  Se156  1  0.07619705  0.92417381  0.93814563  1
  Se  Se157  1  0.41187390  0.24819174  0.43627419  1
  Se  Se158  1  0.40748130  0.25740433  0.94308972  1
  Se  Se159  1  0.41625443  0.58040334  0.44272525  1
  Se  Se160  1  0.41379655  0.59262686  0.94601547  1
  Se  Se161  1  0.41483101  0.91265648  0.44675764  1
  Se  Se162  1  0.41159974  0.92078879  0.94764373  1
  Se  Se163  1  0.75225276  0.25245958  0.44991485  1
  Se  Se164  1  0.74807782  0.24901834  0.94434508  1
  Se  Se165  1  0.74692391  0.58745408  0.43858612  1
  Se  Se166  1  0.75405612  0.58376579  0.94169562  1
  Se  Se167  1  0.73998620  0.92339014  0.45662970  1
  Se  Se168  1  0.75639199  0.91108804  0.94232052  1
  Se  Se169  1  0.25170567  0.08585265  0.44317348  1
  Se  Se170  1  0.25517815  0.07749868  0.94526799  1
  Se  Se171  1  0.25714141  0.41276327  0.43899842  1
  Se  Se172  1  0.24359146  0.41461155  0.95125399  1
  Se  Se173  1  0.24281928  0.74931641  0.44594465  1
  Se  Se174  1  0.26202314  0.73956822  0.94592239  1
  Se  Se175  1  0.58793115  0.07040791  0.44641985  1
  Se  Se176  1  0.58841874  0.07849438  0.93794478  1
  Se  Se177  1  0.58189809  0.41343476  0.45032562  1
  Se  Se178  1  0.58506105  0.41568701  0.93652027  1
  Se  Se179  1  0.58282902  0.74439463  0.44521522  1
  Se  Se180  1  0.59315487  0.75137512  0.93783660  1
  Se  Se181  1  0.92053748  0.09455035  0.45599741  1
  Se  Se182  1  0.91204093  0.08733122  0.94587224  1
  Se  Se183  1  0.92471223  0.41974920  0.43839236  1
  Se  Se184  1  0.91580860  0.41759332  0.94876376  1
  Se  Se185  1  0.90675468  0.75375223  0.44645024  1
  Se  Se186  1  0.92388806  0.74446701  0.94521250  1
  Se  Se187  1  0.25322809  0.24907303  0.30150708  1
  Se  Se188  1  0.24424027  0.25165211  0.79540439  1
  Se  Se189  1  0.24637006  0.58031158  0.30246329  1
  Se  Se190  1  0.24693804  0.58019069  0.81541823  1
  Se  Se191  1  0.24504653  0.91542633  0.30969269  1
  Se  Se192  1  0.24735277  0.91949939  0.80217520  1
  Se  Se193  1  0.58400183  0.23996228  0.31361615  1
  Se  Se194  1  0.58346990  0.25195089  0.80057364  1
  Se  Se195  1  0.58244206  0.58434584  0.30144416  1
  Se  Se196  1  0.58567122  0.58725315  0.79703963  1
  Se  Se197  1  0.57715863  0.90665321  0.31736864  1
  Se  Se198  1  0.58887373  0.92075190  0.79472553  1
  Se  Se199  1  0.92158142  0.25210491  0.30071574  1
  Se  Se200  1  0.91021839  0.24732291  0.80621182  1
  Se  Se201  1  0.91868132  0.58536051  0.29864318  1
  Se  Se202  1  0.91999105  0.58505759  0.80456952  1
  Se  Se203  1  0.90655259  0.91377631  0.31569581  1
  Se  Se204  1  0.91785736  0.91823556  0.80108630  1
  Se  Se205  1  0.08895612  0.08550895  0.31459971  1
  Se  Se206  1  0.07897847  0.08205238  0.79532877  1
  Se  Se207  1  0.08159234  0.40927970  0.29882387  1
  Se  Se208  1  0.08481802  0.42569365  0.81069746  1
  Se  Se209  1  0.07408899  0.75029210  0.30922672  1
  Se  Se210  1  0.08670805  0.75258579  0.80328553  1
  Se  Se211  1  0.42352824  0.08074270  0.29742093  1
  Se  Se212  1  0.42606268  0.09455933  0.81548330  1
  Se  Se213  1  0.41719992  0.41245025  0.30157229  1
  Se  Se214  1  0.41242463  0.42264746  0.80461002  1
  Se  Se215  1  0.40939308  0.74508042  0.30627977  1
  Se  Se216  1  0.42889125  0.76174173  0.81082549  1
  Se  Se217  1  0.76560933  0.08366888  0.31586148  1
  Se  Se218  1  0.75124125  0.07759826  0.80262879  1
  Se  Se219  1  0.75900858  0.42763830  0.31435629  1
  Se  Se220  1  0.74826409  0.41257332  0.80322801  1
  Se  Se221  1  0.74379478  0.75037296  0.30483285  1
  Se  Se222  1  0.75323527  0.74771173  0.79921505  1
  Se  Se223  1  0.24875092  0.07400643  0.20272434  1
  Se  Se224  1  0.24077550  0.08655674  0.68244697  1
  Se  Se225  1  0.25329530  0.41088926  0.19638579  1
  Se  Se226  1  0.24796754  0.41986285  0.69697045  1
  Se  Se227  1  0.24638263  0.74562422  0.20138562  1
  Se  Se228  1  0.24958351  0.75878339  0.69190135  1
  Se  Se229  1  0.58150341  0.09289618  0.19557840  1
  Se  Se230  1  0.58318659  0.07705348  0.69805473  1
  Se  Se231  1  0.57994155  0.42308171  0.18864328  1
  Se  Se232  1  0.58228357  0.41329963  0.69788807  1
  Se  Se233  1  0.58139986  0.75557717  0.19749702  1
  Se  Se234  1  0.59234337  0.74374310  0.69075412  1
  Se  Se235  1  0.91054929  0.08269660  0.18991340  1
  Se  Se236  1  0.91773796  0.08109241  0.68714388  1
  Se  Se237  1  0.91418414  0.41213506  0.19486055  1
  Se  Se238  1  0.90811950  0.42571932  0.68834759  1
  Se  Se239  1  0.91382496  0.75030944  0.20156981  1
  Se  Se240  1  0.92242615  0.74874588  0.69565552  1
  Se  Se241  1  0.08274498  0.24430831  0.19619060  1
  Se  Se242  1  0.07778120  0.24146465  0.67951114  1
  Se  Se243  1  0.08100463  0.57968572  0.19807305  1
  Se  Se244  1  0.08269323  0.59238038  0.70450023  1
  Se  Se245  1  0.08803762  0.90439891  0.19073217  1
  Se  Se246  1  0.08051365  0.92229063  0.69127510  1
  Se  Se247  1  0.42676440  0.24081048  0.20586356  1
  Se  Se248  1  0.41238550  0.24983080  0.69759960  1
  Se  Se249  1  0.41165825  0.58151269  0.19632259  1
  Se  Se250  1  0.42221616  0.58034329  0.68628451  1
  Se  Se251  1  0.41351369  0.91550548  0.20302687  1
  Se  Se252  1  0.42182962  0.90771953  0.68941287  1
  Se  Se253  1  0.75594389  0.24634428  0.19097473  1
  Se  Se254  1  0.74838929  0.24631190  0.70099078  1
  Se  Se255  1  0.74689004  0.58686747  0.19767275  1
  Se  Se256  1  0.75092468  0.58131075  0.69783475  1
  Se  Se257  1  0.75832799  0.92120491  0.19096239  1
  Se  Se258  1  0.75209675  0.91435597  0.68987594  1
