# generated using pymatgen
data_In86Cu29Se144
_symmetry_space_group_name_H-M   'P 1'
_cell_length_a   17.58828400
_cell_length_b   17.58062651
_cell_length_c   23.44680587
_cell_angle_alpha   90.00668975
_cell_angle_beta   89.98231693
_cell_angle_gamma   89.98942321
_symmetry_Int_Tables_number   1
_chemical_formula_structural   In86Cu29Se144
_chemical_formula_sum   'In86 Cu29 Se144'
_cell_volume   7250.05788252
_cell_formula_units_Z   1
loop_
 _symmetry_equiv_pos_site_id
 _symmetry_equiv_pos_as_xyz
  1  'x, y, z'
loop_
 _atom_site_type_symbol
 _atom_site_label
 _atom_site_symmetry_multiplicity
 _atom_site_fract_x
 _atom_site_fract_y
 _atom_site_fract_z
 _atom_site_occupancy
  In  In0  1  -0.00138808  0.17102844  0.12061952  1
  In  In1  1  0.00526707  0.16342146  0.63363510  1
  In  In2  1  -0.00892597  0.49462858  0.11474793  1
  In  In3  1  0.01416801  0.48685867  0.63810052  1
  In  In4  1  0.01628767  0.83064045  0.12255472  1
  In  In5  1  -0.00311233  0.83901605  0.63602652  1
  In  In6  1  0.33473745  0.19773040  0.11884571  1
  In  In7  1  0.35037322  0.18835964  0.61447471  1
  In  In8  1  0.33335445  0.49195967  0.12007809  1
  In  In9  1  0.31703679  0.49268808  0.61620886  1
  In  In10  1  0.31499516  0.83082354  0.12390466  1
  In  In11  1  0.34663274  0.82977270  0.62757762  1
  In  In12  1  0.67149099  0.17201502  0.12591010  1
  In  In13  1  0.66011147  0.18110942  0.62991104  1
  In  In14  1  0.65203779  0.48394858  0.11317310  1
  In  In15  1  0.65656189  0.50694421  0.63266442  1
  In  In16  1  0.67353092  0.84431315  0.12403592  1
  In  In17  1  0.65348439  0.82078672  0.63241552  1
  In  In18  1  0.17339853  0.01480773  0.36996997  1
  In  In19  1  0.15452194  0.00813945  0.88515220  1
  In  In20  1  0.16962309  0.33373303  0.36958813  1
  In  In21  1  0.17167190  0.34007777  0.88099217  1
  In  In22  1  0.17811711  0.64308411  0.38199748  1
  In  In23  1  0.16925132  0.66698622  0.88370834  1
  In  In24  1  0.50974707  -0.00148989  0.37162580  1
  In  In25  1  0.50228506  0.00768507  0.87355247  1
  In  In26  1  0.49281931  0.33516277  0.37455801  1
  In  In27  1  0.50830336  0.33387801  0.86565726  1
  In  In28  1  0.48006435  0.65872557  0.36482163  1
  In  In29  1  0.49484502  0.65088864  0.87133406  1
  In  In30  1  0.83955190  0.00769145  0.36535557  1
  In  In31  1  0.84653938  -0.00442166  0.87815985  1
  In  In32  1  0.83244203  0.32404784  0.36662807  1
  In  In33  1  0.83158973  0.33118661  0.87734215  1
  In  In34  1  0.83500421  0.66890968  0.37389409  1
  In  In35  1  0.82423813  0.65262612  0.86810061  1
  In  In36  1  0.01489884  0.17539119  0.36320543  1
  In  In37  1  0.00330106  0.16866704  0.87614790  1
  In  In38  1  0.01898654  0.49771742  0.37339574  1
  In  In39  1  -0.00117563  0.49363056  0.87353169  1
  In  In40  1  -0.00765104  0.83568140  0.37178806  1
  In  In41  1  0.01141591  0.83680584  0.87007342  1
  In  In42  1  0.32260378  0.17861517  0.38076827  1
  In  In43  1  0.32228263  0.16693480  0.87758606  1
  In  In44  1  0.33723449  0.49303632  0.36986912  1
  In  In45  1  0.35202427  0.48824274  0.89784326  1
  In  In46  1  0.34585610  0.82639261  0.37020999  1
  In  In47  1  0.32564530  0.81638722  0.88382572  1
  In  In48  1  0.66156462  0.16290392  0.37106028  1
  In  In49  1  0.65699909  0.18545235  0.87677253  1
  In  In50  1  0.65643206  0.48305382  0.36896009  1
  In  In51  1  0.66560674  0.49262324  0.87575899  1
  In  In52  1  0.65116533  0.83975424  0.37148000  1
  In  In53  1  0.68036455  0.83400600  0.87343909  1
  In  In54  1  0.15677720  -0.00233195  0.12094792  1
  In  In55  1  0.15515754  0.00789798  0.62951113  1
  In  In56  1  0.16497332  0.33118364  0.11678792  1
  In  In57  1  0.17002166  0.33295963  0.62634183  1
  In  In58  1  0.18041186  0.65779531  0.10852489  1
  In  In59  1  0.17508324  0.64750644  0.63049008  1
  In  In60  1  0.50876677  0.01520067  0.12636983  1
  In  In61  1  0.49025231  0.00246855  0.62579981  1
  In  In62  1  0.48169438  0.36663289  0.15445063  1
  In  In63  1  0.49156968  0.33245316  0.62746976  1
  In  In64  1  0.49451634  0.64202740  0.12302829  1
  In  In65  1  0.50717845  0.66461221  0.62570634  1
  In  In66  1  0.81959662  0.02394675  0.12688996  1
  In  In67  1  0.83835537  0.01318123  0.62939841  1
  In  In68  1  0.83530380  0.33319689  0.12148899  1
  In  In69  1  0.83349181  0.33726981  0.63597288  1
  In  In70  1  0.84494162  0.66296817  0.12089099  1
  In  In71  1  0.83246025  0.66612913  0.63711884  1
  In  In72  1  0.83526941  0.17322846  0.50520847  1
  In  In73  1  0.32725662  0.00544618  0.75210258  1
  In  In74  1  0.67445389  -0.00330815  0.75087751  1
  In  In75  1  0.49731208  0.83039514  0.00340281  1
  In  In76  1  0.33282358  0.66066839  0.75407106  1
  In  In77  1  0.50156992  0.17714169  0.00216498  1
  In  In78  1  0.33391638  0.00525029  0.24564086  1
  In  In79  1  0.66898236  0.66903739  0.24960675  1
  In  In80  1  0.00831248  0.66428270  0.24960461  1
  In  In81  1  0.16804832  0.83459788  0.50282745  1
  In  In82  1  0.49635946  0.82773199  0.50275847  1
  In  In83  1  0.83198757  0.83289433  0.50237209  1
  In  In84  1  0.83882032  0.83363628  -0.00113936  1
  In  In85  1  0.83427985  0.49749873  0.50082798  1
  Cu  Cu86  1  0.49904436  0.49263701  0.75074020  1
  Cu  Cu87  1  -0.00064824  0.66154833  -0.00457150  1
  Cu  Cu88  1  -0.00254465  0.32913731  -0.00374065  1
  Cu  Cu89  1  0.83858667  0.16715877  0.75501247  1
  Cu  Cu90  1  0.00710707  0.01199390  0.49964095  1
  Cu  Cu91  1  0.83707460  0.85072895  0.24576567  1
  Cu  Cu92  1  0.01109054  0.33724630  0.49819758  1
  Cu  Cu93  1  0.33058225  0.33616286  0.49690058  1
  Cu  Cu94  1  0.83989264  0.82714642  0.75562907  1
  Cu  Cu95  1  0.83203023  0.49606983  0.75597723  1
  Cu  Cu96  1  -0.00286269  0.00291294  0.00167217  1
  Cu  Cu97  1  0.50227961  0.83377996  0.24588866  1
  Cu  Cu98  1  0.32905578  0.00958962  0.50229383  1
  Cu  Cu99  1  0.65868756  0.65573244  0.50134615  1
  Cu  Cu100  1  0.16329151  0.16881553  0.24298180  1
  Cu  Cu101  1  0.16341285  0.83461177  0.75572845  1
  Cu  Cu102  1  0.83393157  0.49413693  0.24279054  1
  Cu  Cu103  1  0.66178577  0.00472859  0.49386541  1
  Cu  Cu104  1  0.16953073  0.49477394  0.75642934  1
  Cu  Cu105  1  0.66532585  0.65985335  -0.00570776  1
  Cu  Cu106  1  0.65298453  0.33700997  0.50191655  1
  Cu  Cu107  1  0.66443744  0.33644894  0.00242744  1
  Cu  Cu108  1  0.32665685  -0.00042464  0.00178792  1
  Cu  Cu109  1  0.16688278  0.17541881  0.75420747  1
  Cu  Cu110  1  0.17108206  0.49364063  0.24496168  1
  Cu  Cu111  1  0.50592528  0.17299114  0.25086387  1
  Cu  Cu112  1  0.00726010  0.65798653  0.51039957  1
  Cu  Cu113  1  0.83928538  0.16995806  0.24379513  1
  Cu  Cu114  1  0.16864317  0.82325687  0.24541232  1
  Se  Se115  1  0.08322976  0.08679924  0.05212025  1
  Se  Se116  1  0.08625734  0.09406312  0.55543412  1
  Se  Se117  1  0.07851131  0.41426710  0.04952141  1
  Se  Se118  1  0.08825258  0.42015128  0.55666856  1
  Se  Se119  1  0.08298701  0.74138747  0.05144985  1
  Se  Se120  1  0.07943919  0.74778474  0.56730267  1
  Se  Se121  1  0.40730053  0.08183612  0.05988102  1
  Se  Se122  1  0.42113172  0.08602874  0.55236307  1
  Se  Se123  1  0.42659243  0.40863018  0.05895229  1
  Se  Se124  1  0.41335951  0.41507876  0.55508247  1
  Se  Se125  1  0.40912551  0.74247064  0.06341818  1
  Se  Se126  1  0.40469989  0.73226091  0.55520850  1
  Se  Se127  1  0.74563811  0.09359958  0.04978420  1
  Se  Se128  1  0.74013040  0.07907974  0.55893584  1
  Se  Se129  1  0.75495469  0.41918014  0.05106591  1
  Se  Se130  1  0.74225363  0.40987532  0.56090933  1
  Se  Se131  1  0.74213647  0.74150373  0.05644933  1
  Se  Se132  1  0.73982485  0.73832108  0.55830606  1
  Se  Se133  1  0.24405810  0.24957805  0.04390518  1
  Se  Se134  1  0.24717393  0.25187495  0.55151732  1
  Se  Se135  1  0.23894077  0.55263588  0.04453014  1
  Se  Se136  1  0.24742686  0.58689593  0.54871404  1
  Se  Se137  1  0.24243128  0.91542485  0.05271358  1
  Se  Se138  1  0.25898352  0.92484008  0.56517983  1
  Se  Se139  1  0.58136870  0.26661229  0.06813237  1
  Se  Se140  1  0.57578984  0.24922572  0.55588436  1
  Se  Se141  1  0.57973852  0.57814674  0.04668736  1
  Se  Se142  1  0.57617093  0.57443694  0.55413560  1
  Se  Se143  1  0.58923787  0.92882346  0.05402490  1
  Se  Se144  1  0.59148735  0.92072442  0.55895617  1
  Se  Se145  1  0.91215900  0.24763467  0.05018816  1
  Se  Se146  1  0.92715648  0.26436690  0.56180087  1
  Se  Se147  1  0.91118298  0.58066379  0.04524233  1
  Se  Se148  1  0.92082327  0.58237408  0.56749032  1
  Se  Se149  1  0.92099891  0.92186123  0.06530885  1
  Se  Se150  1  0.92516144  0.92944151  0.55647432  1
  Se  Se151  1  0.08652479  0.25110141  0.44140395  1
  Se  Se152  1  0.08709670  0.25030017  0.94496373  1
  Se  Se153  1  0.08505435  0.57680112  0.45245329  1
  Se  Se154  1  0.08107988  0.57727984  0.94300616  1
  Se  Se155  1  0.07934726  0.92435112  0.43949600  1
  Se  Se156  1  0.07871026  0.91405852  0.95025338  1
  Se  Se157  1  0.41632448  0.25000004  0.44722854  1
  Se  Se158  1  0.41242779  0.25883549  0.93779071  1
  Se  Se159  1  0.41317191  0.58102338  0.44045058  1
  Se  Se160  1  0.41112422  0.60175271  0.95173693  1
  Se  Se161  1  0.40888573  0.92609274  0.44267167  1
  Se  Se162  1  0.40963102  0.92479058  0.94060456  1
  Se  Se163  1  0.74089937  0.25876730  0.44498135  1
  Se  Se164  1  0.74615044  0.25178500  0.94894843  1
  Se  Se165  1  0.74288856  0.58555541  0.43760461  1
  Se  Se166  1  0.75094568  0.57615591  0.94461729  1
  Se  Se167  1  0.74506202  0.92371212  0.43820129  1
  Se  Se168  1  0.74402052  0.92750466  0.94664467  1
  Se  Se169  1  0.24388929  0.08851868  0.44836864  1
  Se  Se170  1  0.24589161  0.08634160  0.95009658  1
  Se  Se171  1  0.24759590  0.41718993  0.44070207  1
  Se  Se172  1  0.23597483  0.43564266  0.95365894  1
  Se  Se173  1  0.25816955  0.74802980  0.44103421  1
  Se  Se174  1  0.24458726  0.74862018  0.95747115  1
  Se  Se175  1  0.57740362  0.08770763  0.44408614  1
  Se  Se176  1  0.59017920  0.08099376  0.94445226  1
  Se  Se177  1  0.57383583  0.42010021  0.44633717  1
  Se  Se178  1  0.57876233  0.41282764  0.94407286  1
  Se  Se179  1  0.58494296  0.73890883  0.43794465  1
  Se  Se180  1  0.58915430  0.74706608  0.93772290  1
  Se  Se181  1  0.92332160  0.08759323  0.43957516  1
  Se  Se182  1  0.91764151  0.08658134  0.94640641  1
  Se  Se183  1  0.92305839  0.40903150  0.43798727  1
  Se  Se184  1  0.91409773  0.41571669  0.94513732  1
  Se  Se185  1  0.92924129  0.73797071  0.44822312  1
  Se  Se186  1  0.92018282  0.74294396  0.93430941  1
  Se  Se187  1  0.24845685  0.24612154  0.30002759  1
  Se  Se188  1  0.25067497  0.25622846  0.80785060  1
  Se  Se189  1  0.25102896  0.57857527  0.30057311  1
  Se  Se190  1  0.25149529  0.57100914  0.81826014  1
  Se  Se191  1  0.24684434  0.90826852  0.30622299  1
  Se  Se192  1  0.24471085  0.91232331  0.81660823  1
  Se  Se193  1  0.58574638  0.25635244  0.30762357  1
  Se  Se194  1  0.58227689  0.24632951  0.79577185  1
  Se  Se195  1  0.57631082  0.57634884  0.30209689  1
  Se  Se196  1  0.58341364  0.57568415  0.80394828  1
  Se  Se197  1  0.58452745  0.92139282  0.29480537  1
  Se  Se198  1  0.57890675  0.90995920  0.80953740  1
  Se  Se199  1  0.92313204  0.25258924  0.29844715  1
  Se  Se200  1  0.91951317  0.25223512  0.80808273  1
  Se  Se201  1  0.91112654  0.57415970  0.30734060  1
  Se  Se202  1  0.91994622  0.58093698  0.80306647  1
  Se  Se203  1  0.92649970  0.92504037  0.30008492  1
  Se  Se204  1  0.92120683  0.91655497  0.80371045  1
  Se  Se205  1  0.08564552  0.07935461  0.29610456  1
  Se  Se206  1  0.08723246  0.08571582  0.80554667  1
  Se  Se207  1  0.08384010  0.41368370  0.29823758  1
  Se  Se208  1  0.08423291  0.41017722  0.80632469  1
  Se  Se209  1  0.09532736  0.75023294  0.31642666  1
  Se  Se210  1  0.08890799  0.74206871  0.80718278  1
  Se  Se211  1  0.42120097  0.09157603  0.31007584  1
  Se  Se212  1  0.42230404  0.09634830  0.80714829  1
  Se  Se213  1  0.40732217  0.40263668  0.29977849  1
  Se  Se214  1  0.41155966  0.42112531  0.81014881  1
  Se  Se215  1  0.41430646  0.74941186  0.29190331  1
  Se  Se216  1  0.42168940  0.75771353  0.80974786  1
  Se  Se217  1  0.75402208  0.09125993  0.30226286  1
  Se  Se218  1  0.75619337  0.08812248  0.81517790  1
  Se  Se219  1  0.75367906  0.41623528  0.30316110  1
  Se  Se220  1  0.74740770  0.41016879  0.80556916  1
  Se  Se221  1  0.76025310  0.76739799  0.30780614  1
  Se  Se222  1  0.74890890  0.74630916  0.80165223  1
  Se  Se223  1  0.24856528  0.09315698  0.18214554  1
  Se  Se224  1  0.24630008  0.09792091  0.68890418  1
  Se  Se225  1  0.24883021  0.40842941  0.18925781  1
  Se  Se226  1  0.25214929  0.41611374  0.69703557  1
  Se  Se227  1  0.24548511  0.73648267  0.19137884  1
  Se  Se228  1  0.24492606  0.75874442  0.69322673  1
  Se  Se229  1  0.58944772  0.08935708  0.19889450  1
  Se  Se230  1  0.57895594  0.08419114  0.69361396  1
  Se  Se231  1  0.60050685  0.42071569  0.20328186  1
  Se  Se232  1  0.58251086  0.41100808  0.69570218  1
  Se  Se233  1  0.57953257  0.75359320  0.18282172  1
  Se  Se234  1  0.57767601  0.74118990  0.70289177  1
  Se  Se235  1  0.92188244  0.08377064  0.19270123  1
  Se  Se236  1  0.92167568  0.08152553  0.70335496  1
  Se  Se237  1  0.92141296  0.41454181  0.19177629  1
  Se  Se238  1  0.91970211  0.41436571  0.70387154  1
  Se  Se239  1  0.91346116  0.75864315  0.19301426  1
  Se  Se240  1  0.92377950  0.74490609  0.70102498  1
  Se  Se241  1  0.08117864  0.25327719  0.19012736  1
  Se  Se242  1  0.08302270  0.25559833  0.69724366  1
  Se  Se243  1  0.08956222  0.57528806  0.18464744  1
  Se  Se244  1  0.08801442  0.58177008  0.70415526  1
  Se  Se245  1  0.08773290  0.91288255  0.19741524  1
  Se  Se246  1  0.08410486  0.92116063  0.70133198  1
  Se  Se247  1  0.41402786  0.25124249  0.20246628  1
  Se  Se248  1  0.41199277  0.25202590  0.69983324  1
  Se  Se249  1  0.41103615  0.57269989  0.19444534  1
  Se  Se250  1  0.41772297  0.57243563  0.68920308  1
  Se  Se251  1  0.42186466  0.91302710  0.18374529  1
  Se  Se252  1  0.42592915  0.90953715  0.70102404  1
  Se  Se253  1  0.75344061  0.25497251  0.19482691  1
  Se  Se254  1  0.75364380  0.24615344  0.69942544  1
  Se  Se255  1  0.75607847  0.58016445  0.18673771  1
  Se  Se256  1  0.74880802  0.57954655  0.70041666  1
  Se  Se257  1  0.74779293  0.92819590  0.19492916  1
  Se  Se258  1  0.76270535  0.90381062  0.68726820  1
