# generated using pymatgen
data_In86Cu29Se144
_symmetry_space_group_name_H-M   'P 1'
_cell_length_a   17.59606711
_cell_length_b   17.60242043
_cell_length_c   23.46111814
_cell_angle_alpha   90.01239892
_cell_angle_beta   90.00373500
_cell_angle_gamma   90.01886267
_symmetry_Int_Tables_number   1
_chemical_formula_structural   In86Cu29Se144
_chemical_formula_sum   'In86 Cu29 Se144'
_cell_volume   7266.69063255
_cell_formula_units_Z   1
loop_
 _symmetry_equiv_pos_site_id
 _symmetry_equiv_pos_as_xyz
  1  'x, y, z'
loop_
 _atom_site_type_symbol
 _atom_site_label
 _atom_site_symmetry_multiplicity
 _atom_site_fract_x
 _atom_site_fract_y
 _atom_site_fract_z
 _atom_site_occupancy
  In  In0  1  0.01057007  0.15376752  0.12723432  1
  In  In1  1  0.00378662  0.15272884  0.62633627  1
  In  In2  1  0.00653295  0.50339208  0.11858396  1
  In  In3  1  -0.00190246  0.51287940  0.62973135  1
  In  In4  1  0.00123572  0.83066761  0.13199663  1
  In  In5  1  0.01238467  0.82151989  0.62850780  1
  In  In6  1  0.32333213  0.17520427  0.13217695  1
  In  In7  1  0.32454211  0.16452675  0.61703893  1
  In  In8  1  0.33422663  0.49677799  0.12362156  1
  In  In9  1  0.35142904  0.48521666  0.64453713  1
  In  In10  1  0.34382591  0.81802046  0.13494292  1
  In  In11  1  0.33220233  0.83750826  0.62860376  1
  In  In12  1  0.65422538  0.16723371  0.12974675  1
  In  In13  1  0.66116593  0.18226835  0.62198045  1
  In  In14  1  0.67048034  0.50632573  0.11694958  1
  In  In15  1  0.66918235  0.50390088  0.62010474  1
  In  In16  1  0.66397412  0.84234205  0.12697318  1
  In  In17  1  0.65168843  0.82276292  0.62553303  1
  In  In18  1  0.16797270  -0.00114378  0.37515490  1
  In  In19  1  0.17560939  0.00732613  0.87203937  1
  In  In20  1  0.16482394  0.32121992  0.37889583  1
  In  In21  1  0.17168394  0.32330315  0.88110517  1
  In  In22  1  0.17709247  0.67447891  0.36915779  1
  In  In23  1  0.15571742  0.65626958  0.86927541  1
  In  In24  1  0.50317068  0.00304183  0.36534879  1
  In  In25  1  0.48240265  0.00455036  0.87699108  1
  In  In26  1  0.48139455  0.34817882  0.38961162  1
  In  In27  1  0.49179905  0.35784846  0.87115661  1
  In  In28  1  0.48167741  0.66646904  0.37242433  1
  In  In29  1  0.49809474  0.66216953  0.87336762  1
  In  In30  1  0.83136134  0.00235151  0.36703100  1
  In  In31  1  0.83632360  -0.01909089  0.87592880  1
  In  In32  1  0.84314914  0.34381833  0.37838999  1
  In  In33  1  0.84008152  0.35722247  0.87501335  1
  In  In34  1  0.84010526  0.65006674  0.37220653  1
  In  In35  1  0.83160375  0.65228922  0.86406852  1
  In  In36  1  0.01466908  0.16737380  0.37736699  1
  In  In37  1  0.02414904  0.17344138  0.87406930  1
  In  In38  1  -0.00623933  0.49935352  0.37277230  1
  In  In39  1  -0.00611927  0.50554942  0.88899758  1
  In  In40  1  0.00749981  0.84415053  0.37095274  1
  In  In41  1  -0.00246285  0.82906632  0.86698757  1
  In  In42  1  0.33434388  0.16816110  0.37718815  1
  In  In43  1  0.32354773  0.15887700  0.86750994  1
  In  In44  1  0.33177080  0.50570554  0.36648063  1
  In  In45  1  0.33592285  0.50074876  0.86778025  1
  In  In46  1  0.32670247  0.82139156  0.36582471  1
  In  In47  1  0.33665117  0.83954835  0.87556841  1
  In  In48  1  0.65881919  0.15644668  0.37203139  1
  In  In49  1  0.66235472  0.16936303  0.87207728  1
  In  In50  1  0.66904223  0.49583727  0.38053909  1
  In  In51  1  0.65737519  0.51589731  0.87661455  1
  In  In52  1  0.64792765  0.83853310  0.36894036  1
  In  In53  1  0.66737132  0.81484731  0.87632777  1
  In  In54  1  0.16495612  0.00176121  0.12998579  1
  In  In55  1  0.16923765  -0.00335611  0.62081493  1
  In  In56  1  0.18469590  0.35385278  0.10773996  1
  In  In57  1  0.18855857  0.33433094  0.61778931  1
  In  In58  1  0.18041572  0.64046735  0.14237265  1
  In  In59  1  0.16637415  0.67139912  0.62911214  1
  In  In60  1  0.50112225  -0.01253613  0.13759103  1
  In  In61  1  0.48111228  -0.00420340  0.62276260  1
  In  In62  1  0.48539302  0.33614253  0.12514979  1
  In  In63  1  0.48177799  0.32596185  0.60885047  1
  In  In64  1  0.49337350  0.65825132  0.11759607  1
  In  In65  1  0.51439049  0.64864786  0.64421603  1
  In  In66  1  0.83751107  -0.00242984  0.13391617  1
  In  In67  1  0.84160413  0.01149458  0.62635919  1
  In  In68  1  0.83940692  0.34229639  0.11739947  1
  In  In69  1  0.82101440  0.34409723  0.62690662  1
  In  In70  1  0.84464561  0.65933168  0.12799043  1
  In  In71  1  0.84016322  0.65266421  0.63596391  1
  In  In72  1  0.66514904  -0.00831987  0.74314930  1
  In  In73  1  0.00491649  0.33559411  0.75043615  1
  In  In74  1  0.16836758  0.82597180  0.00423248  1
  In  In75  1  0.66742498  0.67070805  0.24579083  1
  In  In76  1  0.49264283  0.17099291  0.00608780  1
  In  In77  1  0.83526488  0.82976105  0.50155978  1
  In  In78  1  0.17503079  0.50175788  0.49969863  1
  In  In79  1  0.66552475  0.33115339  0.25583964  1
  In  In80  1  0.83916564  0.16691506  0.00127581  1
  In  In81  1  0.65839818  0.33980494  0.75482405  1
  In  In82  1  0.01275364  0.33601660  0.24653797  1
  In  In83  1  0.83264166  0.17630145  0.50035203  1
  In  In84  1  0.48828129  0.82996475  0.49689881  1
  In  In85  1  0.83219638  0.82650925  0.00846868  1
  Cu  Cu86  1  0.48595748  0.16612373  0.74259811  1
  Cu  Cu87  1  0.49779936  0.82980861  0.75389342  1
  Cu  Cu88  1  0.66576061  0.65797375  0.50187227  1
  Cu  Cu89  1  0.84070931  0.16247407  0.75447951  1
  Cu  Cu90  1  0.83095499  0.83571016  0.25065904  1
  Cu  Cu91  1  0.00968056  -0.00064887  0.49868008  1
  Cu  Cu92  1  0.16834480  0.50085377  0.75049740  1
  Cu  Cu93  1  0.83647786  0.16864220  0.24921050  1
  Cu  Cu94  1  0.67235774  0.34395797  -0.00515544  1
  Cu  Cu95  1  0.65938926  0.33985543  0.50048331  1
  Cu  Cu96  1  0.16901830  0.16229430  0.25492499  1
  Cu  Cu97  1  0.01078260  0.00442048  -0.00259482  1
  Cu  Cu98  1  0.00128758  0.66411922  0.00197629  1
  Cu  Cu99  1  0.49212210  0.16495060  0.24988714  1
  Cu  Cu100  1  0.16735686  0.83994085  0.75041940  1
  Cu  Cu101  1  0.84097345  0.83006591  0.74826675  1
  Cu  Cu102  1  0.00375224  0.66595483  0.50457321  1
  Cu  Cu103  1  0.49789926  0.50171347  0.24855481  1
  Cu  Cu104  1  0.65695437  -0.00183487  0.00945609  1
  Cu  Cu105  1  0.65996879  0.66191317  -0.00446736  1
  Cu  Cu106  1  0.33245095  0.65889734  0.00101083  1
  Cu  Cu107  1  0.00023494  0.33953890  0.50033859  1
  Cu  Cu108  1  0.32667461  0.00185632  0.49749986  1
  Cu  Cu109  1  0.66085490  0.00294119  0.49293009  1
  Cu  Cu110  1  0.33616438  0.33851316  -0.00386974  1
  Cu  Cu111  1  0.17303775  0.16273245  0.74670361  1
  Cu  Cu112  1  0.16256174  0.83539658  0.24936900  1
  Cu  Cu113  1  0.33203197  0.66730438  0.50172908  1
  Cu  Cu114  1  0.33145941  -0.00012062  0.00091202  1
  Se  Se115  1  0.09395865  0.08310077  0.05232425  1
  Se  Se116  1  0.08864375  0.08574073  0.55214121  1
  Se  Se117  1  0.07794573  0.41424886  0.04926816  1
  Se  Se118  1  0.07969184  0.41684822  0.56343778  1
  Se  Se119  1  0.08089407  0.73811129  0.06607936  1
  Se  Se120  1  0.09079611  0.74991411  0.55172320  1
  Se  Se121  1  0.40968728  0.07759729  0.06602355  1
  Se  Se122  1  0.41448517  0.08158905  0.55000688  1
  Se  Se123  1  0.41967229  0.42027046  0.05013247  1
  Se  Se124  1  0.40919563  0.42993349  0.55329242  1
  Se  Se125  1  0.41267698  0.74821700  0.05186046  1
  Se  Se126  1  0.41650202  0.73901535  0.56608684  1
  Se  Se127  1  0.74343732  0.07882924  0.06244366  1
  Se  Se128  1  0.74089194  0.07897462  0.55694691  1
  Se  Se129  1  0.75554591  0.42332624  0.05023832  1
  Se  Se130  1  0.75028674  0.41951334  0.54954212  1
  Se  Se131  1  0.73785723  0.73583687  0.06388176  1
  Se  Se132  1  0.74362772  0.74076151  0.56077297  1
  Se  Se133  1  0.25798457  0.25002609  0.04992929  1
  Se  Se134  1  0.25241807  0.24981683  0.54386945  1
  Se  Se135  1  0.24722953  0.57940950  0.05550274  1
  Se  Se136  1  0.25983293  0.58512202  0.56648849  1
  Se  Se137  1  0.25659941  0.91674474  0.06303546  1
  Se  Se138  1  0.25288176  0.91205843  0.55289166  1
  Se  Se139  1  0.59269144  0.26443200  0.05640722  1
  Se  Se140  1  0.57911000  0.24792187  0.54650309  1
  Se  Se141  1  0.57831781  0.57725785  0.04955348  1
  Se  Se142  1  0.57574007  0.58357624  0.55595652  1
  Se  Se143  1  0.57308591  0.91300174  0.05723319  1
  Se  Se144  1  0.58509014  0.92156077  0.55533661  1
  Se  Se145  1  0.93158624  0.25131911  0.06064034  1
  Se  Se146  1  0.92252834  0.26048006  0.56579283  1
  Se  Se147  1  0.91347919  0.58046361  0.05101284  1
  Se  Se148  1  0.91612672  0.58497323  0.55464647  1
  Se  Se149  1  0.92749512  0.92569996  0.05680799  1
  Se  Se150  1  0.92518118  0.92316829  0.55920337  1
  Se  Se151  1  0.08140759  0.24974196  0.45364938  1
  Se  Se152  1  0.08736500  0.24850702  0.95304025  1
  Se  Se153  1  0.08245712  0.58905268  0.43986073  1
  Se  Se154  1  0.08984524  0.58326818  0.95137464  1
  Se  Se155  1  0.08951605  0.91272162  0.44693668  1
  Se  Se156  1  0.08190244  0.91509643  0.93890715  1
  Se  Se157  1  0.42406947  0.23949672  0.44754597  1
  Se  Se158  1  0.41288780  0.25430409  0.93473790  1
  Se  Se159  1  0.40919209  0.58270464  0.44432277  1
  Se  Se160  1  0.41539318  0.57955588  0.94306750  1
  Se  Se161  1  0.40697657  0.92298121  0.43512082  1
  Se  Se162  1  0.41698418  0.91691987  0.95048740  1
  Se  Se163  1  0.73957307  0.26054527  0.43672161  1
  Se  Se164  1  0.74742662  0.25642672  0.93798956  1
  Se  Se165  1  0.75291387  0.58238676  0.44577080  1
  Se  Se166  1  0.75280883  0.58655753  0.94416967  1
  Se  Se167  1  0.74341346  0.91941412  0.43959832  1
  Se  Se168  1  0.73886475  0.91871532  0.94879186  1
  Se  Se169  1  0.24508396  0.08637801  0.44412720  1
  Se  Se170  1  0.25154296  0.08520244  0.94758288  1
  Se  Se171  1  0.25847575  0.41029233  0.43838664  1
  Se  Se172  1  0.25386023  0.41911312  0.93971256  1
  Se  Se173  1  0.25219601  0.75103669  0.44620893  1
  Se  Se174  1  0.25366928  0.73963306  0.93898738  1
  Se  Se175  1  0.57380906  0.08358021  0.44387636  1
  Se  Se176  1  0.58681462  0.08081951  0.94487265  1
  Se  Se177  1  0.57754031  0.42701754  0.44975531  1
  Se  Se178  1  0.58327157  0.42109764  0.94293007  1
  Se  Se179  1  0.58736145  0.74005593  0.44182641  1
  Se  Se180  1  0.57688399  0.74824532  0.94629808  1
  Se  Se181  1  0.91903919  0.07746088  0.44384270  1
  Se  Se182  1  0.92315786  0.07586106  0.93674387  1
  Se  Se183  1  0.91755079  0.42526402  0.45110032  1
  Se  Se184  1  0.92539698  0.40750719  0.95371615  1
  Se  Se185  1  0.92473442  0.74360267  0.43980816  1
  Se  Se186  1  0.91992243  0.74374588  0.94205556  1
  Se  Se187  1  0.24971666  0.24927937  0.30648207  1
  Se  Se188  1  0.24857606  0.25166382  0.80192629  1
  Se  Se189  1  0.25467461  0.59182066  0.29921140  1
  Se  Se190  1  0.25056545  0.58738866  0.80197241  1
  Se  Se191  1  0.24722267  0.91587853  0.30425815  1
  Se  Se192  1  0.25323982  0.91916903  0.80536765  1
  Se  Se193  1  0.56852197  0.24796369  0.31246840  1
  Se  Se194  1  0.56428602  0.24180809  0.80744710  1
  Se  Se195  1  0.58099125  0.57816986  0.30898047  1
  Se  Se196  1  0.57626226  0.58110835  0.80081015  1
  Se  Se197  1  0.58416694  0.92211095  0.29514919  1
  Se  Se198  1  0.57888419  0.91355654  0.81385714  1
  Se  Se199  1  0.91597794  0.24674061  0.31009531  1
  Se  Se200  1  0.91263349  0.24755277  0.81447933  1
  Se  Se201  1  0.92720445  0.58564132  0.29904428  1
  Se  Se202  1  0.93484298  0.58304080  0.80685397  1
  Se  Se203  1  0.91655059  0.91897407  0.30288176  1
  Se  Se204  1  0.92010884  0.91864426  0.79918567  1
  Se  Se205  1  0.08143716  0.08025092  0.30486130  1
  Se  Se206  1  0.08719612  0.08289765  0.80147153  1
  Se  Se207  1  0.09726979  0.42402438  0.31172726  1
  Se  Se208  1  0.09037949  0.42190403  0.81436525  1
  Se  Se209  1  0.08211994  0.75159016  0.30527698  1
  Se  Se210  1  0.08569851  0.75113998  0.80137620  1
  Se  Se211  1  0.40910925  0.08248141  0.30379692  1
  Se  Se212  1  0.41102561  0.07922343  0.79914673  1
  Se  Se213  1  0.41849729  0.41630033  0.30350520  1
  Se  Se214  1  0.41401625  0.42096064  0.79340441  1
  Se  Se215  1  0.43177658  0.76363587  0.30151206  1
  Se  Se216  1  0.41326095  0.75037148  0.80831877  1
  Se  Se217  1  0.74902305  0.08803394  0.30118384  1
  Se  Se218  1  0.75397340  0.08185060  0.80951331  1
  Se  Se219  1  0.76122903  0.42555717  0.30563751  1
  Se  Se220  1  0.75318246  0.43269256  0.80519632  1
  Se  Se221  1  0.75508075  0.75602974  0.31419627  1
  Se  Se222  1  0.75579539  0.75111537  0.80326063  1
  Se  Se223  1  0.25150289  0.08088032  0.19849445  1
  Se  Se224  1  0.25265903  0.07872681  0.69084216  1
  Se  Se225  1  0.25218284  0.41396972  0.19234800  1
  Se  Se226  1  0.24761949  0.41073715  0.70098163  1
  Se  Se227  1  0.24563011  0.74851383  0.19933119  1
  Se  Se228  1  0.24901004  0.75526435  0.69704205  1
  Se  Se229  1  0.58071965  0.08362057  0.19989275  1
  Se  Se230  1  0.57716149  0.09012488  0.68771316  1
  Se  Se231  1  0.58165240  0.42219892  0.18991039  1
  Se  Se232  1  0.57703254  0.40940278  0.67860403  1
  Se  Se233  1  0.57257489  0.75357754  0.18789290  1
  Se  Se234  1  0.58806723  0.74829619  0.70654285  1
  Se  Se235  1  0.92084512  0.08413290  0.19805696  1
  Se  Se236  1  0.92342876  0.07987886  0.70213747  1
  Se  Se237  1  0.91406105  0.42180820  0.19300248  1
  Se  Se238  1  0.90785056  0.42498537  0.69617238  1
  Se  Se239  1  0.91208224  0.75139282  0.19749558  1
  Se  Se240  1  0.92325977  0.74519475  0.69591315  1
  Se  Se241  1  0.09971889  0.24439904  0.18814399  1
  Se  Se242  1  0.09248304  0.24609529  0.68739132  1
  Se  Se243  1  0.06467344  0.58886440  0.19725814  1
  Se  Se244  1  0.08575093  0.58575949  0.69850214  1
  Se  Se245  1  0.07913220  0.92027654  0.19743016  1
  Se  Se246  1  0.08395924  0.91870777  0.69255472  1
  Se  Se247  1  0.41368202  0.25418792  0.19843584  1
  Se  Se248  1  0.40880199  0.24904615  0.68618922  1
  Se  Se249  1  0.41561609  0.58292362  0.19320197  1
  Se  Se250  1  0.39606565  0.60393001  0.69884783  1
  Se  Se251  1  0.39776362  0.92549571  0.19837324  1
  Se  Se252  1  0.41743262  0.91546350  0.70066232  1
  Se  Se253  1  0.75852182  0.24817719  0.18826144  1
  Se  Se254  1  0.75635899  0.24282206  0.69839350  1
  Se  Se255  1  0.75713188  0.57224177  0.19541398  1
  Se  Se256  1  0.73694950  0.58701767  0.69556070  1
  Se  Se257  1  0.74719039  0.91861337  0.19817781  1
  Se  Se258  1  0.76031328  0.90450638  0.68336765  1
