# generated using pymatgen
data_In86Cu29Se144
_symmetry_space_group_name_H-M   'P 1'
_cell_length_a   17.57923635
_cell_length_b   17.57697930
_cell_length_c   23.43608972
_cell_angle_alpha   90.00223262
_cell_angle_beta   90.00331690
_cell_angle_gamma   90.00429143
_symmetry_Int_Tables_number   1
_chemical_formula_structural   In86Cu29Se144
_chemical_formula_sum   'In86 Cu29 Se144'
_cell_volume   7241.51435936
_cell_formula_units_Z   1
loop_
 _symmetry_equiv_pos_site_id
 _symmetry_equiv_pos_as_xyz
  1  'x, y, z'
loop_
 _atom_site_type_symbol
 _atom_site_label
 _atom_site_symmetry_multiplicity
 _atom_site_fract_x
 _atom_site_fract_y
 _atom_site_fract_z
 _atom_site_occupancy
  In  In0  1  0.00741283  0.15907311  0.12666073  1
  In  In1  1  -0.00360868  0.18147902  0.62491319  1
  In  In2  1  -0.00420461  0.50899277  0.13669643  1
  In  In3  1  -0.00764268  0.50606894  0.62608026  1
  In  In4  1  -0.00383310  0.83593847  0.12846797  1
  In  In5  1  0.00009553  0.81587763  0.62780381  1
  In  In6  1  0.33985666  0.17746579  0.11577125  1
  In  In7  1  0.33682757  0.15367093  0.62938975  1
  In  In8  1  0.32457255  0.48824975  0.12450654  1
  In  In9  1  0.33559967  0.50778303  0.64406894  1
  In  In10  1  0.34020314  0.82810435  0.12220069  1
  In  In11  1  0.33827946  0.82802149  0.62862635  1
  In  In12  1  0.66477522  0.18044878  0.12338081  1
  In  In13  1  0.67168089  0.17867367  0.61672972  1
  In  In14  1  0.66450729  0.48731856  0.12082639  1
  In  In15  1  0.67115050  0.48623474  0.63784402  1
  In  In16  1  0.66433567  0.82469283  0.11605965  1
  In  In17  1  0.65226658  0.83908083  0.62745706  1
  In  In18  1  0.15471661  -0.00623023  0.37589197  1
  In  In19  1  0.18416556  0.00018496  0.87267283  1
  In  In20  1  0.16760527  0.33965900  0.36307226  1
  In  In21  1  0.16485927  0.33239673  0.87288385  1
  In  In22  1  0.16647224  0.68006246  0.37878774  1
  In  In23  1  0.16785301  0.67705487  0.85843999  1
  In  In24  1  0.50312695  -0.00340494  0.37981680  1
  In  In25  1  0.49735941  0.00919106  0.87988359  1
  In  In26  1  0.49514810  0.32661152  0.37191571  1
  In  In27  1  0.49507042  0.32730003  0.86491392  1
  In  In28  1  0.49838509  0.66761676  0.38383312  1
  In  In29  1  0.51415232  0.67913269  0.86143041  1
  In  In30  1  0.85074207  0.00401534  0.37496568  1
  In  In31  1  0.81877527  -0.00149650  0.87561042  1
  In  In32  1  0.82989558  0.33359712  0.37444193  1
  In  In33  1  0.84777876  0.34441303  0.86754643  1
  In  In34  1  0.82679830  0.65198324  0.37783033  1
  In  In35  1  0.83279451  0.66001539  0.87661393  1
  In  In36  1  -0.00459363  0.16498534  0.37201196  1
  In  In37  1  0.00062115  0.18781556  0.87652236  1
  In  In38  1  -0.00823368  0.48861251  0.36717591  1
  In  In39  1  -0.00510233  0.49750928  0.87410964  1
  In  In40  1  0.00490938  0.84243258  0.37174506  1
  In  In41  1  0.00274710  0.81430774  0.87272104  1
  In  In42  1  0.33341406  0.17741714  0.37783901  1
  In  In43  1  0.33644263  0.16896163  0.87233579  1
  In  In44  1  0.34218415  0.49726716  0.37629581  1
  In  In45  1  0.34629916  0.50293810  0.85509282  1
  In  In46  1  0.33150721  0.82216516  0.38721651  1
  In  In47  1  0.34295963  0.85139558  0.86105851  1
  In  In48  1  0.65531273  0.17784023  0.38091963  1
  In  In49  1  0.65721631  0.16240899  0.87287478  1
  In  In50  1  0.67834929  0.50152774  0.37760294  1
  In  In51  1  0.67908452  0.51599180  0.85933272  1
  In  In52  1  0.66091804  0.82473337  0.37798964  1
  In  In53  1  0.67721805  0.81526412  0.88897939  1
  In  In54  1  0.15036684  0.00006834  0.12290037  1
  In  In55  1  0.18329848  -0.00636215  0.62924726  1
  In  In56  1  0.17745720  0.33011927  0.13351588  1
  In  In57  1  0.16280663  0.33732966  0.63163008  1
  In  In58  1  0.15598760  0.65002028  0.12734874  1
  In  In59  1  0.16691184  0.67406180  0.63190132  1
  In  In60  1  0.49490542  -0.00117378  0.12018158  1
  In  In61  1  0.49067817  -0.01091474  0.61731439  1
  In  In62  1  0.50786319  0.33049616  0.12719854  1
  In  In63  1  0.51099034  0.32833666  0.63579187  1
  In  In64  1  0.49962565  0.66985790  0.11760282  1
  In  In65  1  0.49359436  0.67730237  0.64112722  1
  In  In66  1  0.84751593  -0.00237774  0.12531335  1
  In  In67  1  0.82272811  0.00898036  0.62157333  1
  In  In68  1  0.82406751  0.34219162  0.12708994  1
  In  In69  1  0.82818241  0.33444548  0.62528917  1
  In  In70  1  0.84224262  0.67603944  0.11499565  1
  In  In71  1  0.83991387  0.65389573  0.63084844  1
  In  In72  1  0.16821488  0.50673484  0.50896140  1
  In  In73  1  0.16536530  0.16174660  0.49779877  1
  In  In74  1  -0.00036236  0.00399328  0.74473566  1
  In  In75  1  0.49869907  0.50263751  0.51332708  1
  In  In76  1  0.16753556  0.49569152  -0.00045305  1
  In  In77  1  0.67205471  0.00053422  0.25790473  1
  In  In78  1  0.66155578  0.00315325  0.75389549  1
  In  In79  1  0.16997149  0.83765417  -0.00282955  1
  In  In80  1  0.51075832  0.50498381  -0.01083184  1
  In  In81  1  0.66844409  0.66077053  0.24549710  1
  In  In82  1  0.83196704  0.16556637  0.00075271  1
  In  In83  1  0.83110194  0.83669233  0.49947086  1
  In  In84  1  0.32984308  0.00131926  0.24382073  1
  In  In85  1  0.32726814  0.65980981  0.25233890  1
  Cu  Cu86  1  0.33610525  0.33183388  0.50268646  1
  Cu  Cu87  1  0.84163711  0.83068202  0.24544522  1
  Cu  Cu88  1  0.49761005  0.16040475  0.74795470  1
  Cu  Cu89  1  0.66549060  0.33859080  0.50370942  1
  Cu  Cu90  1  -0.00364573  0.66067815  -0.00165683  1
  Cu  Cu91  1  0.83807432  0.17409257  0.24682555  1
  Cu  Cu92  1  0.83236937  0.82720193  0.75516317  1
  Cu  Cu93  1  0.00050656  0.33787796  -0.00131004  1
  Cu  Cu94  1  0.66530695  0.33179999  -0.00298307  1
  Cu  Cu95  1  0.66236841  0.00900824  0.49997409  1
  Cu  Cu96  1  0.16281833  0.16723692  0.25279507  1
  Cu  Cu97  1  0.66311988  -0.00574363  -0.00080549  1
  Cu  Cu98  1  0.16732494  0.16932200  0.75052079  1
  Cu  Cu99  1  0.33889407  -0.00671694  0.50514108  1
  Cu  Cu100  1  0.00026181  -0.00004787  0.00193507  1
  Cu  Cu101  1  0.00497613  -0.00169016  0.49893730  1
  Cu  Cu102  1  0.49963069  0.17063968  0.24820076  1
  Cu  Cu103  1  0.33849570  0.33143746  -0.00494604  1
  Cu  Cu104  1  0.66365812  0.66815410  0.50547520  1
  Cu  Cu105  1  0.83781431  0.49832690  0.74943033  1
  Cu  Cu106  1  0.49777500  0.49237050  0.25000751  1
  Cu  Cu107  1  0.33895144  0.67480425  -0.00574472  1
  Cu  Cu108  1  0.15975249  0.49753360  0.75043261  1
  Cu  Cu109  1  0.16082562  0.83219707  0.25057809  1
  Cu  Cu110  1  -0.00180053  0.66303182  0.50331155  1
  Cu  Cu111  1  0.49979371  0.83923716  0.75142935  1
  Cu  Cu112  1  0.83520415  0.49522384  0.25200730  1
  Cu  Cu113  1  -0.01374044  0.33249472  0.49495238  1
  Cu  Cu114  1  0.33739404  0.00942810  -0.00437091  1
  Se  Se115  1  0.08544330  0.08740674  0.04806798  1
  Se  Se116  1  0.08012101  0.07629309  0.56528938  1
  Se  Se117  1  0.07873803  0.41324934  0.06452240  1
  Se  Se118  1  0.07214541  0.40762559  0.55565146  1
  Se  Se119  1  0.08119295  0.74232638  0.05602001  1
  Se  Se120  1  0.08374145  0.74488390  0.55405769  1
  Se  Se121  1  0.42187182  0.08881950  0.05175630  1
  Se  Se122  1  0.41780142  0.08630062  0.55171541  1
  Se  Se123  1  0.41785448  0.41655372  0.05327247  1
  Se  Se124  1  0.40632081  0.41094510  0.56934815  1
  Se  Se125  1  0.42190377  0.75598484  0.04815875  1
  Se  Se126  1  0.43307104  0.75710892  0.56135734  1
  Se  Se127  1  0.74243456  0.07422617  0.06273634  1
  Se  Se128  1  0.75084596  0.09058680  0.54788230  1
  Se  Se129  1  0.75020840  0.41550517  0.04794498  1
  Se  Se130  1  0.74831488  0.42236240  0.55601205  1
  Se  Se131  1  0.75347776  0.75192234  0.04964821  1
  Se  Se132  1  0.74651114  0.74905332  0.56477108  1
  Se  Se133  1  0.24891574  0.25832548  0.05173023  1
  Se  Se134  1  0.25084089  0.25278830  0.56088278  1
  Se  Se135  1  0.26098040  0.59347878  0.05500200  1
  Se  Se136  1  0.26357593  0.59132570  0.56576448  1
  Se  Se137  1  0.25938029  0.92920693  0.05967855  1
  Se  Se138  1  0.25420257  0.91046128  0.55604136  1
  Se  Se139  1  0.57998546  0.25084320  0.04979968  1
  Se  Se140  1  0.57690950  0.25562591  0.55239475  1
  Se  Se141  1  0.59679625  0.59180485  0.05538919  1
  Se  Se142  1  0.59055510  0.59002803  0.57161078  1
  Se  Se143  1  0.57892591  0.91412087  0.05452791  1
  Se  Se144  1  0.58425527  0.91703387  0.54904794  1
  Se  Se145  1  0.92138840  0.25547999  0.06100390  1
  Se  Se146  1  0.90859057  0.24969325  0.55246859  1
  Se  Se147  1  0.91993378  0.57602603  0.05560418  1
  Se  Se148  1  0.91092791  0.57955357  0.55077234  1
  Se  Se149  1  0.91910301  0.91260500  0.05219697  1
  Se  Se150  1  0.92320589  0.92231220  0.56253356  1
  Se  Se151  1  0.08087314  0.25988875  0.43990720  1
  Se  Se152  1  0.08782924  0.25526485  0.95006535  1
  Se  Se153  1  0.07599804  0.58272007  0.44020473  1
  Se  Se154  1  0.08687215  0.59253213  0.93766951  1
  Se  Se155  1  0.08595711  0.90914310  0.45079068  1
  Se  Se156  1  0.07683011  0.92296287  0.93583583  1
  Se  Se157  1  0.41954123  0.24999697  0.44927501  1
  Se  Se158  1  0.42247563  0.24849660  0.94269187  1
  Se  Se159  1  0.40543992  0.58975749  0.45105992  1
  Se  Se160  1  0.41195229  0.59001691  0.93370867  1
  Se  Se161  1  0.41921474  0.91255842  0.44573659  1
  Se  Se162  1  0.41439572  0.91836610  0.94407258  1
  Se  Se163  1  0.74623959  0.25483551  0.44658416  1
  Se  Se164  1  0.74843272  0.25401657  0.93595169  1
  Se  Se165  1  0.74662057  0.58279746  0.45462099  1
  Se  Se166  1  0.74525675  0.58008237  0.94344421  1
  Se  Se167  1  0.74267536  0.92875944  0.43711936  1
  Se  Se168  1  0.75296362  0.91430311  0.95059116  1
  Se  Se169  1  0.25884834  0.07024187  0.43962777  1
  Se  Se170  1  0.25063030  0.09000441  0.94455469  1
  Se  Se171  1  0.25291280  0.41038222  0.44505760  1
  Se  Se172  1  0.26407258  0.41853009  0.93582284  1
  Se  Se173  1  0.24645692  0.74588938  0.45501565  1
  Se  Se174  1  0.25685768  0.75056127  0.93385237  1
  Se  Se175  1  0.57585290  0.08888024  0.44660654  1
  Se  Se176  1  0.58488955  0.08554077  0.94997045  1
  Se  Se177  1  0.58223427  0.41753597  0.44235085  1
  Se  Se178  1  0.59263206  0.40950371  0.92984275  1
  Se  Se179  1  0.58109979  0.75047971  0.45207729  1
  Se  Se180  1  0.57520603  0.74490705  0.94746476  1
  Se  Se181  1  0.92242301  0.08583420  0.44979144  1
  Se  Se182  1  0.92232480  0.07851165  0.93762231  1
  Se  Se183  1  0.90826095  0.42232165  0.44392250  1
  Se  Se184  1  0.91511782  0.42038418  0.94847483  1
  Se  Se185  1  0.91938705  0.74451718  0.43993232  1
  Se  Se186  1  0.91607694  0.74731204  0.94557779  1
  Se  Se187  1  0.25193214  0.24737749  0.30310079  1
  Se  Se188  1  0.25074977  0.25187527  0.80503434  1
  Se  Se189  1  0.23991504  0.57463795  0.31598341  1
  Se  Se190  1  0.24780370  0.58292080  0.79775239  1
  Se  Se191  1  0.24742258  0.90803098  0.30919832  1
  Se  Se192  1  0.23752908  0.90924160  0.79795508  1
  Se  Se193  1  0.58461993  0.25303173  0.30134602  1
  Se  Se194  1  0.58350042  0.24339853  0.79913935  1
  Se  Se195  1  0.57437377  0.57664344  0.31051430  1
  Se  Se196  1  0.56241933  0.56487548  0.80120749  1
  Se  Se197  1  0.57558164  0.90515917  0.30581577  1
  Se  Se198  1  0.58252275  0.90997549  0.81786791  1
  Se  Se199  1  0.91854397  0.25485186  0.30565843  1
  Se  Se200  1  0.91787168  0.24988546  0.80072358  1
  Se  Se201  1  0.91273140  0.58493661  0.30436731  1
  Se  Se202  1  0.91864493  0.58416496  0.80440149  1
  Se  Se203  1  0.91831517  0.91832318  0.30080835  1
  Se  Se204  1  0.91091176  0.91423166  0.81031509  1
  Se  Se205  1  0.08256269  0.08165045  0.30608428  1
  Se  Se206  1  0.08659110  0.08998717  0.81189030  1
  Se  Se207  1  0.07792419  0.41398806  0.29827380  1
  Se  Se208  1  0.07889808  0.41476824  0.80651383  1
  Se  Se209  1  0.07960219  0.74896964  0.30527113  1
  Se  Se210  1  0.07661199  0.75027001  0.79265140  1
  Se  Se211  1  0.42123996  0.08799932  0.30780106  1
  Se  Se212  1  0.41524812  0.07887581  0.80379363  1
  Se  Se213  1  0.41277877  0.41202540  0.30383020  1
  Se  Se214  1  0.40633936  0.39816446  0.79464513  1
  Se  Se215  1  0.41952581  0.75119651  0.30913615  1
  Se  Se216  1  0.41404282  0.75045280  0.79950207  1
  Se  Se217  1  0.75998604  0.09677318  0.31296616  1
  Se  Se218  1  0.75967055  0.09637436  0.80344807  1
  Se  Se219  1  0.74591943  0.41610028  0.30364271  1
  Se  Se220  1  0.75208480  0.41404631  0.80046720  1
  Se  Se221  1  0.75782098  0.75580585  0.30688888  1
  Se  Se222  1  0.74787771  0.74485959  0.80746279  1
  Se  Se223  1  0.24086523  0.09265745  0.18569998  1
  Se  Se224  1  0.25052589  0.08132703  0.70203742  1
  Se  Se225  1  0.24771392  0.42291679  0.20180452  1
  Se  Se226  1  0.24759226  0.41510871  0.70044311  1
  Se  Se227  1  0.24043158  0.75484142  0.18845210  1
  Se  Se228  1  0.25760905  0.74714784  0.69916437  1
  Se  Se229  1  0.58040921  0.08586310  0.19206290  1
  Se  Se230  1  0.57816323  0.08439094  0.68355526  1
  Se  Se231  1  0.58696864  0.41491452  0.19743860  1
  Se  Se232  1  0.57508934  0.42145646  0.70579502  1
  Se  Se233  1  0.57514989  0.75471553  0.19364447  1
  Se  Se234  1  0.58974761  0.75532299  0.70481719  1
  Se  Se235  1  0.91793747  0.08438806  0.19693745  1
  Se  Se236  1  0.90486411  0.09479210  0.69114034  1
  Se  Se237  1  0.91644074  0.41169783  0.19657368  1
  Se  Se238  1  0.91769179  0.41471296  0.69286651  1
  Se  Se239  1  0.92196205  0.74211369  0.19478784  1
  Se  Se240  1  0.91421035  0.74495575  0.69954208  1
  Se  Se241  1  0.08291969  0.24888355  0.19479609  1
  Se  Se242  1  0.08133474  0.25128166  0.69852483  1
  Se  Se243  1  0.08900287  0.57717947  0.20581280  1
  Se  Se244  1  0.08233064  0.58199818  0.69273145  1
  Se  Se245  1  0.07965571  0.91858108  0.19760824  1
  Se  Se246  1  0.08738421  0.90833647  0.69055388  1
  Se  Se247  1  0.41598518  0.25219794  0.19300485  1
  Se  Se248  1  0.41486517  0.24493237  0.69448939  1
  Se  Se249  1  0.42335352  0.57559654  0.18819926  1
  Se  Se250  1  0.43415979  0.57550281  0.70809544  1
  Se  Se251  1  0.42538416  0.90618962  0.19544013  1
  Se  Se252  1  0.41606887  0.92118022  0.69738347  1
  Se  Se253  1  0.74815563  0.25201423  0.19610750  1
  Se  Se254  1  0.73610607  0.26018524  0.69285824  1
  Se  Se255  1  0.75913655  0.57418104  0.18583610  1
  Se  Se256  1  0.74966442  0.58256843  0.70031808  1
  Se  Se257  1  0.75400533  0.90959181  0.18998810  1
  Se  Se258  1  0.75725936  0.91150502  0.69426249  1
