# generated using pymatgen
data_In86Cu29Se144
_symmetry_space_group_name_H-M   'P 1'
_cell_length_a   17.59712001
_cell_length_b   17.59361763
_cell_length_c   23.46058656
_cell_angle_alpha   89.98483010
_cell_angle_beta   90.00680809
_cell_angle_gamma   89.98279449
_symmetry_Int_Tables_number   1
_chemical_formula_structural   In86Cu29Se144
_chemical_formula_sum   'In86 Cu29 Se144'
_cell_volume   7263.32660220
_cell_formula_units_Z   1
loop_
 _symmetry_equiv_pos_site_id
 _symmetry_equiv_pos_as_xyz
  1  'x, y, z'
loop_
 _atom_site_type_symbol
 _atom_site_label
 _atom_site_symmetry_multiplicity
 _atom_site_fract_x
 _atom_site_fract_y
 _atom_site_fract_z
 _atom_site_occupancy
  In  In0  1  -0.01282947  0.16051214  0.11862777  1
  In  In1  1  -0.00016750  0.16670156  0.62366131  1
  In  In2  1  -0.00135321  0.51336968  0.12425310  1
  In  In3  1  0.00849316  0.48850882  0.64001172  1
  In  In4  1  -0.00114480  0.84430308  0.12533252  1
  In  In5  1  -0.00492913  0.83491198  0.63421736  1
  In  In6  1  0.34724310  0.19567973  0.10137721  1
  In  In7  1  0.34071326  0.18786995  0.61267664  1
  In  In8  1  0.35653568  0.50109747  0.11793675  1
  In  In9  1  0.33333349  0.49126651  0.62209764  1
  In  In10  1  0.32186522  0.82112885  0.12316869  1
  In  In11  1  0.32637134  0.82615890  0.62854889  1
  In  In12  1  0.68356750  0.18362657  0.11902871  1
  In  In13  1  0.66263275  0.16286621  0.62756678  1
  In  In14  1  0.66277939  0.49047989  0.11838549  1
  In  In15  1  0.66980648  0.51066526  0.62852259  1
  In  In16  1  0.67235156  0.82254032  0.12105606  1
  In  In17  1  0.67207485  0.82501576  0.63402136  1
  In  In18  1  0.16369541  0.01316537  0.37525029  1
  In  In19  1  0.16355491  0.01602985  0.86908938  1
  In  In20  1  0.17395100  0.33481325  0.39052194  1
  In  In21  1  0.15912809  0.32980911  0.86627189  1
  In  In22  1  0.15836885  0.65886819  0.37553809  1
  In  In23  1  0.16752265  0.66501424  0.86971609  1
  In  In24  1  0.51200744  0.01214107  0.37598679  1
  In  In25  1  0.51340899  0.00250145  0.87182670  1
  In  In26  1  0.50254037  0.32907994  0.38493849  1
  In  In27  1  0.48765157  0.34399449  0.88204225  1
  In  In28  1  0.48773416  0.66189866  0.37076803  1
  In  In29  1  0.48675425  0.64626026  0.87165370  1
  In  In30  1  0.84566645  0.00287566  0.36983354  1
  In  In31  1  0.83409989  0.00080186  0.87298771  1
  In  In32  1  0.81806778  0.33256959  0.36682336  1
  In  In33  1  0.83993374  0.32887743  0.87881050  1
  In  In34  1  0.84334625  0.64681532  0.36949622  1
  In  In35  1  0.83477653  0.66490422  0.87847738  1
  In  In36  1  0.00564914  0.16377584  0.37502181  1
  In  In37  1  -0.00190764  0.16646607  0.86977506  1
  In  In38  1  0.00062292  0.50898524  0.37425592  1
  In  In39  1  -0.01165004  0.49128440  0.86261591  1
  In  In40  1  -0.00448636  0.82934010  0.36734230  1
  In  In41  1  -0.01360097  0.82221606  0.86789710  1
  In  In42  1  0.33117855  0.17880793  0.38775969  1
  In  In43  1  0.32067954  0.18358007  0.88584615  1
  In  In44  1  0.32607268  0.49865331  0.38891648  1
  In  In45  1  0.34111436  0.50420904  0.87178945  1
  In  In46  1  0.33853447  0.82309824  0.37545271  1
  In  In47  1  0.34013937  0.81971067  0.87496661  1
  In  In48  1  0.65956329  0.17658430  0.38222869  1
  In  In49  1  0.67456114  0.16114474  0.87893590  1
  In  In50  1  0.66768474  0.47831202  0.37289312  1
  In  In51  1  0.66040246  0.50648892  0.87960525  1
  In  In52  1  0.66952541  0.83687533  0.37365225  1
  In  In53  1  0.67215949  0.84066972  0.87323939  1
  In  In54  1  0.15409977  0.00707141  0.12501651  1
  In  In55  1  0.15244761  0.00620599  0.62845421  1
  In  In56  1  0.18017422  0.32828652  0.12016026  1
  In  In57  1  0.16381520  0.33402915  0.62277826  1
  In  In58  1  0.16589530  0.65837181  0.13140919  1
  In  In59  1  0.18025601  0.65240907  0.63604405  1
  In  In60  1  0.48828840  0.01129916  0.12709921  1
  In  In61  1  0.49993531  0.01496768  0.62963828  1
  In  In62  1  0.51530529  0.34930514  0.11251008  1
  In  In63  1  0.48934985  0.33105904  0.61899141  1
  In  In64  1  0.49430316  0.64518920  0.12200330  1
  In  In65  1  0.50760448  0.65221993  0.63058076  1
  In  In66  1  0.85139381  0.01503348  0.11492459  1
  In  In67  1  0.82399161  0.00687356  0.63309037  1
  In  In68  1  0.82266956  0.32383728  0.11903317  1
  In  In69  1  0.85750986  0.33276485  0.63195282  1
  In  In70  1  0.83942598  0.67791393  0.11094962  1
  In  In71  1  0.83544562  0.65083286  0.64350466  1
  In  In72  1  0.83371609  0.83379040  0.49581689  1
  In  In73  1  0.16112982  0.83480139  0.51069975  1
  In  In74  1  0.50729945  0.83673145  -0.00115983  1
  In  In75  1  0.83371687  0.49208024  0.49958217  1
  In  In76  1  0.33602278  0.33839563  0.25382303  1
  In  In77  1  -0.00463770  0.33668716  0.24794919  1
  In  In78  1  0.66766390  0.33532461  0.76001362  1
  In  In79  1  0.16429895  0.83691399  -0.00671872  1
  In  In80  1  0.67176575  0.66124874  0.24799933  1
  In  In81  1  0.50182895  0.83994006  0.49755673  1
  In  In82  1  0.33337062  0.00162677  0.74757377  1
  In  In83  1  0.66970753  -0.00002470  0.24907693  1
  In  In84  1  0.32159082  0.00698405  0.25177256  1
  In  In85  1  0.16853440  0.49395596  0.00002958  1
  Cu  Cu86  1  0.33358008  0.00852361  -0.00188505  1
  Cu  Cu87  1  0.66728544  0.33258553  -0.00652472  1
  Cu  Cu88  1  0.16596492  0.83150146  0.74948821  1
  Cu  Cu89  1  0.33360215  0.66028708  0.50499113  1
  Cu  Cu90  1  0.66693833  0.32916847  0.50400279  1
  Cu  Cu91  1  0.83267839  0.83302403  0.75531790  1
  Cu  Cu92  1  0.66633640  0.66462910  -0.00252176  1
  Cu  Cu93  1  0.16171469  0.16293369  0.24742348  1
  Cu  Cu94  1  0.00126408  0.32851653  0.50329424  1
  Cu  Cu95  1  0.67141332  0.00173040  -0.00241612  1
  Cu  Cu96  1  0.49419706  0.49438195  0.74955679  1
  Cu  Cu97  1  0.33324359  0.01217096  0.50152291  1
  Cu  Cu98  1  0.00635722  0.65508998  0.50384439  1
  Cu  Cu99  1  0.66588631  0.01355439  0.50676028  1
  Cu  Cu100  1  0.50365127  0.82416296  0.75569188  1
  Cu  Cu101  1  0.17053699  0.50330828  0.25482572  1
  Cu  Cu102  1  0.66595999  0.66519829  0.50598280  1
  Cu  Cu103  1  0.50556872  0.17709169  0.25400046  1
  Cu  Cu104  1  0.16312089  0.82598019  0.24861958  1
  Cu  Cu105  1  -0.00526025  0.00350924  -0.00324307  1
  Cu  Cu106  1  0.83622324  0.16555354  0.75318727  1
  Cu  Cu107  1  0.84115194  0.83159712  0.24255307  1
  Cu  Cu108  1  -0.00052006  0.33075651  -0.00659369  1
  Cu  Cu109  1  0.16819678  0.49795532  0.75121222  1
  Cu  Cu110  1  -0.00222950  0.00689368  0.49894212  1
  Cu  Cu111  1  0.00036377  0.66669560  -0.00442003  1
  Cu  Cu112  1  0.49793779  0.16897916  0.74835097  1
  Cu  Cu113  1  0.16316474  0.17355114  0.74646023  1
  Cu  Cu114  1  0.48893978  0.82405936  0.24678699  1
  Se  Se115  1  0.07943660  0.08536789  0.05019602  1
  Se  Se116  1  0.08426716  0.08636661  0.55181315  1
  Se  Se117  1  0.07410457  0.40771624  0.06084543  1
  Se  Se118  1  0.07555023  0.41930796  0.55676487  1
  Se  Se119  1  0.08187293  0.74370575  0.05761384  1
  Se  Se120  1  0.07629968  0.73851732  0.56796226  1
  Se  Se121  1  0.42220869  0.08843630  0.04869795  1
  Se  Se122  1  0.42137541  0.08806587  0.55517218  1
  Se  Se123  1  0.38766876  0.37973773  0.06152270  1
  Se  Se124  1  0.42234954  0.42348241  0.54981344  1
  Se  Se125  1  0.41565524  0.74551921  0.05603164  1
  Se  Se126  1  0.41581153  0.74651063  0.55889670  1
  Se  Se127  1  0.75235560  0.08612117  0.05294232  1
  Se  Se128  1  0.75552608  0.09097012  0.55771703  1
  Se  Se129  1  0.75055380  0.41488615  0.04889214  1
  Se  Se130  1  0.74740244  0.40672409  0.56653775  1
  Se  Se131  1  0.74931824  0.75515245  0.04288087  1
  Se  Se132  1  0.75424725  0.73992095  0.56121150  1
  Se  Se133  1  0.23382934  0.24165805  0.04221045  1
  Se  Se134  1  0.23841023  0.24950664  0.55059990  1
  Se  Se135  1  0.25652714  0.58708390  0.05877589  1
  Se  Se136  1  0.24675461  0.57896401  0.55554117  1
  Se  Se137  1  0.25506677  0.92608313  0.05785474  1
  Se  Se138  1  0.25865273  0.92898916  0.56202707  1
  Se  Se139  1  0.58658579  0.24932007  0.05093945  1
  Se  Se140  1  0.58338985  0.24777208  0.55894718  1
  Se  Se141  1  0.58360902  0.57991312  0.04980924  1
  Se  Se142  1  0.58318323  0.57750330  0.55318943  1
  Se  Se143  1  0.59064077  0.92919475  0.06409940  1
  Se  Se144  1  0.59262511  0.92188534  0.56326393  1
  Se  Se145  1  0.91458331  0.25057425  0.04996847  1
  Se  Se146  1  0.91402910  0.24700602  0.55328735  1
  Se  Se147  1  0.91720787  0.58214435  0.04782466  1
  Se  Se148  1  0.91897515  0.58236683  0.56311659  1
  Se  Se149  1  0.91667185  0.91425866  0.04939387  1
  Se  Se150  1  0.92044051  0.92272245  0.55861512  1
  Se  Se151  1  0.08257931  0.24639485  0.44680812  1
  Se  Se152  1  0.08183824  0.24905459  0.93933513  1
  Se  Se153  1  0.08826803  0.57343551  0.44985862  1
  Se  Se154  1  0.07950270  0.58308320  0.93863471  1
  Se  Se155  1  0.07463528  0.91816757  0.44168751  1
  Se  Se156  1  0.07395718  0.92489863  0.93356563  1
  Se  Se157  1  0.42211905  0.24842875  0.45402766  1
  Se  Se158  1  0.42966694  0.23836402  0.94533274  1
  Se  Se159  1  0.42031560  0.58454108  0.44890582  1
  Se  Se160  1  0.41712066  0.57411726  0.95076074  1
  Se  Se161  1  0.40778635  0.93081442  0.43847740  1
  Se  Se162  1  0.41035528  0.92445164  0.93890638  1
  Se  Se163  1  0.75335109  0.25371148  0.44703333  1
  Se  Se164  1  0.75447245  0.24773177  0.94594579  1
  Se  Se165  1  0.74417613  0.58739848  0.44116254  1
  Se  Se166  1  0.75219022  0.58081221  0.94720204  1
  Se  Se167  1  0.74055735  0.93163396  0.44318068  1
  Se  Se168  1  0.75341134  0.91790974  0.94524789  1
  Se  Se169  1  0.24481885  0.08760532  0.44739906  1
  Se  Se170  1  0.24405060  0.08406411  0.94548074  1
  Se  Se171  1  0.26122008  0.40621360  0.45953528  1
  Se  Se172  1  0.25298495  0.40913349  0.93459814  1
  Se  Se173  1  0.25266061  0.74656483  0.44880081  1
  Se  Se174  1  0.25711597  0.73773980  0.94637052  1
  Se  Se175  1  0.57933173  0.09158497  0.45249638  1
  Se  Se176  1  0.58451317  0.08306266  0.94710899  1
  Se  Se177  1  0.58694525  0.41644480  0.45166650  1
  Se  Se178  1  0.58052525  0.41952390  0.94722196  1
  Se  Se179  1  0.59129757  0.74352029  0.44039765  1
  Se  Se180  1  0.58432900  0.74165407  0.93473983  1
  Se  Se181  1  0.91437461  0.08701973  0.44394189  1
  Se  Se182  1  0.91400436  0.08763864  0.94118215  1
  Se  Se183  1  0.92408230  0.40556833  0.43683829  1
  Se  Se184  1  0.91882994  0.42067674  0.94481572  1
  Se  Se185  1  0.92585547  0.73509459  0.44326953  1
  Se  Se186  1  0.91438205  0.75363318  0.94886216  1
  Se  Se187  1  0.24044279  0.24398023  0.30882748  1
  Se  Se188  1  0.25145623  0.24932063  0.80128015  1
  Se  Se189  1  0.25295150  0.58092228  0.31321004  1
  Se  Se190  1  0.25211374  0.58153803  0.80372463  1
  Se  Se191  1  0.24018529  0.90660023  0.31276944  1
  Se  Se192  1  0.24716195  0.90980881  0.81163710  1
  Se  Se193  1  0.58683531  0.25968950  0.30804437  1
  Se  Se194  1  0.57490784  0.24396756  0.81478651  1
  Se  Se195  1  0.58236802  0.57603993  0.31027883  1
  Se  Se196  1  0.57937723  0.57679415  0.80223953  1
  Se  Se197  1  0.56981598  0.90631933  0.30467381  1
  Se  Se198  1  0.58481763  0.91505651  0.80142154  1
  Se  Se199  1  0.91095566  0.24239584  0.30697542  1
  Se  Se200  1  0.91758779  0.25464298  0.80195137  1
  Se  Se201  1  0.92560025  0.57937685  0.29599564  1
  Se  Se202  1  0.93071206  0.60353161  0.80785857  1
  Se  Se203  1  0.91899349  0.91673191  0.29923594  1
  Se  Se204  1  0.91836868  0.92059094  0.80246474  1
  Se  Se205  1  0.07934885  0.07929858  0.29984820  1
  Se  Se206  1  0.07996789  0.08627715  0.79587913  1
  Se  Se207  1  0.09463015  0.41519729  0.31166449  1
  Se  Se208  1  0.07907284  0.41335208  0.79732568  1
  Se  Se209  1  0.08163015  0.74406146  0.30506589  1
  Se  Se210  1  0.08351298  0.74965231  0.80421599  1
  Se  Se211  1  0.42052278  0.09455027  0.30948919  1
  Se  Se212  1  0.41741106  0.09003097  0.81178466  1
  Se  Se213  1  0.42173018  0.42349996  0.31812031  1
  Se  Se214  1  0.41112386  0.41056372  0.80165130  1
  Se  Se215  1  0.40677356  0.74159628  0.29959417  1
  Se  Se216  1  0.41546894  0.74077251  0.80208228  1
  Se  Se217  1  0.75039606  0.09128975  0.31215159  1
  Se  Se218  1  0.74897558  0.08263880  0.80305522  1
  Se  Se219  1  0.77686133  0.44643495  0.30517450  1
  Se  Se220  1  0.75820526  0.42655859  0.81478805  1
  Se  Se221  1  0.76247114  0.75676455  0.30847546  1
  Se  Se222  1  0.75050901  0.74919795  0.80910957  1
  Se  Se223  1  0.25018387  0.09862052  0.18237124  1
  Se  Se224  1  0.24832302  0.09436735  0.68659107  1
  Se  Se225  1  0.24632251  0.42599219  0.19054967  1
  Se  Se226  1  0.24748063  0.41476542  0.69339904  1
  Se  Se227  1  0.24920465  0.74351629  0.19859215  1
  Se  Se228  1  0.25383097  0.74697393  0.70268513  1
  Se  Se229  1  0.57869469  0.09283811  0.19230780  1
  Se  Se230  1  0.58594443  0.08332465  0.70305503  1
  Se  Se231  1  0.57518075  0.42569267  0.19310835  1
  Se  Se232  1  0.57926888  0.41587344  0.69123541  1
  Se  Se233  1  0.57562275  0.75112457  0.18873390  1
  Se  Se234  1  0.58421025  0.74266100  0.69724527  1
  Se  Se235  1  0.92116968  0.08056943  0.19667658  1
  Se  Se236  1  0.91847815  0.08413492  0.69544665  1
  Se  Se237  1  0.90937184  0.42078529  0.18311148  1
  Se  Se238  1  0.89475111  0.44012066  0.69936775  1
  Se  Se239  1  0.92121250  0.74806660  0.18772051  1
  Se  Se240  1  0.91509468  0.74924211  0.70083670  1
  Se  Se241  1  0.08760711  0.24788464  0.18721008  1
  Se  Se242  1  0.07746090  0.25435878  0.69269186  1
  Se  Se243  1  0.08180968  0.58065947  0.20119403  1
  Se  Se244  1  0.08274838  0.58613457  0.70228292  1
  Se  Se245  1  0.08735915  0.91652986  0.19644900  1
  Se  Se246  1  0.08328299  0.91720806  0.69888793  1
  Se  Se247  1  0.42211109  0.24905416  0.19096041  1
  Se  Se248  1  0.41526852  0.25192214  0.69541631  1
  Se  Se249  1  0.41285458  0.58181870  0.19911523  1
  Se  Se250  1  0.41214379  0.57791760  0.69354712  1
  Se  Se251  1  0.41179917  0.91145589  0.19154654  1
  Se  Se252  1  0.42699735  0.90609677  0.69117786  1
  Se  Se253  1  0.74834099  0.25557867  0.19973362  1
  Se  Se254  1  0.75596726  0.24848891  0.69381275  1
  Se  Se255  1  0.75610336  0.58437191  0.17794523  1
  Se  Se256  1  0.73491577  0.58774307  0.70691240  1
  Se  Se257  1  0.75720783  0.91137618  0.18608755  1
  Se  Se258  1  0.74928740  0.91503345  0.69928712  1
