# generated using pymatgen
data_In86Cu29Se144
_symmetry_space_group_name_H-M   'P 1'
_cell_length_a   17.58336487
_cell_length_b   17.58767438
_cell_length_c   23.44825234
_cell_angle_alpha   89.98960320
_cell_angle_beta   90.00120399
_cell_angle_gamma   89.99606935
_symmetry_Int_Tables_number   1
_chemical_formula_structural   In86Cu29Se144
_chemical_formula_sum   'In86 Cu29 Se144'
_cell_volume   7251.38352373
_cell_formula_units_Z   1
loop_
 _symmetry_equiv_pos_site_id
 _symmetry_equiv_pos_as_xyz
  1  'x, y, z'
loop_
 _atom_site_type_symbol
 _atom_site_label
 _atom_site_symmetry_multiplicity
 _atom_site_fract_x
 _atom_site_fract_y
 _atom_site_fract_z
 _atom_site_occupancy
  In  In0  1  -0.01661025  0.15965550  0.12148621  1
  In  In1  1  -0.00979564  0.16215963  0.62498928  1
  In  In2  1  0.01198919  0.50017133  0.12514324  1
  In  In3  1  0.01299060  0.51289304  0.61494604  1
  In  In4  1  -0.00097797  0.83050960  0.13592632  1
  In  In5  1  -0.01628829  0.83943161  0.63574483  1
  In  In6  1  0.33768757  0.16386717  0.13143689  1
  In  In7  1  0.32780531  0.15639499  0.62501309  1
  In  In8  1  0.33173127  0.50228873  0.12887877  1
  In  In9  1  0.33388913  0.49846376  0.61596014  1
  In  In10  1  0.33803445  0.82806723  0.13071208  1
  In  In11  1  0.34712277  0.83158180  0.62174846  1
  In  In12  1  0.67003762  0.16322200  0.12704986  1
  In  In13  1  0.67196328  0.16259372  0.63533015  1
  In  In14  1  0.65081925  0.49842698  0.12007461  1
  In  In15  1  0.66682497  0.50141635  0.62635186  1
  In  In16  1  0.66827193  0.84352358  0.12156314  1
  In  In17  1  0.66955074  0.83107753  0.62610214  1
  In  In18  1  0.16435914  -0.00110516  0.36849942  1
  In  In19  1  0.16492427  -0.00907559  0.86878106  1
  In  In20  1  0.17701615  0.33189947  0.37401033  1
  In  In21  1  0.17912201  0.33973048  0.87875278  1
  In  In22  1  0.15831063  0.65883380  0.36991868  1
  In  In23  1  0.15905057  0.66523331  0.87373691  1
  In  In24  1  0.49681124  -0.00441206  0.36919265  1
  In  In25  1  0.49251947  -0.01433584  0.87253218  1
  In  In26  1  0.50946551  0.34225965  0.36631215  1
  In  In27  1  0.51987059  0.34034515  0.88244895  1
  In  In28  1  0.49342426  0.67669366  0.38005541  1
  In  In29  1  0.51527450  0.65696675  0.89052182  1
  In  In30  1  0.82582410  -0.00553844  0.37464586  1
  In  In31  1  0.83580595  0.00244801  0.86912867  1
  In  In32  1  0.83230061  0.34894551  0.37595622  1
  In  In33  1  0.80914102  0.33190340  0.87901826  1
  In  In34  1  0.84101784  0.66222972  0.38297119  1
  In  In35  1  0.83098698  0.66975575  0.85809215  1
  In  In36  1  0.00785776  0.16430455  0.37464965  1
  In  In37  1  -0.00395642  0.14991428  0.87315692  1
  In  In38  1  -0.01429539  0.50769376  0.38854108  1
  In  In39  1  0.00374346  0.50977255  0.87188940  1
  In  In40  1  -0.00479853  0.83062536  0.37614814  1
  In  In41  1  -0.00983252  0.82947746  0.85737453  1
  In  In42  1  0.33034040  0.16698878  0.36320273  1
  In  In43  1  0.34228633  0.15650293  0.87896722  1
  In  In44  1  0.33377166  0.50289519  0.37316019  1
  In  In45  1  0.33604862  0.50629247  0.88409848  1
  In  In46  1  0.34191796  0.84058550  0.36724072  1
  In  In47  1  0.34468762  0.84535365  0.87482405  1
  In  In48  1  0.66055921  0.16094977  0.36663958  1
  In  In49  1  0.67425414  0.17832640  0.87430014  1
  In  In50  1  0.67234995  0.49797481  0.37997531  1
  In  In51  1  0.66300435  0.50346273  0.86964614  1
  In  In52  1  0.66020486  0.83997172  0.38297436  1
  In  In53  1  0.65654689  0.81563661  0.85701901  1
  In  In54  1  0.16847893  -0.00967040  0.13240855  1
  In  In55  1  0.16465841  0.00004564  0.63004031  1
  In  In56  1  0.16624117  0.34886174  0.12423573  1
  In  In57  1  0.15954665  0.35073906  0.62336780  1
  In  In58  1  0.17509265  0.66291295  0.13451871  1
  In  In59  1  0.15980247  0.64643527  0.62499617  1
  In  In60  1  0.50079450  -0.00142147  0.12550768  1
  In  In61  1  0.51438219  -0.01286896  0.63386114  1
  In  In62  1  0.49444961  0.33931250  0.13207672  1
  In  In63  1  0.50379841  0.34739404  0.62318838  1
  In  In64  1  0.49430538  0.65339857  0.11600258  1
  In  In65  1  0.50891964  0.67715341  0.61641843  1
  In  In66  1  0.82192390  0.00045549  0.13239184  1
  In  In67  1  0.84636478  -0.01940781  0.64451414  1
  In  In68  1  0.83427203  0.31868285  0.12437452  1
  In  In69  1  0.82100354  0.32945548  0.62393769  1
  In  In70  1  0.83226533  0.67968513  0.12589765  1
  In  In71  1  0.83312183  0.66721556  0.62855907  1
  In  In72  1  0.33340257  0.66734016  0.74848900  1
  In  In73  1  -0.00118503  0.33433610  0.74540506  1
  In  In74  1  0.49932985  0.16564409  0.49325725  1
  In  In75  1  0.16421016  0.16534307  -0.00511396  1
  In  In76  1  0.50409450  0.16816778  0.00531264  1
  In  In77  1  0.82846003  0.50241973  -0.00933194  1
  In  In78  1  0.82703486  0.83411200  -0.00780374  1
  In  In79  1  0.16992472  0.82943750  -0.00212612  1
  In  In80  1  0.16541312  0.17321954  0.50270921  1
  In  In81  1  0.16366066  0.82844489  0.49333932  1
  In  In82  1  0.83295261  0.16923500  0.50230802  1
  In  In83  1  0.34202830  0.33082833  0.74656449  1
  In  In84  1  0.00260410  0.33298685  0.25205013  1
  In  In85  1  0.66661987  0.66511578  0.24770842  1
  Cu  Cu86  1  0.17078032  0.15884280  0.74978613  1
  Cu  Cu87  1  0.50126060  0.82990956  0.74701510  1
  Cu  Cu88  1  0.66728635  0.00527377  0.00101098  1
  Cu  Cu89  1  0.33583192  0.34109064  0.00584787  1
  Cu  Cu90  1  0.50082887  0.16210078  0.75856275  1
  Cu  Cu91  1  -0.00828070  -0.00359813  -0.00223955  1
  Cu  Cu92  1  0.33833790  -0.00511721  0.49465914  1
  Cu  Cu93  1  0.82969086  0.16901625  0.75088028  1
  Cu  Cu94  1  0.83538058  0.83121709  0.25403751  1
  Cu  Cu95  1  0.16776107  0.50296260  0.25101009  1
  Cu  Cu96  1  0.00364473  0.66274099  -0.00188445  1
  Cu  Cu97  1  0.83047895  0.49921876  0.74791461  1
  Cu  Cu98  1  -0.00178677  0.33422128  0.00351295  1
  Cu  Cu99  1  0.33518005  0.66481635  0.00862226  1
  Cu  Cu100  1  -0.00568611  0.67408167  0.50305092  1
  Cu  Cu101  1  0.16562458  0.83024054  0.74841921  1
  Cu  Cu102  1  0.50068476  0.16647897  0.24578163  1
  Cu  Cu103  1  0.16476911  0.16467113  0.24704139  1
  Cu  Cu104  1  0.50564617  0.50412226  0.75040387  1
  Cu  Cu105  1  0.67278200  -0.01204134  0.50748780  1
  Cu  Cu106  1  0.82971883  0.16005085  0.24898717  1
  Cu  Cu107  1  0.67071865  0.66278919  0.50303353  1
  Cu  Cu108  1  0.16550942  0.83585208  0.25509926  1
  Cu  Cu109  1  0.49437567  0.50219660  0.24857982  1
  Cu  Cu110  1  0.33494952  0.34406383  0.49558353  1
  Cu  Cu111  1  0.50195605  0.83362609  0.25009616  1
  Cu  Cu112  1  0.66310230  0.33697963  0.49940356  1
  Cu  Cu113  1  0.33494173  0.66238783  0.49835835  1
  Cu  Cu114  1  0.83374156  0.50160158  0.25692730  1
  Se  Se115  1  0.07819533  0.07172782  0.05761988  1
  Se  Se116  1  0.07617864  0.07607155  0.55629057  1
  Se  Se117  1  0.08395791  0.42001805  0.04922399  1
  Se  Se118  1  0.08503859  0.42046702  0.54704745  1
  Se  Se119  1  0.07807787  0.74452225  0.06105425  1
  Se  Se120  1  0.07933760  0.74831879  0.56397811  1
  Se  Se121  1  0.40616362  0.07749876  0.05529281  1
  Se  Se122  1  0.41686438  0.07340911  0.55815469  1
  Se  Se123  1  0.41875968  0.42255529  0.05967323  1
  Se  Se124  1  0.42339068  0.42084464  0.54899569  1
  Se  Se125  1  0.41771506  0.75319704  0.05614135  1
  Se  Se126  1  0.41776857  0.75033176  0.54721610  1
  Se  Se127  1  0.75286437  0.08291532  0.05598246  1
  Se  Se128  1  0.74861431  0.07626110  0.56338334  1
  Se  Se129  1  0.75145063  0.41442702  0.06058507  1
  Se  Se130  1  0.74704471  0.41713317  0.55436433  1
  Se  Se131  1  0.73828501  0.74281526  0.05298397  1
  Se  Se132  1  0.75136832  0.74852083  0.55677532  1
  Se  Se133  1  0.25357711  0.25390653  0.05877215  1
  Se  Se134  1  0.26160564  0.26302154  0.56055862  1
  Se  Se135  1  0.24656812  0.58333201  0.05824018  1
  Se  Se136  1  0.24834365  0.58210086  0.55036356  1
  Se  Se137  1  0.25605793  0.91953909  0.05843939  1
  Se  Se138  1  0.25372740  0.92045871  0.55588719  1
  Se  Se139  1  0.58954369  0.26141322  0.06301002  1
  Se  Se140  1  0.58926648  0.24967177  0.55898544  1
  Se  Se141  1  0.59081822  0.58931597  0.04823847  1
  Se  Se142  1  0.58354463  0.58026378  0.55418536  1
  Se  Se143  1  0.58310177  0.92140494  0.05253317  1
  Se  Se144  1  0.57972255  0.90858087  0.55458161  1
  Se  Se145  1  0.91428048  0.24615773  0.04845362  1
  Se  Se146  1  0.92640270  0.26240971  0.55760401  1
  Se  Se147  1  0.91844670  0.58804390  0.05855253  1
  Se  Se148  1  0.91319933  0.58613119  0.55497580  1
  Se  Se149  1  0.91760007  0.91500526  0.06115930  1
  Se  Se150  1  0.91523846  0.92024506  0.55960116  1
  Se  Se151  1  0.07535777  0.26274419  0.44258044  1
  Se  Se152  1  0.07396534  0.25697694  0.93573127  1
  Se  Se153  1  0.07910049  0.59147287  0.44868638  1
  Se  Se154  1  0.08793100  0.57953407  0.94747231  1
  Se  Se155  1  0.07605122  0.92828421  0.44295260  1
  Se  Se156  1  0.07019376  0.91342537  0.93901844  1
  Se  Se157  1  0.40831929  0.25670081  0.43610959  1
  Se  Se158  1  0.41194865  0.26056958  0.94279293  1
  Se  Se159  1  0.41933036  0.58072638  0.44420437  1
  Se  Se160  1  0.42026963  0.58205208  0.95429136  1
  Se  Se161  1  0.42317449  0.91273159  0.44347487  1
  Se  Se162  1  0.41871944  0.91618152  0.95226886  1
  Se  Se163  1  0.73856962  0.25215910  0.43883951  1
  Se  Se164  1  0.74467068  0.24954479  0.95462039  1
  Se  Se165  1  0.75433968  0.57968479  0.44868628  1
  Se  Se166  1  0.74560909  0.60133689  0.93534326  1
  Se  Se167  1  0.75636633  0.91005211  0.45004267  1
  Se  Se168  1  0.73770452  0.92409087  0.93432164  1
  Se  Se169  1  0.25633620  0.08036444  0.44131820  1
  Se  Se170  1  0.25372982  0.06832553  0.94304811  1
  Se  Se171  1  0.24727154  0.42250145  0.44345718  1
  Se  Se172  1  0.25121937  0.42240550  0.95143010  1
  Se  Se173  1  0.25855312  0.74340542  0.43475607  1
  Se  Se174  1  0.26194512  0.73998098  0.93836327  1
  Se  Se175  1  0.59504328  0.06950668  0.44443332  1
  Se  Se176  1  0.58516360  0.08044642  0.93738563  1
  Se  Se177  1  0.57959941  0.41878550  0.44519013  1
  Se  Se178  1  0.59240897  0.42869976  0.94934112  1
  Se  Se179  1  0.58692662  0.74604972  0.44855233  1
  Se  Se180  1  0.57801148  0.76958358  0.94275318  1
  Se  Se181  1  0.92057424  0.07977669  0.44104339  1
  Se  Se182  1  0.91003508  0.08229419  0.94706651  1
  Se  Se183  1  0.91337551  0.41227211  0.45214313  1
  Se  Se184  1  0.92231425  0.40916864  0.93483357  1
  Se  Se185  1  0.91194291  0.75751601  0.45011569  1
  Se  Se186  1  0.92420699  0.74200280  0.93811730  1
  Se  Se187  1  0.24666063  0.25220234  0.29719163  1
  Se  Se188  1  0.24899369  0.24050677  0.80887790  1
  Se  Se189  1  0.25227135  0.58710284  0.30307341  1
  Se  Se190  1  0.24696428  0.57447271  0.80806127  1
  Se  Se191  1  0.25319551  0.92161897  0.30217829  1
  Se  Se192  1  0.25146083  0.90912715  0.80285051  1
  Se  Se193  1  0.58380570  0.24977954  0.29997587  1
  Se  Se194  1  0.58091107  0.25280350  0.80650550  1
  Se  Se195  1  0.57666470  0.57981795  0.31093059  1
  Se  Se196  1  0.58272377  0.59327196  0.80369437  1
  Se  Se197  1  0.58690899  0.91478245  0.30417549  1
  Se  Se198  1  0.58139164  0.91806440  0.79991196  1
  Se  Se199  1  0.90712763  0.24348453  0.31043038  1
  Se  Se200  1  0.91128080  0.24915218  0.81169705  1
  Se  Se201  1  0.91863223  0.58407400  0.30761357  1
  Se  Se202  1  0.91808072  0.57983880  0.79941063  1
  Se  Se203  1  0.91643036  0.91754702  0.30684781  1
  Se  Se204  1  0.92136169  0.92921477  0.79783703  1
  Se  Se205  1  0.08086411  0.08351542  0.30095844  1
  Se  Se206  1  0.08453148  0.07931703  0.80288962  1
  Se  Se207  1  0.08543039  0.42606274  0.31351102  1
  Se  Se208  1  0.09282722  0.41831695  0.80710850  1
  Se  Se209  1  0.08035350  0.75214071  0.30640744  1
  Se  Se210  1  0.08396872  0.74421384  0.79975502  1
  Se  Se211  1  0.41830379  0.08255191  0.30125006  1
  Se  Se212  1  0.41360765  0.07698866  0.80429536  1
  Se  Se213  1  0.41319522  0.41662134  0.30300999  1
  Se  Se214  1  0.42451997  0.42427884  0.81099318  1
  Se  Se215  1  0.41811673  0.74811932  0.30091202  1
  Se  Se216  1  0.42567249  0.74894986  0.81101682  1
  Se  Se217  1  0.74659771  0.07656687  0.30289087  1
  Se  Se218  1  0.74664430  0.08716109  0.80568166  1
  Se  Se219  1  0.74541179  0.41755932  0.30292115  1
  Se  Se220  1  0.74692293  0.41817719  0.80283154  1
  Se  Se221  1  0.75264317  0.75108130  0.31354922  1
  Se  Se222  1  0.77498245  0.77787096  0.79834522  1
  Se  Se223  1  0.24995353  0.08085446  0.19568214  1
  Se  Se224  1  0.25550807  0.07478406  0.69855745  1
  Se  Se225  1  0.24967472  0.41701036  0.19877901  1
  Se  Se226  1  0.24950119  0.42579207  0.69518097  1
  Se  Se227  1  0.24972541  0.75357044  0.20078648  1
  Se  Se228  1  0.24363532  0.75337048  0.68384835  1
  Se  Se229  1  0.58391494  0.08163169  0.19360665  1
  Se  Se230  1  0.58305163  0.08303246  0.70037588  1
  Se  Se231  1  0.58325779  0.42035888  0.19910506  1
  Se  Se232  1  0.58581338  0.41601564  0.69819878  1
  Se  Se233  1  0.57797901  0.75371021  0.18640862  1
  Se  Se234  1  0.58555274  0.74569766  0.69538392  1
  Se  Se235  1  0.91603966  0.07761748  0.19770287  1
  Se  Se236  1  0.91863542  0.08687821  0.70185417  1
  Se  Se237  1  0.91117763  0.42181354  0.19102014  1
  Se  Se238  1  0.91076412  0.42309942  0.68474616  1
  Se  Se239  1  0.91635998  0.74432004  0.20214780  1
  Se  Se240  1  0.91879895  0.74115654  0.70029103  1
  Se  Se241  1  0.08506215  0.24348204  0.18396390  1
  Se  Se242  1  0.09513247  0.24173258  0.68816321  1
  Se  Se243  1  0.08074807  0.58481212  0.19895678  1
  Se  Se244  1  0.08105704  0.57522641  0.70019080  1
  Se  Se245  1  0.07923723  0.91768307  0.20162708  1
  Se  Se246  1  0.08286116  0.91625654  0.69689899  1
  Se  Se247  1  0.41359760  0.25243778  0.19881786  1
  Se  Se248  1  0.42973202  0.23768238  0.68668944  1
  Se  Se249  1  0.41473654  0.58896121  0.19591666  1
  Se  Se250  1  0.42370843  0.57857879  0.68725520  1
  Se  Se251  1  0.41808279  0.91806786  0.19637666  1
  Se  Se252  1  0.41469859  0.91464424  0.69748050  1
  Se  Se253  1  0.74978875  0.24880677  0.19793020  1
  Se  Se254  1  0.74628115  0.25570130  0.70166164  1
  Se  Se255  1  0.75725759  0.57467957  0.18786064  1
  Se  Se256  1  0.74593268  0.58490417  0.69681287  1
  Se  Se257  1  0.74754893  0.90992688  0.20043711  1
  Se  Se258  1  0.72450658  0.93590001  0.69311151  1
