# generated using pymatgen
data_In86Cu29Se144
_symmetry_space_group_name_H-M   'P 1'
_cell_length_a   17.59302321
_cell_length_b   17.59988473
_cell_length_c   23.45850468
_cell_angle_alpha   90.02709670
_cell_angle_beta   90.02015871
_cell_angle_gamma   90.00479953
_symmetry_Int_Tables_number   1
_chemical_formula_structural   In86Cu29Se144
_chemical_formula_sum   'In86 Cu29 Se144'
_cell_volume   7263.57704194
_cell_formula_units_Z   1
loop_
 _symmetry_equiv_pos_site_id
 _symmetry_equiv_pos_as_xyz
  1  'x, y, z'
loop_
 _atom_site_type_symbol
 _atom_site_label
 _atom_site_symmetry_multiplicity
 _atom_site_fract_x
 _atom_site_fract_y
 _atom_site_fract_z
 _atom_site_occupancy
  In  In0  1  0.00231747  0.16238257  0.12285357  1
  In  In1  1  -0.00293777  0.16554567  0.61704197  1
  In  In2  1  -0.00224978  0.50809778  0.13719846  1
  In  In3  1  0.01336930  0.50429921  0.60277154  1
  In  In4  1  -0.01785465  0.84608324  0.13563860  1
  In  In5  1  0.02517811  0.81784666  0.64779199  1
  In  In6  1  0.33781260  0.17116507  0.12170169  1
  In  In7  1  0.32369166  0.15753886  0.61746529  1
  In  In8  1  0.31251893  0.49035179  0.12829912  1
  In  In9  1  0.32360199  0.52058725  0.62124227  1
  In  In10  1  0.33146318  0.83064771  0.12132735  1
  In  In11  1  0.31992617  0.83535269  0.63626577  1
  In  In12  1  0.66034538  0.16157251  0.12173650  1
  In  In13  1  0.67709805  0.17762185  0.61973614  1
  In  In14  1  0.67549772  0.49516955  0.12088402  1
  In  In15  1  0.67040998  0.48469913  0.64036746  1
  In  In16  1  0.69802357  0.83357905  0.11658766  1
  In  In17  1  0.65514419  0.83140051  0.63193807  1
  In  In18  1  0.15656762  0.00837999  0.38198562  1
  In  In19  1  0.16985691  0.00428372  0.86445849  1
  In  In20  1  0.15932236  0.33044084  0.37348991  1
  In  In21  1  0.15597765  0.32982591  0.87489675  1
  In  In22  1  0.16054607  0.67949877  0.39166960  1
  In  In23  1  0.16610801  0.67467346  0.85351098  1
  In  In24  1  0.51858821  0.00484744  0.37091591  1
  In  In25  1  0.49787023  0.01324768  0.87413177  1
  In  In26  1  0.48297381  0.33410489  0.37443372  1
  In  In27  1  0.50602530  0.31405467  0.87714648  1
  In  In28  1  0.49222240  0.65977873  0.38141874  1
  In  In29  1  0.50410568  0.66445276  0.86225220  1
  In  In30  1  0.84755756  0.01439378  0.36515998  1
  In  In31  1  0.84617686  -0.01095451  0.89198015  1
  In  In32  1  0.86307594  0.31815407  0.39506066  1
  In  In33  1  0.83019868  0.34164700  0.88308245  1
  In  In34  1  0.84263679  0.64192473  0.38382020  1
  In  In35  1  0.83557155  0.66418086  0.87191104  1
  In  In36  1  0.00324925  0.16173754  0.37567198  1
  In  In37  1  0.00630012  0.15810146  0.88963649  1
  In  In38  1  0.00202085  0.50038764  0.37286693  1
  In  In39  1  -0.01009131  0.50226666  0.87504021  1
  In  In40  1  0.00630027  0.84465796  0.37189250  1
  In  In41  1  -0.00260911  0.82890653  0.86401139  1
  In  In42  1  0.31617006  0.18095563  0.38576814  1
  In  In43  1  0.33790176  0.16247490  0.87622337  1
  In  In44  1  0.33289137  0.49264206  0.38048288  1
  In  In45  1  0.32404526  0.50414960  0.86678205  1
  In  In46  1  0.32434158  0.82621449  0.38537874  1
  In  In47  1  0.32634943  0.83598026  0.85845797  1
  In  In48  1  0.68044841  0.16758297  0.37848639  1
  In  In49  1  0.67075735  0.16738320  0.88011223  1
  In  In50  1  0.67302659  0.50607733  0.37452946  1
  In  In51  1  0.68308594  0.51303823  0.85699581  1
  In  In52  1  0.66315009  0.83952776  0.37144573  1
  In  In53  1  0.67933731  0.82754777  0.87593751  1
  In  In54  1  0.14067097  0.00270549  0.12517641  1
  In  In55  1  0.16407413  -0.00079105  0.62747373  1
  In  In56  1  0.17487737  0.32768625  0.13978199  1
  In  In57  1  0.15707947  0.33626961  0.60281807  1
  In  In58  1  0.15034597  0.65726402  0.12368383  1
  In  In59  1  0.16736269  0.66315372  0.61640646  1
  In  In60  1  0.49645425  0.01531814  0.12398669  1
  In  In61  1  0.48900661  -0.00201029  0.62693734  1
  In  In62  1  0.50017723  0.32058108  0.12654666  1
  In  In63  1  0.51558256  0.33866104  0.62619568  1
  In  In64  1  0.50660225  0.65923905  0.12315719  1
  In  In65  1  0.49456658  0.65792166  0.64237178  1
  In  In66  1  0.83897409  -0.00165755  0.12381613  1
  In  In67  1  0.84496967  0.01432636  0.62448908  1
  In  In68  1  0.84559180  0.34273700  0.12096017  1
  In  In69  1  0.83248456  0.33071315  0.61987176  1
  In  In70  1  0.84953104  0.67757173  0.11045206  1
  In  In71  1  0.84316404  0.66085845  0.63142392  1
  In  In72  1  0.51006504  0.49254213  -0.00059077  1
  In  In73  1  0.32667091  0.66998646  0.26202718  1
  In  In74  1  0.50788578  0.84051281  -0.01516866  1
  In  In75  1  0.67050315  -0.00010645  0.75654787  1
  In  In76  1  0.49463445  0.49872479  0.50405535  1
  In  In77  1  0.15933319  0.49621870  -0.00056428  1
  In  In78  1  0.83471122  0.84219064  0.50530442  1
  In  In79  1  0.67550705  0.67427009  0.24577677  1
  In  In80  1  0.66981949  0.33531436  0.24552353  1
  In  In81  1  0.49143531  0.83432632  0.51243319  1
  In  In82  1  0.16175471  0.83848526  -0.00980448  1
  In  In83  1  0.34022278  0.33954483  0.74070173  1
  In  In84  1  -0.00354066  0.33090324  0.74424503  1
  In  In85  1  0.32924542  0.00824551  0.25672757  1
  Cu  Cu86  1  0.83672094  0.17327137  0.74934224  1
  Cu  Cu87  1  0.50147183  0.16308218  0.75050354  1
  Cu  Cu88  1  0.48908693  0.50253563  0.25231720  1
  Cu  Cu89  1  0.83305820  0.83510905  0.75481732  1
  Cu  Cu90  1  0.16023365  0.16511311  0.25513914  1
  Cu  Cu91  1  0.66760614  0.33650304  0.50255690  1
  Cu  Cu92  1  0.83620065  0.82948490  0.24821300  1
  Cu  Cu93  1  0.32302364  0.00922149  -0.00263802  1
  Cu  Cu94  1  0.66563067  0.00134769  0.00102001  1
  Cu  Cu95  1  0.83884685  0.50356144  0.74964040  1
  Cu  Cu96  1  0.15927497  0.82825210  0.25387126  1
  Cu  Cu97  1  0.67398160  0.01284765  0.49790305  1
  Cu  Cu98  1  0.17035753  0.16575745  0.74821711  1
  Cu  Cu99  1  0.33635339  -0.00193445  0.50423482  1
  Cu  Cu100  1  0.67172355  0.32901599  0.00223146  1
  Cu  Cu101  1  -0.00236086  0.66972852  -0.00479995  1
  Cu  Cu102  1  0.83993749  0.49653456  0.25347955  1
  Cu  Cu103  1  0.00300532  0.32749666  0.00389698  1
  Cu  Cu104  1  0.00458361  -0.00184355  0.50158474  1
  Cu  Cu105  1  0.33245154  0.32392687  0.00252843  1
  Cu  Cu106  1  0.83751804  0.16630098  0.25163175  1
  Cu  Cu107  1  0.16077933  0.50553013  0.73730289  1
  Cu  Cu108  1  0.49700360  0.17235950  0.24814487  1
  Cu  Cu109  1  -0.00216867  0.67172530  0.50430168  1
  Cu  Cu110  1  0.49566662  0.82870554  0.74931874  1
  Cu  Cu111  1  0.33940918  0.66858158  -0.00600011  1
  Cu  Cu112  1  0.65959132  0.66720395  0.50692385  1
  Cu  Cu113  1  0.50556423  0.84061595  0.24742808  1
  Cu  Cu114  1  0.33199420  0.32794937  0.49858285  1
  Se  Se115  1  0.07572170  0.07964815  0.04805966  1
  Se  Se116  1  0.08769386  0.08384251  0.55410105  1
  Se  Se117  1  0.07989240  0.40909413  0.06647114  1
  Se  Se118  1  0.04319865  0.38388689  0.54242651  1
  Se  Se119  1  0.07670883  0.75063318  0.05624312  1
  Se  Se120  1  0.08085220  0.75664524  0.55632155  1
  Se  Se121  1  0.41343679  0.08542246  0.05008444  1
  Se  Se122  1  0.42178645  0.08371280  0.55288532  1
  Se  Se123  1  0.40803071  0.41244753  0.06014784  1
  Se  Se124  1  0.40575960  0.40791793  0.56386687  1
  Se  Se125  1  0.41952362  0.74763294  0.05278736  1
  Se  Se126  1  0.40964837  0.73910612  0.56985258  1
  Se  Se127  1  0.74890313  0.08065934  0.05767817  1
  Se  Se128  1  0.75951416  0.08993947  0.55428023  1
  Se  Se129  1  0.75549861  0.41643280  0.05076029  1
  Se  Se130  1  0.74632580  0.42109661  0.55814154  1
  Se  Se131  1  0.74694612  0.73588536  0.04595426  1
  Se  Se132  1  0.74243400  0.74919000  0.56303552  1
  Se  Se133  1  0.24442879  0.25116680  0.05938071  1
  Se  Se134  1  0.24608443  0.24387807  0.54834747  1
  Se  Se135  1  0.25577849  0.59166098  0.05410669  1
  Se  Se136  1  0.22059015  0.55601214  0.54976578  1
  Se  Se137  1  0.25083837  0.92455657  0.05844965  1
  Se  Se138  1  0.25271490  0.91794077  0.55935406  1
  Se  Se139  1  0.58173115  0.24944478  0.05271875  1
  Se  Se140  1  0.58342392  0.25130689  0.55273018  1
  Se  Se141  1  0.59932478  0.59144007  0.05259704  1
  Se  Se142  1  0.58492413  0.58399927  0.56706206  1
  Se  Se143  1  0.58542561  0.91990308  0.06195664  1
  Se  Se144  1  0.59477585  0.92934347  0.55733266  1
  Se  Se145  1  0.91584324  0.24697980  0.05554236  1
  Se  Se146  1  0.92908053  0.26443992  0.55204258  1
  Se  Se147  1  0.92878825  0.57788403  0.05333606  1
  Se  Se148  1  0.91019491  0.58637195  0.55090632  1
  Se  Se149  1  0.90974318  0.90629514  0.05392870  1
  Se  Se150  1  0.93213619  0.91779395  0.56720985  1
  Se  Se151  1  0.09801557  0.23150801  0.44161672  1
  Se  Se152  1  0.09092260  0.24901591  0.95167804  1
  Se  Se153  1  0.07559200  0.58470786  0.44879963  1
  Se  Se154  1  0.08522206  0.59647579  0.93512814  1
  Se  Se155  1  0.08716531  0.91235844  0.44959573  1
  Se  Se156  1  0.07244613  0.92722185  0.93312808  1
  Se  Se157  1  0.42064464  0.24617044  0.44930599  1
  Se  Se158  1  0.41731878  0.24428110  0.94836108  1
  Se  Se159  1  0.39911902  0.59364760  0.45222088  1
  Se  Se160  1  0.41541116  0.58159656  0.93902807  1
  Se  Se161  1  0.41837267  0.92520346  0.43872717  1
  Se  Se162  1  0.40078828  0.92465577  0.93722180  1
  Se  Se163  1  0.75340844  0.25242381  0.45081964  1
  Se  Se164  1  0.75605540  0.24725865  0.94865676  1
  Se  Se165  1  0.74106537  0.58480881  0.45242044  1
  Se  Se166  1  0.76154065  0.57081737  0.93806717  1
  Se  Se167  1  0.74861899  0.92749987  0.43830857  1
  Se  Se168  1  0.74570868  0.91308161  0.95039399  1
  Se  Se169  1  0.25256155  0.07762005  0.44808522  1
  Se  Se170  1  0.24194595  0.08830063  0.94001890  1
  Se  Se171  1  0.24751828  0.40964196  0.44507635  1
  Se  Se172  1  0.25762814  0.40809554  0.94132076  1
  Se  Se173  1  0.25394393  0.74943068  0.45993872  1
  Se  Se174  1  0.25521770  0.74335799  0.93528584  1
  Se  Se175  1  0.58671974  0.09078179  0.44442598  1
  Se  Se176  1  0.58308418  0.08364941  0.94651102  1
  Se  Se177  1  0.58641363  0.41294739  0.43883871  1
  Se  Se178  1  0.59681965  0.40714237  0.93632801  1
  Se  Se179  1  0.58492774  0.74814052  0.44490950  1
  Se  Se180  1  0.59144519  0.73424571  0.93901197  1
  Se  Se181  1  0.91886418  0.08009413  0.44783124  1
  Se  Se182  1  0.90090116  0.09842993  0.95147724  1
  Se  Se183  1  0.88901315  0.45040383  0.43561608  1
  Se  Se184  1  0.92540587  0.41539465  0.94933175  1
  Se  Se185  1  0.91852146  0.75052583  0.44156697  1
  Se  Se186  1  0.91806960  0.75216666  0.93852093  1
  Se  Se187  1  0.24802789  0.24901155  0.30322755  1
  Se  Se188  1  0.24808297  0.25259614  0.80515757  1
  Se  Se189  1  0.23975299  0.58245126  0.32153230  1
  Se  Se190  1  0.24879863  0.58202665  0.79280391  1
  Se  Se191  1  0.24347991  0.90900379  0.31150910  1
  Se  Se192  1  0.23986755  0.91509713  0.79455695  1
  Se  Se193  1  0.57938170  0.25078428  0.30972135  1
  Se  Se194  1  0.58911405  0.24067142  0.80365868  1
  Se  Se195  1  0.57564402  0.58382979  0.30471992  1
  Se  Se196  1  0.57638571  0.57223504  0.79727570  1
  Se  Se197  1  0.59250677  0.92240306  0.29695295  1
  Se  Se198  1  0.57529334  0.90786952  0.81280933  1
  Se  Se199  1  0.91875435  0.24785206  0.30805923  1
  Se  Se200  1  0.91630474  0.24806507  0.81498070  1
  Se  Se201  1  0.92128432  0.58749591  0.30100835  1
  Se  Se202  1  0.92393531  0.58752921  0.80063590  1
  Se  Se203  1  0.91768856  0.91627042  0.30121554  1
  Se  Se204  1  0.91170484  0.92453000  0.80560448  1
  Se  Se205  1  0.07899802  0.07529037  0.30261181  1
  Se  Se206  1  0.08039086  0.09537679  0.80575032  1
  Se  Se207  1  0.07381901  0.40900267  0.30553224  1
  Se  Se208  1  0.08838701  0.42601740  0.80373884  1
  Se  Se209  1  0.08154328  0.74554703  0.31096438  1
  Se  Se210  1  0.08840393  0.76499675  0.79180934  1
  Se  Se211  1  0.42088741  0.09624282  0.31511038  1
  Se  Se212  1  0.41287551  0.08265460  0.80033985  1
  Se  Se213  1  0.40789321  0.41694727  0.30268809  1
  Se  Se214  1  0.42283000  0.41371924  0.81547595  1
  Se  Se215  1  0.42829159  0.76383131  0.31152934  1
  Se  Se216  1  0.41104224  0.74342939  0.79970923  1
  Se  Se217  1  0.74820981  0.08549524  0.30145425  1
  Se  Se218  1  0.76481193  0.08736779  0.81207728  1
  Se  Se219  1  0.75786634  0.41664356  0.31166933  1
  Se  Se220  1  0.76059742  0.41136819  0.80025499  1
  Se  Se221  1  0.76324835  0.75236598  0.31651562  1
  Se  Se222  1  0.74979112  0.74628036  0.80135160  1
  Se  Se223  1  0.23967826  0.08732789  0.18947354  1
  Se  Se224  1  0.25289609  0.08171759  0.69564618  1
  Se  Se225  1  0.24032413  0.42491337  0.20736081  1
  Se  Se226  1  0.23512197  0.41431367  0.68248545  1
  Se  Se227  1  0.24131938  0.75499609  0.19130742  1
  Se  Se228  1  0.24901327  0.73287733  0.69294580  1
  Se  Se229  1  0.57994785  0.08655794  0.19774377  1
  Se  Se230  1  0.58546793  0.08573801  0.68915834  1
  Se  Se231  1  0.57277612  0.42830168  0.18995208  1
  Se  Se232  1  0.58027538  0.41052408  0.70724280  1
  Se  Se233  1  0.58207621  0.76178867  0.18457461  1
  Se  Se234  1  0.58433927  0.74522352  0.70280180  1
  Se  Se235  1  0.91766597  0.08270668  0.19436230  1
  Se  Se236  1  0.92362433  0.09336216  0.69725479  1
  Se  Se237  1  0.92135044  0.41134354  0.20031359  1
  Se  Se238  1  0.91669092  0.42750850  0.68431342  1
  Se  Se239  1  0.91726642  0.74036579  0.19689789  1
  Se  Se240  1  0.91477851  0.75043686  0.70111661  1
  Se  Se241  1  0.07854687  0.24538977  0.19685045  1
  Se  Se242  1  0.09484174  0.24772763  0.68602253  1
  Se  Se243  1  0.09752122  0.57368690  0.20202049  1
  Se  Se244  1  0.07383858  0.58307671  0.68401781  1
  Se  Se245  1  0.07961392  0.91532115  0.20120073  1
  Se  Se246  1  0.06838942  0.93871114  0.69897489  1
  Se  Se247  1  0.40972881  0.25347307  0.19782896  1
  Se  Se248  1  0.42412699  0.23919368  0.68500774  1
  Se  Se249  1  0.41251234  0.58405326  0.19071066  1
  Se  Se250  1  0.41942618  0.55623410  0.69835967  1
  Se  Se251  1  0.41602111  0.91474593  0.19168508  1
  Se  Se252  1  0.41500510  0.91598374  0.69855726  1
  Se  Se253  1  0.75864232  0.24384743  0.18734586  1
  Se  Se254  1  0.75376596  0.25451920  0.69531498  1
  Se  Se255  1  0.76092843  0.57639788  0.19103309  1
  Se  Se256  1  0.75074802  0.58446673  0.69719252  1
  Se  Se257  1  0.75471717  0.91577594  0.19618380  1
  Se  Se258  1  0.75861175  0.91484842  0.68894278  1
