# generated using pymatgen
data_In86Cu29Se144
_symmetry_space_group_name_H-M   'P 1'
_cell_length_a   17.57414828
_cell_length_b   17.57631178
_cell_length_c   23.42752672
_cell_angle_alpha   90.00852340
_cell_angle_beta   89.96944087
_cell_angle_gamma   90.01401726
_symmetry_Int_Tables_number   1
_chemical_formula_structural   In86Cu29Se144
_chemical_formula_sum   'In86 Cu29 Se144'
_cell_volume   7236.49716560
_cell_formula_units_Z   1
loop_
 _symmetry_equiv_pos_site_id
 _symmetry_equiv_pos_as_xyz
  1  'x, y, z'
loop_
 _atom_site_type_symbol
 _atom_site_label
 _atom_site_symmetry_multiplicity
 _atom_site_fract_x
 _atom_site_fract_y
 _atom_site_fract_z
 _atom_site_occupancy
  In  In0  1  -0.01019587  0.16022380  0.11726490  1
  In  In1  1  -0.00108991  0.16650375  0.63932269  1
  In  In2  1  0.00450270  0.48397335  0.12197655  1
  In  In3  1  -0.00419116  0.49644185  0.62461609  1
  In  In4  1  0.01044830  0.85028503  0.11960573  1
  In  In5  1  -0.00450105  0.84474677  0.62634394  1
  In  In6  1  0.32366919  0.16865054  0.10129346  1
  In  In7  1  0.32826525  0.16420330  0.64057802  1
  In  In8  1  0.31379969  0.47780963  0.09973109  1
  In  In9  1  0.33566371  0.51130251  0.62812883  1
  In  In10  1  0.33068692  0.84226503  0.12286178  1
  In  In11  1  0.34254787  0.82218147  0.63244354  1
  In  In12  1  0.65829145  0.15323362  0.11705199  1
  In  In13  1  0.66466464  0.16774050  0.64012587  1
  In  In14  1  0.66324239  0.51052013  0.12436914  1
  In  In15  1  0.68410161  0.48936108  0.63268833  1
  In  In16  1  0.66742776  0.82167138  0.12981230  1
  In  In17  1  0.66793950  0.83231554  0.62491657  1
  In  In18  1  0.16626995  0.01357808  0.36735425  1
  In  In19  1  0.16788082  0.00186955  0.88015193  1
  In  In20  1  0.16631786  0.34281143  0.37318886  1
  In  In21  1  0.15595824  0.34876102  0.88911466  1
  In  In22  1  0.15339443  0.66078538  0.37745214  1
  In  In23  1  0.17960502  0.65890703  0.88182025  1
  In  In24  1  0.50194073  -0.01621705  0.38037454  1
  In  In25  1  0.50952868  0.02110779  0.86038703  1
  In  In26  1  0.49760724  0.34618669  0.37423614  1
  In  In27  1  0.51071810  0.32201431  0.88602926  1
  In  In28  1  0.51773850  0.66966916  0.37026261  1
  In  In29  1  0.49358974  0.65922221  0.86647019  1
  In  In30  1  0.82102422  -0.00949823  0.36511431  1
  In  In31  1  0.83461553  0.00173917  0.87563220  1
  In  In32  1  0.84587476  0.32513194  0.37519414  1
  In  In33  1  0.83049800  0.32848682  0.87306943  1
  In  In34  1  0.82518046  0.67969436  0.38273307  1
  In  In35  1  0.83405735  0.68330152  0.87384565  1
  In  In36  1  -0.00164055  0.16742415  0.36144510  1
  In  In37  1  0.00253618  0.17106048  0.88146371  1
  In  In38  1  0.00385239  0.49367369  0.37900126  1
  In  In39  1  0.01822561  0.49308581  0.87621222  1
  In  In40  1  -0.01128447  0.83164967  0.37306549  1
  In  In41  1  -0.00905703  0.84403906  0.88337608  1
  In  In42  1  0.32806241  0.17480413  0.37544674  1
  In  In43  1  0.34369888  0.16241699  0.88584993  1
  In  In44  1  0.32462670  0.49188638  0.37592163  1
  In  In45  1  0.32339896  0.50460089  0.87882295  1
  In  In46  1  0.34058246  0.84289536  0.37785228  1
  In  In47  1  0.32870703  0.82790855  0.87051799  1
  In  In48  1  0.67933773  0.15899225  0.37280030  1
  In  In49  1  0.66988125  0.16962735  0.87459827  1
  In  In50  1  0.66376840  0.51321692  0.37707586  1
  In  In51  1  0.65984623  0.49028939  0.86600993  1
  In  In52  1  0.66795573  0.83630287  0.37589127  1
  In  In53  1  0.67189891  0.84515193  0.86864815  1
  In  In54  1  0.15575671  -0.01195344  0.11650590  1
  In  In55  1  0.16015672  0.00112500  0.63857396  1
  In  In56  1  0.12637316  0.29355525  0.06787584  1
  In  In57  1  0.15561906  0.33476464  0.63286432  1
  In  In58  1  0.16935344  0.67162764  0.11698601  1
  In  In59  1  0.17878824  0.66119470  0.62939672  1
  In  In60  1  0.49573293  0.00624986  0.12521292  1
  In  In61  1  0.51888417  -0.01533572  0.64238890  1
  In  In62  1  0.48929246  0.32610616  0.10544382  1
  In  In63  1  0.50823555  0.33511949  0.63406413  1
  In  In64  1  0.51358090  0.66154745  0.12524529  1
  In  In65  1  0.49445616  0.67247191  0.63227847  1
  In  In66  1  0.83108575  -0.00165607  0.12028269  1
  In  In67  1  0.83886319  -0.00378211  0.62985077  1
  In  In68  1  0.85320179  0.33022923  0.12208933  1
  In  In69  1  0.82656371  0.34539429  0.63234745  1
  In  In70  1  0.81581892  0.66929037  0.12560353  1
  In  In71  1  0.82443528  0.65882898  0.62079978  1
  In  In72  1  0.33500917  0.33099680  0.76262029  1
  In  In73  1  0.33473790  -0.00106247  0.24331503  1
  In  In74  1  0.33942488  0.66755025  0.24075532  1
  In  In75  1  0.50453606  0.50846578  0.50188190  1
  In  In76  1  0.50284857  0.16231596  0.51988527  1
  In  In77  1  0.49884067  0.83667843  -0.00258858  1
  In  In78  1  -0.00638559  0.67348095  0.25390381  1
  In  In79  1  0.16001064  0.82724474  0.50171478  1
  In  In80  1  0.32172559  0.32860239  0.22813394  1
  In  In81  1  0.83394145  0.50289939  0.00146669  1
  In  In82  1  0.66985613  0.33019725  0.24991833  1
  In  In83  1  0.83306980  0.16846265  0.50000751  1
  In  In84  1  0.00395845  0.66498396  0.75371138  1
  In  In85  1  0.16535253  0.16719163  0.50457512  1
  Cu  Cu86  1  0.50321917  0.15980714  0.24719212  1
  Cu  Cu87  1  0.82846667  0.83544623  0.75054687  1
  Cu  Cu88  1  0.67140723  0.00170654  -0.00615256  1
  Cu  Cu89  1  0.66850286  0.67129302  0.50234060  1
  Cu  Cu90  1  0.33479477  -0.00117350  -0.00429377  1
  Cu  Cu91  1  0.49803981  0.83524582  0.75252791  1
  Cu  Cu92  1  0.67145997  0.32937503  -0.00343518  1
  Cu  Cu93  1  0.66645927  0.66929225  -0.00235485  1
  Cu  Cu94  1  0.49785072  0.49721882  0.24151791  1
  Cu  Cu95  1  0.16480668  0.16437933  0.76249515  1
  Cu  Cu96  1  0.33530484  -0.01061292  0.50839794  1
  Cu  Cu97  1  0.33349015  0.33588382  0.49989791  1
  Cu  Cu98  1  0.83182674  0.83945676  0.24980472  1
  Cu  Cu99  1  0.83764831  0.16370277  0.24327688  1
  Cu  Cu100  1  -0.00558842  0.65828795  0.50159676  1
  Cu  Cu101  1  -0.00130801  0.67200330  -0.00177502  1
  Cu  Cu102  1  0.33587305  0.66581364  0.50509105  1
  Cu  Cu103  1  -0.00157982  0.00261064  -0.00279025  1
  Cu  Cu104  1  0.50383255  0.50268747  0.75159989  1
  Cu  Cu105  1  0.33232938  0.66819996  -0.00574608  1
  Cu  Cu106  1  0.83818768  0.16233370  0.75770758  1
  Cu  Cu107  1  0.83834302  0.49689972  0.75027892  1
  Cu  Cu108  1  0.83332565  0.50167174  0.24622106  1
  Cu  Cu109  1  0.15502892  0.16894264  0.23313536  1
  Cu  Cu110  1  0.66758797  -0.00508460  0.50248799  1
  Cu  Cu111  1  -0.00953285  -0.00348992  0.49897174  1
  Cu  Cu112  1  0.16303230  0.83502956  0.75454065  1
  Cu  Cu113  1  -0.00101223  0.33853769  0.50290382  1
  Cu  Cu114  1  0.15886567  0.49931121  0.24828529  1
  Se  Se115  1  0.08480345  0.08326623  0.05093331  1
  Se  Se116  1  0.07186097  0.07471307  0.56001775  1
  Se  Se117  1  0.08543259  0.43130967  0.04107029  1
  Se  Se118  1  0.08652174  0.41656445  0.55679035  1
  Se  Se119  1  0.08258641  0.75505756  0.05267977  1
  Se  Se120  1  0.07288320  0.73770371  0.56525440  1
  Se  Se121  1  0.42016489  0.08095026  0.04890760  1
  Se  Se122  1  0.40659802  0.07190063  0.57173226  1
  Se  Se123  1  0.43961973  0.44153357  0.05083559  1
  Se  Se124  1  0.41587293  0.41181465  0.56132128  1
  Se  Se125  1  0.41236788  0.74320066  0.05928900  1
  Se  Se126  1  0.42004507  0.74997694  0.55458743  1
  Se  Se127  1  0.75374979  0.08493401  0.04938021  1
  Se  Se128  1  0.74262314  0.08065338  0.56208900  1
  Se  Se129  1  0.74507043  0.40987630  0.06270306  1
  Se  Se130  1  0.75637249  0.41881779  0.55329726  1
  Se  Se131  1  0.74741578  0.75382915  0.05044208  1
  Se  Se132  1  0.75419340  0.75461012  0.55426298  1
  Se  Se133  1  0.27380242  0.28888148  0.05309564  1
  Se  Se134  1  0.25866731  0.25565597  0.56378985  1
  Se  Se135  1  0.24427781  0.58676364  0.04604126  1
  Se  Se136  1  0.25071432  0.58037256  0.55275540  1
  Se  Se137  1  0.25124356  0.91558226  0.04901102  1
  Se  Se138  1  0.24562510  0.91674177  0.56589745  1
  Se  Se139  1  0.58576972  0.24470262  0.04824993  1
  Se  Se140  1  0.59927480  0.26076444  0.56184337  1
  Se  Se141  1  0.58423421  0.58268321  0.04746875  1
  Se  Se142  1  0.59336468  0.59062955  0.56658962  1
  Se  Se143  1  0.59097279  0.92346060  0.05786431  1
  Se  Se144  1  0.58106309  0.91596587  0.55675781  1
  Se  Se145  1  0.91785287  0.24979571  0.04573116  1
  Se  Se146  1  0.92513746  0.25275410  0.56299679  1
  Se  Se147  1  0.92221259  0.59335004  0.06441487  1
  Se  Se148  1  0.91135686  0.57586091  0.55540219  1
  Se  Se149  1  0.91587455  0.91688524  0.05063859  1
  Se  Se150  1  0.90922510  0.91373243  0.55243569  1
  Se  Se151  1  0.07499745  0.25356354  0.44077168  1
  Se  Se152  1  0.08796675  0.24801894  0.95284311  1
  Se  Se153  1  0.08304071  0.57769788  0.45053723  1
  Se  Se154  1  0.08166190  0.58756700  0.94681666  1
  Se  Se155  1  0.08111782  0.92663546  0.43913490  1
  Se  Se156  1  0.08546786  0.91653490  0.94924495  1
  Se  Se157  1  0.41773754  0.25393694  0.44599000  1
  Se  Se158  1  0.41920227  0.25107793  0.95319206  1
  Se  Se159  1  0.41125699  0.58942646  0.43558473  1
  Se  Se160  1  0.41688656  0.58536468  0.94292088  1
  Se  Se161  1  0.42072609  0.91032786  0.45529781  1
  Se  Se162  1  0.41674121  0.92528751  0.93214594  1
  Se  Se163  1  0.74040113  0.25923500  0.44218034  1
  Se  Se164  1  0.75631779  0.24610934  0.94684222  1
  Se  Se165  1  0.74968150  0.58573894  0.44844200  1
  Se  Se166  1  0.74573049  0.58808669  0.93624564  1
  Se  Se167  1  0.75322339  0.91732951  0.44636473  1
  Se  Se168  1  0.75368778  0.91372085  0.94500067  1
  Se  Se169  1  0.26086325  0.07399698  0.44705345  1
  Se  Se170  1  0.24778510  0.08698685  0.95064821  1
  Se  Se171  1  0.24530925  0.41605097  0.44961288  1
  Se  Se172  1  0.26059536  0.41131219  0.95033714  1
  Se  Se173  1  0.25607082  0.74228499  0.44029120  1
  Se  Se174  1  0.24867589  0.75743905  0.94804656  1
  Se  Se175  1  0.58805566  0.08159188  0.44610325  1
  Se  Se176  1  0.58457308  0.08437133  0.94315985  1
  Se  Se177  1  0.59208310  0.41132988  0.44499938  1
  Se  Se178  1  0.59049606  0.41931310  0.94772233  1
  Se  Se179  1  0.58499548  0.75169615  0.44625263  1
  Se  Se180  1  0.58619150  0.74729880  0.93486501  1
  Se  Se181  1  0.91940205  0.07999926  0.43503934  1
  Se  Se182  1  0.91462242  0.08573691  0.94547065  1
  Se  Se183  1  0.91389324  0.41556743  0.44629775  1
  Se  Se184  1  0.92129338  0.41357847  0.94147351  1
  Se  Se185  1  0.92056951  0.75115583  0.44973482  1
  Se  Se186  1  0.91091467  0.75506627  0.95094197  1
  Se  Se187  1  0.23584677  0.24175088  0.30045199  1
  Se  Se188  1  0.24166831  0.24673466  0.82300248  1
  Se  Se189  1  0.24275000  0.57862639  0.30466170  1
  Se  Se190  1  0.25186398  0.58594504  0.80408959  1
  Se  Se191  1  0.24488950  0.91127465  0.30787260  1
  Se  Se192  1  0.24684041  0.91885181  0.80717940  1
  Se  Se193  1  0.57400065  0.24275561  0.31159122  1
  Se  Se194  1  0.59155736  0.25894491  0.80785055  1
  Se  Se195  1  0.58066445  0.57591731  0.29841870  1
  Se  Se196  1  0.59036800  0.58836788  0.80056829  1
  Se  Se197  1  0.59170804  0.92603119  0.30770451  1
  Se  Se198  1  0.58422849  0.92114600  0.80014791  1
  Se  Se199  1  0.91694013  0.25330194  0.29467528  1
  Se  Se200  1  0.92151019  0.24930089  0.80783324  1
  Se  Se201  1  0.90789833  0.57962062  0.31335574  1
  Se  Se202  1  0.91282456  0.57649201  0.81541163  1
  Se  Se203  1  0.92029527  0.91979339  0.30101506  1
  Se  Se204  1  0.91446738  0.91506352  0.80486040  1
  Se  Se205  1  0.08233581  0.08467365  0.29417985  1
  Se  Se206  1  0.07855172  0.08066042  0.81264419  1
  Se  Se207  1  0.07844118  0.41401646  0.30235894  1
  Se  Se208  1  0.08888111  0.41109879  0.80299613  1
  Se  Se209  1  0.09321542  0.76092735  0.30806337  1
  Se  Se210  1  0.08619054  0.75569217  0.81798438  1
  Se  Se211  1  0.41871355  0.08929632  0.31202098  1
  Se  Se212  1  0.40195498  0.08467050  0.80299184  1
  Se  Se213  1  0.41143196  0.41821704  0.29751757  1
  Se  Se214  1  0.42868723  0.42328784  0.81686195  1
  Se  Se215  1  0.42255259  0.75503117  0.30836344  1
  Se  Se216  1  0.41347718  0.74868374  0.80123686  1
  Se  Se217  1  0.75003368  0.08308810  0.29567215  1
  Se  Se218  1  0.74891201  0.08043164  0.80603770  1
  Se  Se219  1  0.75564278  0.42211050  0.31134666  1
  Se  Se220  1  0.75292540  0.41309161  0.80215856  1
  Se  Se221  1  0.75173696  0.75343102  0.30499413  1
  Se  Se222  1  0.74535273  0.75007124  0.80125988  1
  Se  Se223  1  0.24765811  0.09019533  0.18143964  1
  Se  Se224  1  0.24514109  0.08126309  0.70650654  1
  Se  Se225  1  0.22666309  0.42020707  0.18017137  1
  Se  Se226  1  0.25275047  0.41822300  0.69390370  1
  Se  Se227  1  0.24135109  0.76040415  0.19278505  1
  Se  Se228  1  0.24601923  0.75258166  0.69943237  1
  Se  Se229  1  0.58667735  0.07666198  0.19609468  1
  Se  Se230  1  0.57748850  0.08916308  0.70458420  1
  Se  Se231  1  0.57654983  0.41046621  0.18528414  1
  Se  Se232  1  0.58907436  0.41868557  0.70087481  1
  Se  Se233  1  0.58081157  0.74529527  0.19856417  1
  Se  Se234  1  0.58312361  0.75388594  0.69674468  1
  Se  Se235  1  0.91804941  0.07618869  0.19151018  1
  Se  Se236  1  0.91846159  0.07659521  0.70192287  1
  Se  Se237  1  0.91870816  0.41711840  0.19745831  1
  Se  Se238  1  0.92390324  0.41340893  0.69960999  1
  Se  Se239  1  0.90932820  0.75877992  0.18684369  1
  Se  Se240  1  0.91082482  0.75183447  0.69218029  1
  Se  Se241  1  0.08545540  0.25326112  0.17166752  1
  Se  Se242  1  0.08604457  0.24776183  0.70467325  1
  Se  Se243  1  0.08314782  0.58618939  0.18974002  1
  Se  Se244  1  0.09160528  0.57360198  0.69455961  1
  Se  Se245  1  0.08731425  0.91848198  0.19801785  1
  Se  Se246  1  0.07514799  0.91540277  0.70278490  1
  Se  Se247  1  0.42185234  0.23398208  0.18353910  1
  Se  Se248  1  0.42771268  0.24373638  0.70048951  1
  Se  Se249  1  0.41386892  0.56865776  0.17924587  1
  Se  Se250  1  0.41636011  0.58500287  0.70130558  1
  Se  Se251  1  0.43042368  0.90304245  0.19419208  1
  Se  Se252  1  0.41056995  0.91777094  0.69987802  1
  Se  Se253  1  0.75438095  0.24333355  0.18412198  1
  Se  Se254  1  0.76043179  0.24715125  0.69942772  1
  Se  Se255  1  0.74470827  0.58402978  0.19931895  1
  Se  Se256  1  0.75430634  0.58419452  0.70091607  1
  Se  Se257  1  0.74810491  0.91614680  0.19075842  1
  Se  Se258  1  0.74694700  0.91893183  0.69494952  1
