# generated using pymatgen
data_In86Cu29Se144
_symmetry_space_group_name_H-M   'P 1'
_cell_length_a   17.57970482
_cell_length_b   17.57782055
_cell_length_c   23.43641381
_cell_angle_alpha   90.03088905
_cell_angle_beta   89.99801184
_cell_angle_gamma   89.98881773
_symmetry_Int_Tables_number   1
_chemical_formula_structural   In86Cu29Se144
_chemical_formula_sum   'In86 Cu29 Se144'
_cell_volume   7242.15292206
_cell_formula_units_Z   1
loop_
 _symmetry_equiv_pos_site_id
 _symmetry_equiv_pos_as_xyz
  1  'x, y, z'
loop_
 _atom_site_type_symbol
 _atom_site_label
 _atom_site_symmetry_multiplicity
 _atom_site_fract_x
 _atom_site_fract_y
 _atom_site_fract_z
 _atom_site_occupancy
  In  In0  1  -0.00147105  0.16797894  0.12566310  1
  In  In1  1  -0.00391974  0.16616510  0.62626156  1
  In  In2  1  -0.01053596  0.50819704  0.13059708  1
  In  In3  1  -0.01336230  0.49019010  0.62704698  1
  In  In4  1  -0.00796032  0.85139499  0.13689078  1
  In  In5  1  -0.00059146  0.85110127  0.62411993  1
  In  In6  1  0.35271999  0.18992552  0.09845802  1
  In  In7  1  0.31967245  0.16869581  0.62512618  1
  In  In8  1  0.33138452  0.47426546  0.11888013  1
  In  In9  1  0.35230008  0.48365855  0.62681088  1
  In  In10  1  0.33373544  0.84038942  0.12490503  1
  In  In11  1  0.34919716  0.83581744  0.62164943  1
  In  In12  1  0.67964104  0.17765745  0.11854312  1
  In  In13  1  0.67633584  0.16057629  0.63163940  1
  In  In14  1  0.66854189  0.49651484  0.12350180  1
  In  In15  1  0.66162648  0.49480612  0.63244885  1
  In  In16  1  0.66537155  0.81882585  0.12955420  1
  In  In17  1  0.67566392  0.83825438  0.61470729  1
  In  In18  1  0.16778624  0.01359145  0.37441982  1
  In  In19  1  0.17951432  0.01829213  0.86895611  1
  In  In20  1  0.15568741  0.32449655  0.36771954  1
  In  In21  1  0.15093731  0.32359854  0.87539952  1
  In  In22  1  0.15630284  0.67711170  0.36618298  1
  In  In23  1  0.17285172  0.66324214  0.87845273  1
  In  In24  1  0.48902703  -0.00186918  0.38016546  1
  In  In25  1  0.50746761  0.00528826  0.86942769  1
  In  In26  1  0.51301629  0.34495999  0.36510958  1
  In  In27  1  0.50664747  0.32542343  0.88177165  1
  In  In28  1  0.51066823  0.66034146  0.37643850  1
  In  In29  1  0.49572732  0.65953319  0.87942839  1
  In  In30  1  0.84021990  -0.00425006  0.38035659  1
  In  In31  1  0.83238670  0.00082636  0.87549126  1
  In  In32  1  0.82471885  0.32414001  0.36862605  1
  In  In33  1  0.82915553  0.33087770  0.87559729  1
  In  In34  1  0.83365138  0.67426855  0.36588536  1
  In  In35  1  0.83126208  0.66405141  0.88398169  1
  In  In36  1  -0.00084837  0.16531959  0.37406555  1
  In  In37  1  -0.00359986  0.16352840  0.87818678  1
  In  In38  1  -0.01002342  0.49678548  0.36258994  1
  In  In39  1  -0.00693205  0.48064510  0.87223907  1
  In  In40  1  -0.00886812  0.82637295  0.36041398  1
  In  In41  1  -0.01717865  0.83727127  0.87995829  1
  In  In42  1  0.31948691  0.16270879  0.37592132  1
  In  In43  1  0.35320853  0.15220517  0.89884940  1
  In  In44  1  0.35386982  0.50003779  0.37387174  1
  In  In45  1  0.34405570  0.49173359  0.88618067  1
  In  In46  1  0.33597986  0.83973727  0.37826844  1
  In  In47  1  0.32491132  0.83918982  0.87571745  1
  In  In48  1  0.67368325  0.19119815  0.37534052  1
  In  In49  1  0.66862454  0.16662149  0.87558113  1
  In  In50  1  0.65262676  0.48764514  0.36784546  1
  In  In51  1  0.67689111  0.48490647  0.87810829  1
  In  In52  1  0.67158102  0.83170549  0.37669986  1
  In  In53  1  0.66874619  0.84841909  0.87243677  1
  In  In54  1  0.15930283  0.00875022  0.12533709  1
  In  In55  1  0.15138869  0.01357833  0.63390773  1
  In  In56  1  0.17284544  0.31898482  0.12890011  1
  In  In57  1  0.16790224  0.31588252  0.62447001  1
  In  In58  1  0.16005827  0.66745447  0.13390517  1
  In  In59  1  0.16290596  0.66860393  0.62173337  1
  In  In60  1  0.48840891  0.00982149  0.12191200  1
  In  In61  1  0.51300359  -0.00429638  0.63366668  1
  In  In62  1  0.50402788  0.33626640  0.11980821  1
  In  In63  1  0.51116634  0.34325157  0.62390092  1
  In  In64  1  0.52651715  0.66176568  0.13362292  1
  In  In65  1  0.50361238  0.66252967  0.61738461  1
  In  In66  1  0.84236768  0.01255044  0.11624272  1
  In  In67  1  0.83213007  0.00282688  0.62449172  1
  In  In68  1  0.83225626  0.33475670  0.12694146  1
  In  In69  1  0.84530918  0.32695851  0.63727943  1
  In  In70  1  0.83072128  0.66633031  0.12368872  1
  In  In71  1  0.82219655  0.66760346  0.62088741  1
  In  In72  1  0.33340636  0.32495678  0.75857572  1
  In  In73  1  0.15636486  0.49453118  -0.00063064  1
  In  In74  1  0.50222063  0.16523403  0.50019165  1
  In  In75  1  0.33506010  0.66893076  0.73950255  1
  In  In76  1  0.32641036  0.00382039  0.24589560  1
  In  In77  1  0.66621629  0.00227719  0.25595745  1
  In  In78  1  0.50474516  0.83181496  0.00335302  1
  In  In79  1  0.17268948  0.49979115  0.49676190  1
  In  In80  1  0.33270313  0.66032592  0.25235514  1
  In  In81  1  0.16634732  0.84079539  0.48996236  1
  In  In82  1  0.66546269  0.66192498  0.74818921  1
  In  In83  1  0.16163371  0.84143315  0.01003276  1
  In  In84  1  0.82781343  0.49635112  0.49927317  1
  In  In85  1  0.00135256  0.67007855  0.75800354  1
  Cu  Cu86  1  0.82664469  0.83462979  0.24793138  1
  Cu  Cu87  1  0.16844356  0.49793082  0.75429919  1
  Cu  Cu88  1  0.16364747  0.16861002  0.24777066  1
  Cu  Cu89  1  0.00132016  0.32328607  0.49978350  1
  Cu  Cu90  1  0.84080963  0.16768538  0.24464588  1
  Cu  Cu91  1  0.16404170  0.49289295  0.24514955  1
  Cu  Cu92  1  0.66978810  0.66000502  0.00381807  1
  Cu  Cu93  1  0.33984142  0.33154054  0.49965877  1
  Cu  Cu94  1  0.34384107  0.65963592  0.49978513  1
  Cu  Cu95  1  0.66770865  0.66801143  0.49628059  1
  Cu  Cu96  1  0.16073111  0.16408952  0.75215941  1
  Cu  Cu97  1  0.49908569  0.49465128  0.24436260  1
  Cu  Cu98  1  -0.00165909  0.00102906  0.00056643  1
  Cu  Cu99  1  0.66681631  0.00133137  0.50347454  1
  Cu  Cu100  1  0.83523428  0.16431649  0.75470617  1
  Cu  Cu101  1  0.83240113  0.84038823  0.74661008  1
  Cu  Cu102  1  0.49977383  0.16941874  0.75564280  1
  Cu  Cu103  1  -0.01090781  0.66580901  0.00389289  1
  Cu  Cu104  1  -0.00716492  0.00711808  0.50142636  1
  Cu  Cu105  1  0.50031678  0.83882370  0.74893331  1
  Cu  Cu106  1  0.66798069  0.33149566  0.00022714  1
  Cu  Cu107  1  -0.00969033  0.32917580  0.00249409  1
  Cu  Cu108  1  0.16572975  0.84841845  0.75241026  1
  Cu  Cu109  1  0.33682053  0.65913620  0.00757226  1
  Cu  Cu110  1  0.33123848  -0.00274184  0.50319460  1
  Cu  Cu111  1  -0.00612480  0.67418564  0.48796068  1
  Cu  Cu112  1  0.82778875  0.50576704  0.24591529  1
  Cu  Cu113  1  0.50010193  0.17510508  0.24342856  1
  Cu  Cu114  1  0.66874269  0.00213507  -0.00386067  1
  Se  Se115  1  0.07981980  0.08649944  0.05299258  1
  Se  Se116  1  0.08124303  0.08642471  0.55409087  1
  Se  Se117  1  0.07133122  0.40893869  0.06463770  1
  Se  Se118  1  0.07983790  0.41098273  0.55725249  1
  Se  Se119  1  0.07155945  0.74408974  0.06246149  1
  Se  Se120  1  0.07548377  0.74862735  0.55200066  1
  Se  Se121  1  0.41868448  0.08116783  0.04344517  1
  Se  Se122  1  0.41275504  0.07777811  0.56346833  1
  Se  Se123  1  0.41802706  0.40994349  0.04637167  1
  Se  Se124  1  0.42687564  0.41437096  0.54816675  1
  Se  Se125  1  0.41687232  0.74041757  0.06652130  1
  Se  Se126  1  0.42224882  0.74949548  0.55121310  1
  Se  Se127  1  0.75200176  0.08678318  0.04913625  1
  Se  Se128  1  0.75099307  0.08559741  0.55384668  1
  Se  Se129  1  0.75182533  0.41516518  0.05418202  1
  Se  Se130  1  0.75068752  0.40838294  0.56708711  1
  Se  Se131  1  0.74804877  0.75088183  0.05383479  1
  Se  Se132  1  0.75483224  0.75108740  0.54624396  1
  Se  Se133  1  0.23581917  0.24607801  0.04692514  1
  Se  Se134  1  0.25087420  0.24954892  0.54771344  1
  Se  Se135  1  0.24726034  0.58461145  0.06303957  1
  Se  Se136  1  0.26397060  0.58534934  0.56338978  1
  Se  Se137  1  0.26159222  0.93325908  0.05641632  1
  Se  Se138  1  0.24655487  0.92097746  0.56401908  1
  Se  Se139  1  0.58390976  0.24660452  0.05202954  1
  Se  Se140  1  0.59363942  0.25022552  0.56027629  1
  Se  Se141  1  0.58199198  0.57871621  0.05350664  1
  Se  Se142  1  0.59570857  0.58139670  0.55613739  1
  Se  Se143  1  0.59260340  0.92518545  0.06322472  1
  Se  Se144  1  0.58003181  0.91828193  0.55334457  1
  Se  Se145  1  0.90907699  0.24548985  0.05769939  1
  Se  Se146  1  0.91420007  0.25001276  0.55698072  1
  Se  Se147  1  0.90847520  0.57743659  0.05380677  1
  Se  Se148  1  0.92499268  0.59094342  0.55471426  1
  Se  Se149  1  0.91776281  0.91386983  0.05347238  1
  Se  Se150  1  0.91239662  0.91797097  0.55188129  1
  Se  Se151  1  0.08689062  0.24444374  0.44503544  1
  Se  Se152  1  0.07622309  0.24680741  0.95091463  1
  Se  Se153  1  0.07621495  0.58657822  0.43724275  1
  Se  Se154  1  0.06888547  0.59041667  0.93943726  1
  Se  Se155  1  0.06908322  0.92698653  0.43560015  1
  Se  Se156  1  0.08091856  0.92372015  0.93831040  1
  Se  Se157  1  0.41572482  0.25162939  0.43467074  1
  Se  Se158  1  0.40846043  0.26654127  0.95170599  1
  Se  Se159  1  0.42935403  0.57773619  0.44817683  1
  Se  Se160  1  0.42131313  0.57948264  0.95386879  1
  Se  Se161  1  0.41625287  0.91354012  0.45325211  1
  Se  Se162  1  0.41679229  0.91874067  0.94068592  1
  Se  Se163  1  0.75411509  0.25827536  0.45132082  1
  Se  Se164  1  0.75102549  0.24675266  0.94684486  1
  Se  Se165  1  0.74453442  0.58612720  0.43394685  1
  Se  Se166  1  0.74996954  0.57663565  0.94807651  1
  Se  Se167  1  0.74825594  0.91871115  0.44582617  1
  Se  Se168  1  0.75258728  0.91483065  0.94742770  1
  Se  Se169  1  0.24800753  0.08221419  0.45206981  1
  Se  Se170  1  0.24132871  0.08820731  0.95235952  1
  Se  Se171  1  0.25927997  0.40940086  0.43590433  1
  Se  Se172  1  0.24766297  0.40546160  0.94174207  1
  Se  Se173  1  0.25723181  0.73576356  0.44138566  1
  Se  Se174  1  0.25724921  0.74370901  0.95099176  1
  Se  Se175  1  0.59389381  0.07975539  0.43563058  1
  Se  Se176  1  0.58248410  0.08391299  0.94471362  1
  Se  Se177  1  0.58571077  0.41035540  0.44636535  1
  Se  Se178  1  0.58445605  0.41669217  0.94833810  1
  Se  Se179  1  0.58317024  0.75237068  0.44489675  1
  Se  Se180  1  0.59468911  0.74313639  0.93944404  1
  Se  Se181  1  0.91168208  0.09116457  0.44623763  1
  Se  Se182  1  0.91212885  0.08235843  0.94739298  1
  Se  Se183  1  0.92481444  0.41026929  0.44129725  1
  Se  Se184  1  0.91085662  0.41498726  0.94838665  1
  Se  Se185  1  0.91050693  0.75817591  0.43861770  1
  Se  Se186  1  0.90926650  0.75269442  0.95112148  1
  Se  Se187  1  0.25043927  0.24856762  0.30266993  1
  Se  Se188  1  0.24518639  0.23428599  0.81639326  1
  Se  Se189  1  0.24063571  0.56977701  0.31265614  1
  Se  Se190  1  0.25408847  0.57583129  0.80926190  1
  Se  Se191  1  0.24161518  0.91079257  0.30953874  1
  Se  Se192  1  0.25643137  0.92503154  0.80311248  1
  Se  Se193  1  0.58754948  0.25265883  0.29787083  1
  Se  Se194  1  0.58538033  0.25137094  0.80646473  1
  Se  Se195  1  0.58023807  0.57985087  0.29882992  1
  Se  Se196  1  0.57981593  0.57543455  0.81225278  1
  Se  Se197  1  0.57192251  0.91344177  0.31133779  1
  Se  Se198  1  0.58705864  0.92115341  0.79908040  1
  Se  Se199  1  0.91991045  0.25093829  0.30379425  1
  Se  Se200  1  0.91749639  0.24860906  0.80847172  1
  Se  Se201  1  0.91464184  0.58896195  0.29788152  1
  Se  Se202  1  0.90835526  0.57755309  0.80986378  1
  Se  Se203  1  0.90976807  0.92101052  0.29983256  1
  Se  Se204  1  0.91614821  0.91891842  0.80326450  1
  Se  Se205  1  0.08239520  0.08396720  0.30179840  1
  Se  Se206  1  0.07616107  0.08048012  0.80531454  1
  Se  Se207  1  0.07852495  0.41273736  0.30029619  1
  Se  Se208  1  0.08360559  0.41180306  0.80158524  1
  Se  Se209  1  0.08171419  0.75312309  0.29297097  1
  Se  Se210  1  0.09517061  0.76272750  0.81509054  1
  Se  Se211  1  0.42344777  0.09342347  0.30581969  1
  Se  Se212  1  0.41368706  0.08927442  0.80916698  1
  Se  Se213  1  0.41450468  0.41236733  0.29767279  1
  Se  Se214  1  0.42519439  0.42077414  0.80913695  1
  Se  Se215  1  0.42016578  0.75230530  0.31167660  1
  Se  Se216  1  0.42192228  0.75640650  0.80819161  1
  Se  Se217  1  0.75875324  0.09450417  0.31094369  1
  Se  Se218  1  0.74854110  0.08097809  0.80567551  1
  Se  Se219  1  0.75169474  0.41912576  0.30320179  1
  Se  Se220  1  0.75046394  0.41109086  0.80226956  1
  Se  Se221  1  0.74199585  0.75134949  0.29941628  1
  Se  Se222  1  0.75692993  0.75549015  0.80703086  1
  Se  Se223  1  0.25165432  0.10168709  0.18393449  1
  Se  Se224  1  0.24962937  0.08419905  0.69888152  1
  Se  Se225  1  0.25039033  0.40923961  0.19688000  1
  Se  Se226  1  0.24621444  0.41802108  0.69138856  1
  Se  Se227  1  0.24768331  0.75951427  0.19486641  1
  Se  Se228  1  0.23829895  0.76505193  0.68893770  1
  Se  Se229  1  0.58160885  0.09057001  0.18830372  1
  Se  Se230  1  0.58492218  0.08718563  0.70100263  1
  Se  Se231  1  0.58648266  0.41261213  0.19318161  1
  Se  Se232  1  0.58509801  0.41179503  0.70262284  1
  Se  Se233  1  0.57725646  0.75941150  0.20464358  1
  Se  Se234  1  0.57871655  0.75711065  0.68836719  1
  Se  Se235  1  0.92123185  0.07838022  0.19583684  1
  Se  Se236  1  0.91533932  0.08201005  0.69568621  1
  Se  Se237  1  0.91297081  0.41814057  0.19780182  1
  Se  Se238  1  0.92230279  0.41542483  0.70550101  1
  Se  Se239  1  0.91162024  0.75244189  0.19350143  1
  Se  Se240  1  0.91242329  0.75441237  0.68946026  1
  Se  Se241  1  0.07697225  0.25248815  0.19732377  1
  Se  Se242  1  0.08093819  0.24883790  0.69697201  1
  Se  Se243  1  0.08018607  0.58208314  0.20018293  1
  Se  Se244  1  0.08956313  0.57813797  0.69277635  1
  Se  Se245  1  0.09971171  0.91313892  0.19455791  1
  Se  Se246  1  0.07437726  0.92373784  0.70144053  1
  Se  Se247  1  0.41528615  0.25220700  0.18692281  1
  Se  Se248  1  0.42256083  0.24465290  0.68826484  1
  Se  Se249  1  0.41640218  0.57430757  0.18416260  1
  Se  Se250  1  0.43291345  0.57345064  0.69520376  1
  Se  Se251  1  0.42703722  0.91181810  0.19573195  1
  Se  Se252  1  0.41406475  0.92118067  0.69711395  1
  Se  Se253  1  0.75066110  0.25085633  0.19829110  1
  Se  Se254  1  0.75205626  0.24820093  0.70117282  1
  Se  Se255  1  0.74361916  0.58776044  0.19256952  1
  Se  Se256  1  0.76440279  0.57332293  0.69504200  1
  Se  Se257  1  0.75297901  0.92063979  0.18682645  1
  Se  Se258  1  0.74575468  0.91787696  0.69181016  1
