# generated using pymatgen
data_In86Cu29Se144
_symmetry_space_group_name_H-M   'P 1'
_cell_length_a   17.65218802
_cell_length_b   17.64424949
_cell_length_c   23.50052705
_cell_angle_alpha   89.96952670
_cell_angle_beta   89.98823297
_cell_angle_gamma   89.99829107
_symmetry_Int_Tables_number   1
_chemical_formula_structural   In86Cu29Se144
_chemical_formula_sum   'In86 Cu29 Se144'
_cell_volume   7319.46378222
_cell_formula_units_Z   1
loop_
 _symmetry_equiv_pos_site_id
 _symmetry_equiv_pos_as_xyz
  1  'x, y, z'
loop_
 _atom_site_type_symbol
 _atom_site_label
 _atom_site_symmetry_multiplicity
 _atom_site_fract_x
 _atom_site_fract_y
 _atom_site_fract_z
 _atom_site_occupancy
  In  In0  1  0.00620275  0.16835551  0.12953136  1
  In  In1  1  -0.00146651  0.16718240  0.62488242  1
  In  In2  1  0.00189685  0.50003708  0.13343180  1
  In  In3  1  0.00222313  0.49617009  0.62417108  1
  In  In4  1  -0.00826870  0.83699502  0.12737712  1
  In  In5  1  -0.00276247  0.83093573  0.62324829  1
  In  In6  1  0.33001102  0.16144441  0.12560854  1
  In  In7  1  0.33520108  0.17898699  0.62621095  1
  In  In8  1  0.34330942  0.50897504  0.12953881  1
  In  In9  1  0.33263725  0.50087089  0.61884768  1
  In  In10  1  0.33223798  0.83221182  0.13105499  1
  In  In11  1  0.32401489  0.82666811  0.62119897  1
  In  In12  1  0.68159457  0.16594504  0.12897286  1
  In  In13  1  0.68187493  0.15683087  0.62845403  1
  In  In14  1  0.66695236  0.50582116  0.14025763  1
  In  In15  1  0.66557678  0.50504925  0.62009295  1
  In  In16  1  0.67381162  0.81857572  0.12824647  1
  In  In17  1  0.67050886  0.81776567  0.61343581  1
  In  In18  1  0.17603959  -0.00508134  0.38675013  1
  In  In19  1  0.15838380  0.00711159  0.86757975  1
  In  In20  1  0.15274800  0.34542179  0.38280989  1
  In  In21  1  0.16412452  0.32958790  0.86289648  1
  In  In22  1  0.15991591  0.67093023  0.37343488  1
  In  In23  1  0.16469664  0.66599728  0.86440014  1
  In  In24  1  0.49986735  -0.01237335  0.38088007  1
  In  In25  1  0.51025476  -0.01851244  0.86797056  1
  In  In26  1  0.51874896  0.33993556  0.37493408  1
  In  In27  1  0.50366221  0.33672405  0.86154818  1
  In  In28  1  0.49990239  0.67225189  0.38527788  1
  In  In29  1  0.50607748  0.68069133  0.85424902  1
  In  In30  1  0.83677605  -0.00938560  0.39445574  1
  In  In31  1  0.82337377  -0.01026401  0.86388530  1
  In  In32  1  0.83539903  0.33885902  0.38235914  1
  In  In33  1  0.83509711  0.33861082  0.86283590  1
  In  In34  1  0.83723145  0.66546504  0.38388697  1
  In  In35  1  0.83837797  0.67457226  0.86592352  1
  In  In36  1  -0.01233543  0.17523095  0.38383706  1
  In  In37  1  0.00103481  0.16842877  0.86401440  1
  In  In38  1  -0.00193544  0.50106039  0.37815345  1
  In  In39  1  -0.00357418  0.49582333  0.86341421  1
  In  In40  1  0.01351388  0.82055319  0.38235663  1
  In  In41  1  -0.01389660  0.82310896  0.86487723  1
  In  In42  1  0.33206201  0.15494897  0.37977224  1
  In  In43  1  0.32452845  0.16571554  0.86729388  1
  In  In44  1  0.31825683  0.51673667  0.38577807  1
  In  In45  1  0.33794349  0.50609831  0.86470294  1
  In  In46  1  0.33659736  0.81880823  0.38025583  1
  In  In47  1  0.34354849  0.82776384  0.86939043  1
  In  In48  1  0.66771590  0.18301530  0.37950091  1
  In  In49  1  0.67399178  0.16856675  0.86398191  1
  In  In50  1  0.67277731  0.50617520  0.39114978  1
  In  In51  1  0.66252676  0.50341669  0.86214492  1
  In  In52  1  0.67813600  0.82191494  0.39759539  1
  In  In53  1  0.67443233  0.83957863  0.85914551  1
  In  In54  1  0.16477162  0.00057824  0.12639482  1
  In  In55  1  0.15032794  -0.01106188  0.61918066  1
  In  In56  1  0.15949955  0.32844011  0.13200446  1
  In  In57  1  0.16819308  0.33324921  0.62183292  1
  In  In58  1  0.16551700  0.67336023  0.13965883  1
  In  In59  1  0.16395790  0.66167380  0.62313420  1
  In  In60  1  0.49662231  0.00240439  0.12427800  1
  In  In61  1  0.52501864  -0.01917083  0.62191343  1
  In  In62  1  0.49981692  0.35250270  0.13178149  1
  In  In63  1  0.49110980  0.34381774  0.63020125  1
  In  In64  1  0.50361181  0.67287053  0.14349049  1
  In  In65  1  0.50442688  0.66450262  0.61643641  1
  In  In66  1  0.84403539  -0.00413589  0.12289571  1
  In  In67  1  0.83205878  0.00069434  0.61447394  1
  In  In68  1  0.83302585  0.33725812  0.13450092  1
  In  In69  1  0.83450534  0.33367365  0.62549124  1
  In  In70  1  0.82500807  0.67289829  0.13303376  1
  In  In71  1  0.83696184  0.66325689  0.62000955  1
  In  In72  1  0.50206214  0.50507606  0.00089004  1
  In  In73  1  0.67399900  -0.00647580  0.26935014  1
  In  In74  1  0.83682530  0.16805204  -0.00063522  1
  In  In75  1  0.49902966  0.17028731  0.50597785  1
  In  In76  1  0.16712813  0.83523510  0.00629330  1
  In  In77  1  0.50576941  0.17073446  -0.00119346  1
  In  In78  1  0.33625619  -0.00103364  0.74875103  1
  In  In79  1  0.16548369  0.49809432  0.00464913  1
  In  In80  1  0.50262259  0.83069565  -0.00622115  1
  In  In81  1  0.00481990  -0.00267124  0.25116577  1
  In  In82  1  0.16429960  0.16507455  -0.01268413  1
  In  In83  1  0.33703756  -0.00933520  0.25398654  1
  In  In84  1  0.33491808  0.33861858  0.25325577  1
  In  In85  1  0.83415493  0.50180428  -0.00618833  1
  Cu  Cu86  1  0.15773925  0.17376175  0.25864852  1
  Cu  Cu87  1  0.32658055  0.00436470  0.50734817  1
  Cu  Cu88  1  0.67227970  0.33360913  0.50479796  1
  Cu  Cu89  1  0.00420070  0.66550570  0.50112125  1
  Cu  Cu90  1  0.16117008  0.50598284  0.25783956  1
  Cu  Cu91  1  0.83236675  0.83293831  0.73847210  1
  Cu  Cu92  1  0.83340523  0.16205249  0.74502716  1
  Cu  Cu93  1  0.66798590  0.33599841  0.00344827  1
  Cu  Cu94  1  -0.00569487  0.66348673  -0.00593475  1
  Cu  Cu95  1  0.00316460  -0.00019579  0.50453161  1
  Cu  Cu96  1  0.83097847  0.50137523  0.74213557  1
  Cu  Cu97  1  0.83163317  0.18000271  0.25810919  1
  Cu  Cu98  1  0.50910331  0.16610274  0.74169412  1
  Cu  Cu99  1  -0.00815030  -0.00861767  -0.00452368  1
  Cu  Cu100  1  0.32511383  0.66362226  0.50092063  1
  Cu  Cu101  1  0.16426831  0.16878904  0.74434132  1
  Cu  Cu102  1  0.15916973  0.82927900  0.74210042  1
  Cu  Cu103  1  0.83441589  0.82810259  0.25922122  1
  Cu  Cu104  1  0.66657416  -0.01128454  -0.00967323  1
  Cu  Cu105  1  0.16962843  0.49888092  0.74212405  1
  Cu  Cu106  1  0.49876641  0.50620115  0.73999334  1
  Cu  Cu107  1  -0.00201892  0.33505161  0.50338100  1
  Cu  Cu108  1  0.67076237  0.66942847  0.00357580  1
  Cu  Cu109  1  0.33803897  0.66684040  -0.00168804  1
  Cu  Cu110  1  0.51005249  0.16763758  0.24915301  1
  Cu  Cu111  1  0.33285353  0.33387385  0.50115462  1
  Cu  Cu112  1  0.32701103  0.33047729  -0.00776772  1
  Cu  Cu113  1  0.50770411  0.50547838  0.26218248  1
  Cu  Cu114  1  0.83104527  0.50208646  0.26036484  1
  Se  Se115  1  0.07282100  0.07451638  0.05275580  1
  Se  Se116  1  0.08450524  0.08834663  0.55438839  1
  Se  Se117  1  0.07370823  0.40671373  0.05933745  1
  Se  Se118  1  0.08614171  0.41662306  0.55323929  1
  Se  Se119  1  0.07585226  0.73844800  0.05878580  1
  Se  Se120  1  0.08498184  0.75069731  0.55566325  1
  Se  Se121  1  0.40880541  0.07992517  0.05167634  1
  Se  Se122  1  0.41626326  0.07379651  0.56743114  1
  Se  Se123  1  0.40407479  0.41011722  0.05379428  1
  Se  Se124  1  0.41820194  0.41651044  0.55129462  1
  Se  Se125  1  0.41825559  0.74236685  0.06048618  1
  Se  Se126  1  0.40852882  0.74552665  0.55404437  1
  Se  Se127  1  0.74304263  0.07090219  0.05296916  1
  Se  Se128  1  0.74757276  0.08481599  0.54766937  1
  Se  Se129  1  0.74335037  0.41940428  0.06206626  1
  Se  Se130  1  0.75465541  0.41889517  0.55657763  1
  Se  Se131  1  0.75750335  0.75178466  0.05294935  1
  Se  Se132  1  0.74255181  0.72382838  0.54531543  1
  Se  Se133  1  0.25134860  0.25515750  0.05677504  1
  Se  Se134  1  0.25120078  0.24808272  0.55215380  1
  Se  Se135  1  0.25657530  0.59219265  0.05985357  1
  Se  Se136  1  0.24198516  0.57760928  0.55196690  1
  Se  Se137  1  0.26241818  0.92889215  0.05974512  1
  Se  Se138  1  0.24367582  0.91467161  0.55434490  1
  Se  Se139  1  0.58954060  0.26008877  0.06565288  1
  Se  Se140  1  0.58946175  0.25654628  0.56674158  1
  Se  Se141  1  0.59007611  0.59288836  0.06402055  1
  Se  Se142  1  0.57628162  0.57273076  0.54825520  1
  Se  Se143  1  0.59030683  0.91960367  0.05955097  1
  Se  Se144  1  0.58024851  0.89497871  0.54223695  1
  Se  Se145  1  0.92206540  0.25676356  0.06196963  1
  Se  Se146  1  0.91545824  0.25027225  0.55575450  1
  Se  Se147  1  0.91954100  0.58707019  0.06054613  1
  Se  Se148  1  0.92293254  0.57994177  0.55345087  1
  Se  Se149  1  0.91188078  0.90871459  0.05072920  1
  Se  Se150  1  0.91785865  0.91247426  0.55136730  1
  Se  Se151  1  0.08115133  0.25101697  0.44845550  1
  Se  Se152  1  0.07260560  0.26059152  0.93875664  1
  Se  Se153  1  0.08522935  0.58298233  0.44402019  1
  Se  Se154  1  0.07798760  0.58412591  0.93863809  1
  Se  Se155  1  0.08430520  0.91586970  0.44912067  1
  Se  Se156  1  0.07802835  0.91567917  0.93719814  1
  Se  Se157  1  0.41440871  0.25826048  0.43746020  1
  Se  Se158  1  0.41288091  0.25596572  0.93572897  1
  Se  Se159  1  0.41631851  0.58310566  0.45091882  1
  Se  Se160  1  0.42071115  0.59485825  0.93550898  1
  Se  Se161  1  0.40005329  0.92387785  0.44441726  1
  Se  Se162  1  0.40922908  0.92453244  0.94098405  1
  Se  Se163  1  0.75513528  0.25146814  0.45119881  1
  Se  Se164  1  0.74515637  0.25909983  0.94100064  1
  Se  Se165  1  0.73710295  0.60868554  0.45561513  1
  Se  Se166  1  0.74053225  0.58974291  0.93690856  1
  Se  Se167  1  0.73050931  0.93573996  0.45597957  1
  Se  Se168  1  0.75135775  0.90783217  0.93920401  1
  Se  Se169  1  0.24620912  0.09031206  0.45405214  1
  Se  Se170  1  0.25921169  0.06927603  0.93945025  1
  Se  Se171  1  0.24822482  0.41660332  0.44784691  1
  Se  Se172  1  0.25186610  0.41481507  0.93491926  1
  Se  Se173  1  0.24264042  0.74851393  0.44712977  1
  Se  Se174  1  0.25319914  0.74467300  0.94100766  1
  Se  Se175  1  0.58473103  0.08490657  0.44028668  1
  Se  Se176  1  0.59061461  0.07778149  0.93645317  1
  Se  Se177  1  0.58560060  0.41589902  0.45412438  1
  Se  Se178  1  0.58909272  0.41268068  0.94067753  1
  Se  Se179  1  0.55824930  0.77694660  0.45337742  1
  Se  Se180  1  0.59339509  0.74264693  0.93600756  1
  Se  Se181  1  0.91837370  0.08431923  0.45366114  1
  Se  Se182  1  0.91927295  0.07754821  0.93459100  1
  Se  Se183  1  0.91657736  0.42208320  0.45090385  1
  Se  Se184  1  0.92382143  0.40777471  0.93997193  1
  Se  Se185  1  0.92017978  0.75264174  0.45087359  1
  Se  Se186  1  0.91279324  0.74945872  0.94378667  1
  Se  Se187  1  0.24804433  0.24793764  0.31409471  1
  Se  Se188  1  0.25192100  0.25016616  0.79674945  1
  Se  Se189  1  0.24862345  0.58818135  0.30546991  1
  Se  Se190  1  0.24887250  0.58304420  0.79912480  1
  Se  Se191  1  0.24249413  0.90751999  0.31011646  1
  Se  Se192  1  0.23925613  0.90728228  0.80677769  1
  Se  Se193  1  0.58908646  0.25345287  0.30194998  1
  Se  Se194  1  0.58847731  0.25112591  0.79887678  1
  Se  Se195  1  0.58703347  0.58519051  0.32031799  1
  Se  Se196  1  0.58531199  0.58771041  0.79364199  1
  Se  Se197  1  0.58108911  0.89916448  0.31573798  1
  Se  Se198  1  0.57314601  0.89946669  0.79354034  1
  Se  Se199  1  0.91849979  0.25945255  0.30928923  1
  Se  Se200  1  0.91439923  0.24918555  0.79855606  1
  Se  Se201  1  0.91582767  0.58612372  0.31022877  1
  Se  Se202  1  0.91331247  0.58196735  0.80044558  1
  Se  Se203  1  0.91356300  0.91380913  0.31474222  1
  Se  Se204  1  0.91353106  0.91454434  0.79708551  1
  Se  Se205  1  0.08719182  0.08568555  0.31752551  1
  Se  Se206  1  0.07983509  0.08351327  0.79520079  1
  Se  Se207  1  0.07855553  0.41790571  0.30490048  1
  Se  Se208  1  0.08478583  0.41708380  0.79759674  1
  Se  Se209  1  0.07907094  0.75000307  0.30142863  1
  Se  Se210  1  0.07801873  0.74683557  0.79986556  1
  Se  Se211  1  0.42946603  0.08919126  0.30769118  1
  Se  Se212  1  0.43111014  0.08974207  0.80873763  1
  Se  Se213  1  0.41903510  0.42624402  0.31739407  1
  Se  Se214  1  0.41934025  0.42178089  0.79817078  1
  Se  Se215  1  0.41778777  0.74447544  0.30933790  1
  Se  Se216  1  0.40234238  0.74277165  0.79418584  1
  Se  Se217  1  0.76490935  0.09107867  0.31916605  1
  Se  Se218  1  0.74703861  0.07865133  0.79685716  1
  Se  Se219  1  0.74848307  0.42186842  0.31634809  1
  Se  Se220  1  0.74777496  0.41868737  0.79841346  1
  Se  Se221  1  0.75150746  0.75207484  0.31709610  1
  Se  Se222  1  0.75230406  0.74832492  0.79508654  1
  Se  Se223  1  0.24003089  0.09224475  0.19987499  1
  Se  Se224  1  0.24472034  0.08417081  0.68717314  1
  Se  Se225  1  0.24187101  0.42892156  0.19264390  1
  Se  Se226  1  0.25383208  0.41523791  0.68992823  1
  Se  Se227  1  0.26500779  0.74265260  0.19901010  1
  Se  Se228  1  0.24507702  0.74645133  0.69345931  1
  Se  Se229  1  0.58787871  0.08123154  0.19359941  1
  Se  Se230  1  0.58767142  0.07728866  0.69171344  1
  Se  Se231  1  0.58422931  0.41877197  0.20534984  1
  Se  Se232  1  0.58590339  0.42060879  0.69260638  1
  Se  Se233  1  0.59662025  0.74922840  0.20347677  1
  Se  Se234  1  0.58266986  0.74848071  0.68641439  1
  Se  Se235  1  0.90736539  0.09308322  0.19717300  1
  Se  Se236  1  0.91260695  0.07969129  0.68859705  1
  Se  Se237  1  0.91342572  0.42245881  0.20044011  1
  Se  Se238  1  0.91787416  0.41609269  0.69478858  1
  Se  Se239  1  0.91596490  0.75295375  0.19744493  1
  Se  Se240  1  0.91689003  0.74535325  0.69132510  1
  Se  Se241  1  0.07559933  0.25364994  0.20299809  1
  Se  Se242  1  0.08239854  0.25341021  0.69138299  1
  Se  Se243  1  0.07902026  0.58717206  0.20076731  1
  Se  Se244  1  0.08110122  0.58195560  0.69444744  1
  Se  Se245  1  0.09639479  0.90425535  0.19384549  1
  Se  Se246  1  0.07466637  0.91629041  0.69614387  1
  Se  Se247  1  0.42443900  0.24302766  0.19029496  1
  Se  Se248  1  0.41850289  0.25104639  0.69941650  1
  Se  Se249  1  0.42172164  0.58042685  0.20385010  1
  Se  Se250  1  0.41440816  0.58608440  0.68638368  1
  Se  Se251  1  0.43503363  0.90690727  0.19542449  1
  Se  Se252  1  0.42027618  0.90957385  0.68632678  1
  Se  Se253  1  0.74632799  0.25544607  0.20045973  1
  Se  Se254  1  0.75136651  0.25080556  0.69592328  1
  Se  Se255  1  0.75118332  0.58774492  0.20477677  1
  Se  Se256  1  0.74952939  0.58560786  0.69049095  1
  Se  Se257  1  0.76179398  0.91462166  0.19651888  1
  Se  Se258  1  0.75054332  0.91015489  0.67977537  1
