# generated using pymatgen
data_In86Cu29Se144
_symmetry_space_group_name_H-M   'P 1'
_cell_length_a   17.59096318
_cell_length_b   17.58922022
_cell_length_c   23.44307376
_cell_angle_alpha   89.98153863
_cell_angle_beta   90.01105800
_cell_angle_gamma   90.01111368
_symmetry_Int_Tables_number   1
_chemical_formula_structural   In86Cu29Se144
_chemical_formula_sum   'In86 Cu29 Se144'
_cell_volume   7253.55187500
_cell_formula_units_Z   1
loop_
 _symmetry_equiv_pos_site_id
 _symmetry_equiv_pos_as_xyz
  1  'x, y, z'
loop_
 _atom_site_type_symbol
 _atom_site_label
 _atom_site_symmetry_multiplicity
 _atom_site_fract_x
 _atom_site_fract_y
 _atom_site_fract_z
 _atom_site_occupancy
  In  In0  1  -0.01634738  0.16241030  0.12812170  1
  In  In1  1  -0.00970651  0.16151842  0.62603789  1
  In  In2  1  0.01105988  0.50343691  0.11474693  1
  In  In3  1  0.00119630  0.51867988  0.62474456  1
  In  In4  1  0.01685624  0.82320300  0.14016734  1
  In  In5  1  0.01110220  0.81965871  0.63229125  1
  In  In6  1  0.33717817  0.16545545  0.12923360  1
  In  In7  1  0.34433761  0.15521197  0.62887816  1
  In  In8  1  0.32523367  0.51304787  0.13183996  1
  In  In9  1  0.35008491  0.49661737  0.64766454  1
  In  In10  1  0.32993385  0.83330660  0.12057846  1
  In  In11  1  0.32823069  0.84402419  0.63313576  1
  In  In12  1  0.67567166  0.16742572  0.12739175  1
  In  In13  1  0.65859049  0.17627955  0.62903434  1
  In  In14  1  0.67285959  0.48464047  0.12443979  1
  In  In15  1  0.65961651  0.49071774  0.62555934  1
  In  In16  1  0.66388104  0.84675592  0.12247424  1
  In  In17  1  0.67889946  0.83586907  0.63110947  1
  In  In18  1  0.16115641  -0.01839168  0.36364261  1
  In  In19  1  0.15694477  -0.00992327  0.87378747  1
  In  In20  1  0.17018410  0.32622001  0.36945958  1
  In  In21  1  0.18279547  0.33502723  0.87703426  1
  In  In22  1  0.17049216  0.67929861  0.36319356  1
  In  In23  1  0.16507406  0.66898037  0.87605694  1
  In  In24  1  0.50645789  0.00642422  0.36997423  1
  In  In25  1  0.48763878  -0.01872413  0.85968021  1
  In  In26  1  0.49187984  0.32765706  0.37196570  1
  In  In27  1  0.50468982  0.34029689  0.86387929  1
  In  In28  1  0.49843443  0.67695394  0.37401562  1
  In  In29  1  0.49675153  0.68443670  0.87274289  1
  In  In30  1  0.82974625  0.00516053  0.36236915  1
  In  In31  1  0.83709987  0.00671532  0.87738249  1
  In  In32  1  0.82861502  0.35269751  0.36906971  1
  In  In33  1  0.81931371  0.33514048  0.88812395  1
  In  In34  1  0.83764614  0.64282966  0.37096752  1
  In  In35  1  0.83594731  0.65130304  0.87685297  1
  In  In36  1  0.00403841  0.16122265  0.37028723  1
  In  In37  1  -0.00538310  0.14929501  0.87896668  1
  In  In38  1  -0.01905893  0.50507090  0.36977510  1
  In  In39  1  -0.00610577  0.50789894  0.88004953  1
  In  In40  1  0.00973089  0.84013724  0.36454460  1
  In  In41  1  0.01028013  0.84030848  0.87491787  1
  In  In42  1  0.34056002  0.16893049  0.37088689  1
  In  In43  1  0.34362004  0.17228960  0.86764239  1
  In  In44  1  0.33090751  0.50062969  0.36814557  1
  In  In45  1  0.33029147  0.49505133  0.86934357  1
  In  In46  1  0.32093412  0.82547086  0.36720822  1
  In  In47  1  0.32940222  0.82877110  0.87314392  1
  In  In48  1  0.65613201  0.15812160  0.36708304  1
  In  In49  1  0.67312650  0.16910832  0.87436541  1
  In  In50  1  0.69229699  0.49687679  0.37082924  1
  In  In51  1  0.67833574  0.49513549  0.87889824  1
  In  In52  1  0.65575982  0.83921891  0.37133492  1
  In  In53  1  0.65009756  0.83344975  0.87610078  1
  In  In54  1  0.18062759  -0.01641976  0.13851625  1
  In  In55  1  0.17790011  -0.01279077  0.63088131  1
  In  In56  1  0.16524001  0.34703725  0.12274186  1
  In  In57  1  0.17357166  0.34484374  0.62638605  1
  In  In58  1  0.16963466  0.67005915  0.12384380  1
  In  In59  1  0.16432494  0.67029618  0.62776328  1
  In  In60  1  0.50589565  -0.00250961  0.12535475  1
  In  In61  1  0.48952442  0.00611750  0.63105326  1
  In  In62  1  0.50696103  0.32671607  0.12961726  1
  In  In63  1  0.51140996  0.32860287  0.63328089  1
  In  In64  1  0.48097159  0.66793017  0.12315504  1
  In  In65  1  0.49481384  0.65891679  0.63415411  1
  In  In66  1  0.82670768  0.01186804  0.13847688  1
  In  In67  1  0.83542372  0.00230927  0.63509515  1
  In  In68  1  0.82413326  0.33070441  0.11133522  1
  In  In69  1  0.81341147  0.33417699  0.62554949  1
  In  In70  1  0.84774321  0.66136851  0.12600207  1
  In  In71  1  0.84331046  0.67197570  0.62464199  1
  In  In72  1  0.00231357  0.32830865  0.74899512  1
  In  In73  1  0.50185418  0.50403120  -0.00428500  1
  In  In74  1  0.83572897  0.83193058  0.49930321  1
  In  In75  1  0.50729079  0.16338885  -0.00069191  1
  In  In76  1  0.16772946  0.51082101  0.50106530  1
  In  In77  1  -0.00208769  0.33283287  0.24590012  1
  In  In78  1  0.83856954  0.83422821  0.00986642  1
  In  In79  1  0.16214624  0.16351366  0.00039075  1
  In  In80  1  0.50039948  0.83486046  0.50048963  1
  In  In81  1  0.66621909  0.66527652  0.75381595  1
  In  In82  1  0.50176686  0.49819087  0.50803221  1
  In  In83  1  0.82893626  0.16763214  0.49083195  1
  In  In84  1  0.16675075  0.16165725  0.49224274  1
  In  In85  1  0.66406708  0.66632697  0.25281173  1
  Cu  Cu86  1  0.33618107  0.32577140  0.49868609  1
  Cu  Cu87  1  0.83174394  0.83470847  0.24607179  1
  Cu  Cu88  1  0.00772890  -0.01093078  0.49984544  1
  Cu  Cu89  1  -0.00038344  0.67071817  0.49934571  1
  Cu  Cu90  1  -0.01319611  0.34460839  0.49571773  1
  Cu  Cu91  1  0.32955736  0.66829852  0.50052030  1
  Cu  Cu92  1  0.66455107  0.66580308  -0.00453706  1
  Cu  Cu93  1  0.00622139  0.66811499  0.00213640  1
  Cu  Cu94  1  0.49864671  0.49502606  0.24771086  1
  Cu  Cu95  1  0.16687427  0.50553974  0.24498893  1
  Cu  Cu96  1  0.32353854  0.67251345  0.00026413  1
  Cu  Cu97  1  0.66066933  0.33616644  0.50107916  1
  Cu  Cu98  1  0.33741572  0.34398703  0.00093745  1
  Cu  Cu99  1  0.83919833  0.83730770  0.75509115  1
  Cu  Cu100  1  -0.00033251  -0.00392520  0.00707251  1
  Cu  Cu101  1  0.83486775  0.49435325  0.75495352  1
  Cu  Cu102  1  0.17309258  0.16388889  0.25065478  1
  Cu  Cu103  1  0.16473201  0.83220469  0.75268688  1
  Cu  Cu104  1  0.17090960  0.16189574  0.75545864  1
  Cu  Cu105  1  0.66204358  0.00694392  0.49829224  1
  Cu  Cu106  1  -0.00136136  0.33558120  0.00038529  1
  Cu  Cu107  1  0.16763890  0.50472944  0.75153103  1
  Cu  Cu108  1  0.33378028  -0.00467079  0.50343341  1
  Cu  Cu109  1  0.49170364  0.83708873  0.24837773  1
  Cu  Cu110  1  0.32670773  -0.00749619  -0.00527277  1
  Cu  Cu111  1  0.50407556  0.16284337  0.75016032  1
  Cu  Cu112  1  0.49746409  0.16924016  0.24768368  1
  Cu  Cu113  1  0.83349938  0.16380206  0.75278110  1
  Cu  Cu114  1  0.66278053  -0.00183715  0.00118935  1
  Se  Se115  1  0.08177386  0.07604809  0.06743730  1
  Se  Se116  1  0.08041121  0.07666228  0.55963099  1
  Se  Se117  1  0.09011647  0.41794492  0.04465120  1
  Se  Se118  1  0.07434837  0.41427199  0.55736916  1
  Se  Se119  1  0.08404523  0.75497914  0.05596483  1
  Se  Se120  1  0.08643379  0.74909602  0.55273292  1
  Se  Se121  1  0.40685853  0.07600523  0.05305526  1
  Se  Se122  1  0.41905161  0.08120141  0.55083545  1
  Se  Se123  1  0.41668191  0.41861541  0.06450234  1
  Se  Se124  1  0.40751342  0.40822743  0.56399409  1
  Se  Se125  1  0.41424627  0.75317669  0.04875457  1
  Se  Se126  1  0.41188666  0.74469738  0.56157685  1
  Se  Se127  1  0.74741349  0.07611466  0.05712460  1
  Se  Se128  1  0.74773485  0.08051838  0.55971193  1
  Se  Se129  1  0.75281137  0.42541726  0.04486228  1
  Se  Se130  1  0.74570382  0.42010556  0.55163423  1
  Se  Se131  1  0.74247925  0.74090248  0.06311838  1
  Se  Se132  1  0.74286804  0.74295963  0.55696133  1
  Se  Se133  1  0.25751730  0.25594948  0.05646531  1
  Se  Se134  1  0.25137715  0.25029225  0.55888646  1
  Se  Se135  1  0.24769585  0.58203987  0.05328707  1
  Se  Se136  1  0.26476977  0.58235242  0.56735221  1
  Se  Se137  1  0.24295337  0.91593387  0.05212491  1
  Se  Se138  1  0.24950675  0.91057603  0.55270984  1
  Se  Se139  1  0.59521561  0.25768021  0.05442422  1
  Se  Se140  1  0.57974320  0.25078854  0.55348289  1
  Se  Se141  1  0.58716055  0.59012928  0.06334625  1
  Se  Se142  1  0.59025330  0.59594255  0.56079756  1
  Se  Se143  1  0.57592970  0.91424946  0.04914873  1
  Se  Se144  1  0.59184619  0.92236340  0.56158524  1
  Se  Se145  1  0.91996026  0.24793617  0.05200142  1
  Se  Se146  1  0.91642860  0.25796391  0.55698498  1
  Se  Se147  1  0.91858048  0.58307453  0.04916467  1
  Se  Se148  1  0.91529483  0.58682725  0.55072122  1
  Se  Se149  1  0.92216454  0.92191211  0.07388470  1
  Se  Se150  1  0.92318093  0.91935020  0.56364536  1
  Se  Se151  1  0.07062931  0.26175090  0.44218825  1
  Se  Se152  1  0.07649460  0.25547877  0.93708274  1
  Se  Se153  1  0.07626390  0.58932852  0.43558994  1
  Se  Se154  1  0.08545502  0.58308814  0.94626035  1
  Se  Se155  1  0.08859888  0.90870374  0.44396725  1
  Se  Se156  1  0.08375784  0.91629202  0.95292253  1
  Se  Se157  1  0.41950705  0.24408990  0.44679042  1
  Se  Se158  1  0.41641831  0.26122214  0.94296166  1
  Se  Se159  1  0.41127685  0.58743462  0.44311465  1
  Se  Se160  1  0.40759773  0.59400838  0.93974671  1
  Se  Se161  1  0.41154439  0.91908967  0.43641344  1
  Se  Se162  1  0.41444363  0.91425047  0.94161864  1
  Se  Se163  1  0.73922055  0.26034525  0.43539620  1
  Se  Se164  1  0.75824429  0.23169852  0.95094660  1
  Se  Se165  1  0.74394342  0.59011748  0.44480036  1
  Se  Se166  1  0.75208131  0.58079383  0.95090362  1
  Se  Se167  1  0.74405737  0.92626633  0.44064276  1
  Se  Se168  1  0.74687013  0.91552498  0.94393967  1
  Se  Se169  1  0.25633894  0.07071134  0.43553284  1
  Se  Se170  1  0.25603016  0.08276381  0.93600944  1
  Se  Se171  1  0.25368770  0.40940651  0.44380444  1
  Se  Se172  1  0.25163413  0.42427890  0.94851258  1
  Se  Se173  1  0.24740955  0.74722430  0.44394263  1
  Se  Se174  1  0.24217510  0.75662515  0.94590066  1
  Se  Se175  1  0.57797947  0.08847721  0.44605016  1
  Se  Se176  1  0.58374992  0.06989144  0.93398812  1
  Se  Se177  1  0.58485567  0.41696244  0.43714968  1
  Se  Se178  1  0.59015074  0.40521367  0.94411770  1
  Se  Se179  1  0.59507254  0.74230524  0.44534684  1
  Se  Se180  1  0.57816450  0.75179878  0.95089630  1
  Se  Se181  1  0.92541135  0.06993939  0.44211624  1
  Se  Se182  1  0.91481130  0.07924858  0.95587311  1
  Se  Se183  1  0.90474008  0.42823500  0.44586310  1
  Se  Se184  1  0.91503868  0.41818206  0.94582129  1
  Se  Se185  1  0.92111945  0.74610142  0.43407399  1
  Se  Se186  1  0.92123598  0.74620247  0.94221367  1
  Se  Se187  1  0.25525401  0.25058782  0.30148172  1
  Se  Se188  1  0.25240615  0.25156184  0.80272742  1
  Se  Se189  1  0.25095301  0.58550666  0.30142241  1
  Se  Se190  1  0.24938793  0.58730818  0.80667344  1
  Se  Se191  1  0.25662761  0.91732543  0.29638915  1
  Se  Se192  1  0.24714819  0.91739342  0.80534203  1
  Se  Se193  1  0.57976762  0.25207711  0.30264245  1
  Se  Se194  1  0.58640355  0.24639223  0.80447898  1
  Se  Se195  1  0.57575935  0.57331587  0.31345003  1
  Se  Se196  1  0.58016997  0.57821347  0.81806264  1
  Se  Se197  1  0.58118737  0.91886761  0.29825300  1
  Se  Se198  1  0.59351511  0.91892713  0.79907392  1
  Se  Se199  1  0.91013426  0.24761708  0.31156611  1
  Se  Se200  1  0.91239558  0.24550704  0.81345050  1
  Se  Se201  1  0.91549393  0.58077415  0.29038860  1
  Se  Se202  1  0.91919812  0.58218847  0.80120893  1
  Se  Se203  1  0.91511809  0.91764649  0.30122677  1
  Se  Se204  1  0.92008301  0.92111538  0.81032780  1
  Se  Se205  1  0.08675877  0.08260137  0.30261563  1
  Se  Se206  1  0.08249724  0.08243685  0.80558288  1
  Se  Se207  1  0.08838403  0.42504139  0.30875788  1
  Se  Se208  1  0.08828248  0.41986291  0.81083167  1
  Se  Se209  1  0.07140561  0.74137222  0.29773163  1
  Se  Se210  1  0.07991785  0.74878238  0.80511569  1
  Se  Se211  1  0.41747004  0.08257655  0.30147745  1
  Se  Se212  1  0.41420487  0.08144820  0.79894135  1
  Se  Se213  1  0.41306903  0.41440341  0.30326126  1
  Se  Se214  1  0.41105115  0.41293659  0.80120594  1
  Se  Se215  1  0.41523000  0.74812890  0.30186106  1
  Se  Se216  1  0.41647600  0.75749881  0.80024092  1
  Se  Se217  1  0.74566596  0.08689152  0.29861015  1
  Se  Se218  1  0.75022786  0.07985281  0.80571773  1
  Se  Se219  1  0.74539503  0.41280184  0.29064246  1
  Se  Se220  1  0.75162668  0.41032709  0.80588137  1
  Se  Se221  1  0.75654324  0.75630170  0.31267598  1
  Se  Se222  1  0.75858681  0.75540069  0.81548181  1
  Se  Se223  1  0.25794776  0.08174910  0.19814767  1
  Se  Se224  1  0.25190788  0.08140010  0.69579260  1
  Se  Se225  1  0.24979725  0.41655879  0.19657868  1
  Se  Se226  1  0.24990904  0.41561782  0.70295316  1
  Se  Se227  1  0.25698371  0.74689026  0.19169799  1
  Se  Se228  1  0.24802441  0.75137632  0.69613869  1
  Se  Se229  1  0.58100306  0.08919725  0.19093034  1
  Se  Se230  1  0.58675633  0.08126178  0.69430982  1
  Se  Se231  1  0.58561344  0.41481580  0.19682544  1
  Se  Se232  1  0.57573302  0.42685617  0.69979699  1
  Se  Se233  1  0.57530885  0.75551299  0.18927901  1
  Se  Se234  1  0.58045676  0.75781093  0.69343618  1
  Se  Se235  1  0.91534499  0.08778745  0.20638944  1
  Se  Se236  1  0.92220251  0.08234194  0.70290337  1
  Se  Se237  1  0.91739527  0.41860341  0.17890876  1
  Se  Se238  1  0.91356836  0.41989653  0.68769401  1
  Se  Se239  1  0.91544494  0.74778553  0.19872762  1
  Se  Se240  1  0.91656073  0.74934791  0.70045922  1
  Se  Se241  1  0.09291170  0.24250513  0.18769577  1
  Se  Se242  1  0.09518656  0.23933114  0.68781545  1
  Se  Se243  1  0.08248235  0.58459950  0.19018168  1
  Se  Se244  1  0.08317340  0.58767820  0.69914705  1
  Se  Se245  1  0.07616294  0.92760859  0.20289744  1
  Se  Se246  1  0.08204600  0.91668108  0.69721221  1
  Se  Se247  1  0.41355296  0.25467022  0.19621075  1
  Se  Se248  1  0.41964868  0.24640905  0.69558674  1
  Se  Se249  1  0.41663328  0.58541510  0.20092965  1
  Se  Se250  1  0.41619904  0.59395122  0.71175602  1
  Se  Se251  1  0.41433684  0.91900400  0.18924020  1
  Se  Se252  1  0.42188396  0.91346693  0.69891025  1
  Se  Se253  1  0.75576998  0.25666326  0.19159136  1
  Se  Se254  1  0.74941367  0.24801309  0.69983495  1
  Se  Se255  1  0.75295293  0.57942994  0.19096262  1
  Se  Se256  1  0.75789840  0.57713169  0.69154000  1
  Se  Se257  1  0.74311641  0.91708542  0.19840928  1
  Se  Se258  1  0.75342699  0.91870697  0.70284849  1
