# generated using pymatgen
data_In86Cu29Se144
_symmetry_space_group_name_H-M   'P 1'
_cell_length_a   17.58138742
_cell_length_b   17.58206738
_cell_length_c   23.44139616
_cell_angle_alpha   90.00002944
_cell_angle_beta   90.00599307
_cell_angle_gamma   90.00269488
_symmetry_Int_Tables_number   1
_chemical_formula_structural   In86Cu29Se144
_chemical_formula_sum   'In86 Cu29 Se144'
_cell_volume   7246.13724897
_cell_formula_units_Z   1
loop_
 _symmetry_equiv_pos_site_id
 _symmetry_equiv_pos_as_xyz
  1  'x, y, z'
loop_
 _atom_site_type_symbol
 _atom_site_label
 _atom_site_symmetry_multiplicity
 _atom_site_fract_x
 _atom_site_fract_y
 _atom_site_fract_z
 _atom_site_occupancy
  In  In0  1  -0.01073322  0.15911711  0.11098983  1
  In  In1  1  0.00800854  0.15514721  0.63034700  1
  In  In2  1  0.01516520  0.50839484  0.10789170  1
  In  In3  1  -0.00881484  0.51727742  0.64304521  1
  In  In4  1  -0.00003728  0.82544495  0.13514020  1
  In  In5  1  0.00103421  0.83224115  0.62749006  1
  In  In6  1  0.33376196  0.18038469  0.13082811  1
  In  In7  1  0.32972778  0.16380810  0.61568542  1
  In  In8  1  0.33076052  0.50103638  0.12333430  1
  In  In9  1  0.33011093  0.48966404  0.62572596  1
  In  In10  1  0.32365726  0.82023674  0.12107456  1
  In  In11  1  0.33745492  0.84163861  0.61831765  1
  In  In12  1  0.67790756  0.15556732  0.12533731  1
  In  In13  1  0.65491117  0.16228168  0.62211151  1
  In  In14  1  0.66497856  0.50296236  0.11369176  1
  In  In15  1  0.66968285  0.51133052  0.62627382  1
  In  In16  1  0.67196563  0.85031253  0.12404670  1
  In  In17  1  0.67052338  0.82715115  0.63628204  1
  In  In18  1  0.15545134  0.00279309  0.37751590  1
  In  In19  1  0.15908088  0.00906655  0.88303097  1
  In  In20  1  0.16647765  0.32047129  0.37388192  1
  In  In21  1  0.12472807  0.35246269  0.90947046  1
  In  In22  1  0.17190966  0.67495830  0.37194329  1
  In  In23  1  0.16226610  0.67138787  0.87933311  1
  In  In24  1  0.51679846  0.00014091  0.37731912  1
  In  In25  1  0.50259173  -0.01401903  0.87491988  1
  In  In26  1  0.48406964  0.34455399  0.38045824  1
  In  In27  1  0.50895112  0.33980823  0.87742203  1
  In  In28  1  0.48262004  0.66694615  0.37850982  1
  In  In29  1  0.50114631  0.66457124  0.87774349  1
  In  In30  1  0.81939908  -0.01469860  0.35691040  1
  In  In31  1  0.83911089  -0.00417031  0.86187622  1
  In  In32  1  0.83451404  0.33823376  0.37075199  1
  In  In33  1  0.86073758  0.31553967  0.89765586  1
  In  In34  1  0.85114828  0.67465578  0.36974399  1
  In  In35  1  0.82720220  0.66753059  0.86939251  1
  In  In36  1  0.01519685  0.16180983  0.37986545  1
  In  In37  1  0.00025275  0.16085456  0.87267888  1
  In  In38  1  -0.00859807  0.51015722  0.37106273  1
  In  In39  1  0.00094955  0.50156023  0.87966799  1
  In  In40  1  -0.00199477  0.83881235  0.37805370  1
  In  In41  1  0.00171929  0.84430802  0.86208324  1
  In  In42  1  0.32310128  0.17433913  0.37532106  1
  In  In43  1  0.31864371  0.16347482  0.87772258  1
  In  In44  1  0.33827132  0.51261940  0.36488840  1
  In  In45  1  0.32565430  0.50105524  0.88447183  1
  In  In46  1  0.32860104  0.81047132  0.37583350  1
  In  In47  1  0.33504448  0.83067493  0.88333379  1
  In  In48  1  0.66859001  0.14596147  0.37926222  1
  In  In49  1  0.68175387  0.16736180  0.87402714  1
  In  In50  1  0.66122347  0.49153459  0.37762084  1
  In  In51  1  0.66587242  0.50583911  0.87965122  1
  In  In52  1  0.66783688  0.85270055  0.37790838  1
  In  In53  1  0.65853942  0.82023740  0.85317198  1
  In  In54  1  0.15405090  -0.01719097  0.11730807  1
  In  In55  1  0.16303359  -0.00499933  0.61715310  1
  In  In56  1  0.16981289  0.34142660  0.11403493  1
  In  In57  1  0.16508602  0.32503513  0.62766270  1
  In  In58  1  0.16670286  0.66780650  0.12450303  1
  In  In59  1  0.15290160  0.66621095  0.62756800  1
  In  In60  1  0.51870158  -0.00172622  0.12731794  1
  In  In61  1  0.49995997  0.00273981  0.62344317  1
  In  In62  1  0.48852653  0.33659442  0.12785224  1
  In  In63  1  0.49647575  0.33007495  0.61659078  1
  In  In64  1  0.49034488  0.65771111  0.11952488  1
  In  In65  1  0.51582924  0.67080155  0.62279683  1
  In  In66  1  0.82788707  -0.00123995  0.12902263  1
  In  In67  1  0.84057551  -0.01200381  0.63557908  1
  In  In68  1  0.85200699  0.34315523  0.10195604  1
  In  In69  1  0.83788836  0.34560360  0.63204657  1
  In  In70  1  0.85618902  0.67744761  0.12380568  1
  In  In71  1  0.81981900  0.68645640  0.64978358  1
  In  In72  1  0.67343884  0.33792721  0.75505808  1
  In  In73  1  0.66494442  0.67369645  0.25015503  1
  In  In74  1  0.49942627  0.83331648  0.49851308  1
  In  In75  1  0.49999513  0.16862003  0.01009046  1
  In  In76  1  0.16805861  0.50289702  0.50373885  1
  In  In77  1  0.66792043  0.32110434  0.24832088  1
  In  In78  1  0.83098646  0.50712110  0.50556001  1
  In  In79  1  0.00553816  0.33359781  0.24194786  1
  In  In80  1  0.33035014  0.66586081  0.75610964  1
  In  In81  1  0.83019339  0.83394422  -0.00743492  1
  In  In82  1  0.33223634  -0.00197238  0.25138848  1
  In  In83  1  0.32199665  0.33304155  0.75229249  1
  In  In84  1  0.83538883  0.15829816  0.50348196  1
  In  In85  1  0.33512599  -0.00336972  0.74095058  1
  Cu  Cu86  1  0.66998372  -0.00056741  -0.00179216  1
  Cu  Cu87  1  0.00579346  0.66860776  0.00036092  1
  Cu  Cu88  1  0.49252673  0.50129931  0.24752868  1
  Cu  Cu89  1  0.67114736  0.66910353  0.50461114  1
  Cu  Cu90  1  0.83620821  0.16526728  0.75241286  1
  Cu  Cu91  1  -0.00205115  0.67956496  0.50346644  1
  Cu  Cu92  1  0.83980408  0.49549606  0.76161899  1
  Cu  Cu93  1  0.50392801  0.50511112  0.75257890  1
  Cu  Cu94  1  0.16749230  0.84123857  0.74930243  1
  Cu  Cu95  1  0.16127781  0.82715947  0.24994930  1
  Cu  Cu96  1  0.84090723  0.16523468  0.24363632  1
  Cu  Cu97  1  0.66380537  0.67352919  -0.00603459  1
  Cu  Cu98  1  -0.00436955  -0.00377245  -0.00694694  1
  Cu  Cu99  1  0.33430611  -0.00531241  0.00243607  1
  Cu  Cu100  1  0.33514861  0.33520996  0.00438824  1
  Cu  Cu101  1  0.00511466  0.33495547  0.50611133  1
  Cu  Cu102  1  0.33127191  0.00368717  0.49448343  1
  Cu  Cu103  1  0.83776521  0.51159022  0.24212897  1
  Cu  Cu104  1  0.16516884  0.50052964  0.24053583  1
  Cu  Cu105  1  0.49803771  0.15891492  0.74590732  1
  Cu  Cu106  1  0.00245217  -0.00387710  0.50217856  1
  Cu  Cu107  1  0.33178887  0.33318563  0.49874845  1
  Cu  Cu108  1  0.65802291  0.32554673  0.49627486  1
  Cu  Cu109  1  0.33142313  0.66564024  0.00092945  1
  Cu  Cu110  1  0.16740638  0.16538362  0.24845138  1
  Cu  Cu111  1  0.49839308  0.83225734  0.25386150  1
  Cu  Cu112  1  0.50365221  0.16866739  0.25079337  1
  Cu  Cu113  1  0.66865203  0.33906528  -0.00291564  1
  Cu  Cu114  1  0.15420866  0.16797325  0.75466587  1
  Se  Se115  1  0.08103955  0.07487235  0.04993533  1
  Se  Se116  1  0.08461765  0.08642475  0.55083936  1
  Se  Se117  1  0.06904798  0.39921005  0.04694583  1
  Se  Se118  1  0.07309435  0.42233898  0.56745569  1
  Se  Se119  1  0.08084188  0.75434464  0.05899824  1
  Se  Se120  1  0.08887140  0.75617985  0.55464967  1
  Se  Se121  1  0.41018657  0.07421230  0.06703980  1
  Se  Se122  1  0.41638852  0.07967995  0.55212601  1
  Se  Se123  1  0.41968042  0.42089731  0.05403606  1
  Se  Se124  1  0.41358052  0.41725751  0.55249847  1
  Se  Se125  1  0.41703440  0.75051052  0.05195838  1
  Se  Se126  1  0.41229809  0.73887988  0.55674612  1
  Se  Se127  1  0.75610380  0.07958367  0.05106175  1
  Se  Se128  1  0.74827930  0.07171367  0.56542045  1
  Se  Se129  1  0.75294291  0.42498172  0.04677349  1
  Se  Se130  1  0.73907204  0.40590742  0.55747048  1
  Se  Se131  1  0.74462553  0.74548598  0.05996446  1
  Se  Se132  1  0.75210080  0.74778865  0.56250403  1
  Se  Se133  1  0.25338078  0.24686184  0.05357448  1
  Se  Se134  1  0.24601083  0.25276557  0.55270077  1
  Se  Se135  1  0.24665376  0.58278305  0.05469567  1
  Se  Se136  1  0.25681289  0.59245025  0.56359650  1
  Se  Se137  1  0.24866395  0.90949313  0.05244049  1
  Se  Se138  1  0.25240184  0.91820397  0.54946107  1
  Se  Se139  1  0.59493755  0.26074013  0.06555746  1
  Se  Se140  1  0.57635383  0.24273024  0.55028850  1
  Se  Se141  1  0.58146331  0.58819207  0.04875056  1
  Se  Se142  1  0.58637169  0.58099895  0.55107362  1
  Se  Se143  1  0.58430204  0.91632257  0.04914378  1
  Se  Se144  1  0.59172213  0.91492817  0.56102938  1
  Se  Se145  1  0.91577081  0.24312641  0.03915551  1
  Se  Se146  1  0.91982965  0.25632507  0.56275911  1
  Se  Se147  1  0.91558610  0.58745980  0.04949980  1
  Se  Se148  1  0.91775988  0.59776850  0.56422361  1
  Se  Se149  1  0.91987541  0.91675314  0.05798778  1
  Se  Se150  1  0.91876136  0.91587018  0.55780778  1
  Se  Se151  1  0.08513545  0.25195103  0.45087956  1
  Se  Se152  1  0.10023740  0.21687600  0.94368524  1
  Se  Se153  1  0.07184133  0.59046508  0.44459448  1
  Se  Se154  1  0.08870159  0.58247344  0.94939140  1
  Se  Se155  1  0.08778216  0.91267883  0.44951144  1
  Se  Se156  1  0.08010517  0.91106227  0.94236506  1
  Se  Se157  1  0.41338882  0.24709299  0.44528416  1
  Se  Se158  1  0.41350071  0.25433579  0.94136886  1
  Se  Se159  1  0.41663995  0.57343664  0.44576111  1
  Se  Se160  1  0.41588552  0.58380927  0.94600665  1
  Se  Se161  1  0.40861360  0.92016214  0.43362597  1
  Se  Se162  1  0.42014795  0.91532267  0.94941358  1
  Se  Se163  1  0.74904636  0.25518702  0.43970731  1
  Se  Se164  1  0.74891328  0.24699150  0.95088430  1
  Se  Se165  1  0.74688990  0.59225895  0.43602769  1
  Se  Se166  1  0.75139192  0.59051351  0.94541870  1
  Se  Se167  1  0.75545761  0.92681834  0.44525397  1
  Se  Se168  1  0.73994995  0.91930760  0.93104853  1
  Se  Se169  1  0.24507474  0.08540256  0.44202354  1
  Se  Se170  1  0.25083604  0.08064893  0.95287902  1
  Se  Se171  1  0.25177626  0.41373608  0.43769421  1
  Se  Se172  1  0.24741762  0.41552794  0.95275222  1
  Se  Se173  1  0.24923361  0.74088648  0.45082909  1
  Se  Se174  1  0.24793213  0.75065511  0.94882948  1
  Se  Se175  1  0.58487853  0.07961771  0.45352678  1
  Se  Se176  1  0.58581604  0.08435215  0.94211922  1
  Se  Se177  1  0.57806167  0.41699931  0.44827713  1
  Se  Se178  1  0.58134613  0.42277390  0.94930680  1
  Se  Se179  1  0.59185402  0.74338938  0.43732700  1
  Se  Se180  1  0.58575973  0.75781095  0.93834458  1
  Se  Se181  1  0.92237032  0.07371982  0.43874791  1
  Se  Se182  1  0.91094241  0.07581461  0.93810000  1
  Se  Se183  1  0.92335909  0.41254245  0.44509646  1
  Se  Se184  1  0.91076438  0.43100896  0.95151917  1
  Se  Se185  1  0.91203322  0.75735829  0.44828959  1
  Se  Se186  1  0.92697604  0.74687717  0.93680562  1
  Se  Se187  1  0.24960707  0.25238629  0.29781142  1
  Se  Se188  1  0.23225765  0.24948681  0.81440840  1
  Se  Se189  1  0.24221114  0.58415148  0.30081341  1
  Se  Se190  1  0.23935429  0.57299347  0.81036519  1
  Se  Se191  1  0.24335005  0.90688117  0.31122533  1
  Se  Se192  1  0.24938167  0.91664889  0.81162143  1
  Se  Se193  1  0.57918566  0.24601136  0.31810494  1
  Se  Se194  1  0.57586767  0.24155743  0.80682400  1
  Se  Se195  1  0.57640558  0.57719216  0.30823867  1
  Se  Se196  1  0.58664476  0.58573927  0.80679435  1
  Se  Se197  1  0.58405844  0.91847677  0.30021150  1
  Se  Se198  1  0.58631807  0.92654243  0.79854149  1
  Se  Se199  1  0.91625044  0.24487903  0.30756475  1
  Se  Se200  1  0.91626891  0.24958843  0.80761488  1
  Se  Se201  1  0.92298929  0.59149854  0.29510525  1
  Se  Se202  1  0.92121278  0.58568563  0.80880671  1
  Se  Se203  1  0.93811635  0.93574811  0.30688526  1
  Se  Se204  1  0.90417911  0.90236793  0.79148284  1
  Se  Se205  1  0.08330261  0.08370141  0.30107792  1
  Se  Se206  1  0.07907265  0.07229640  0.80259965  1
  Se  Se207  1  0.08887620  0.42445095  0.30911009  1
  Se  Se208  1  0.07978464  0.40893038  0.81531565  1
  Se  Se209  1  0.07692966  0.74940283  0.30819206  1
  Se  Se210  1  0.09093423  0.75363674  0.80401104  1
  Se  Se211  1  0.42323487  0.08765541  0.31137600  1
  Se  Se212  1  0.41562822  0.08791131  0.81021470  1
  Se  Se213  1  0.41092163  0.41493564  0.30009664  1
  Se  Se214  1  0.42098849  0.42313667  0.80883668  1
  Se  Se215  1  0.41396681  0.74467789  0.29961450  1
  Se  Se216  1  0.42296566  0.75958423  0.80802711  1
  Se  Se217  1  0.74984892  0.08985630  0.29710232  1
  Se  Se218  1  0.74761233  0.08231140  0.79991167  1
  Se  Se219  1  0.75734860  0.42905522  0.30012799  1
  Se  Se220  1  0.76257353  0.41363901  0.82291716  1
  Se  Se221  1  0.75338936  0.76036205  0.31134577  1
  Se  Se222  1  0.76553022  0.75749206  0.79486880  1
  Se  Se223  1  0.24320356  0.08214313  0.18669085  1
  Se  Se224  1  0.23982760  0.09366777  0.69187120  1
  Se  Se225  1  0.24790887  0.41384614  0.19100316  1
  Se  Se226  1  0.23221810  0.42717411  0.69632340  1
  Se  Se227  1  0.24872161  0.74625171  0.19841802  1
  Se  Se228  1  0.24956860  0.76098830  0.69057063  1
  Se  Se229  1  0.58866413  0.08815731  0.19831919  1
  Se  Se230  1  0.58454375  0.07794131  0.69630341  1
  Se  Se231  1  0.58274481  0.42414036  0.19323852  1
  Se  Se232  1  0.57673687  0.41847335  0.69105837  1
  Se  Se233  1  0.57498487  0.75724508  0.18577289  1
  Se  Se234  1  0.58824262  0.73865264  0.70096493  1
  Se  Se235  1  0.92229966  0.08121429  0.19056515  1
  Se  Se236  1  0.91931932  0.08171317  0.69892560  1
  Se  Se237  1  0.91609275  0.42674617  0.18454136  1
  Se  Se238  1  0.92184071  0.41465774  0.70511696  1
  Se  Se239  1  0.90042473  0.76542017  0.20309477  1
  Se  Se240  1  0.94946560  0.72188561  0.69183779  1
  Se  Se241  1  0.08901402  0.24028145  0.18209468  1
  Se  Se242  1  0.07622817  0.25274451  0.69760642  1
  Se  Se243  1  0.07865170  0.58317264  0.19069503  1
  Se  Se244  1  0.08880155  0.58763156  0.70566117  1
  Se  Se245  1  0.08195103  0.91641965  0.19959176  1
  Se  Se246  1  0.08498214  0.92227119  0.69343610  1
  Se  Se247  1  0.41836240  0.25380549  0.20304150  1
  Se  Se248  1  0.41688752  0.24348371  0.69155192  1
  Se  Se249  1  0.41001215  0.58556206  0.19510652  1
  Se  Se250  1  0.42006779  0.57843823  0.69073800  1
  Se  Se251  1  0.42123615  0.91090969  0.18834905  1
  Se  Se252  1  0.43205467  0.90191602  0.69307917  1
  Se  Se253  1  0.76923308  0.25344856  0.18286072  1
  Se  Se254  1  0.75456566  0.24303071  0.68975668  1
  Se  Se255  1  0.75147334  0.58610370  0.18459142  1
  Se  Se256  1  0.75441045  0.57297754  0.70304020  1
  Se  Se257  1  0.74975375  0.91774427  0.20038407  1
  Se  Se258  1  0.75949773  0.90495205  0.70385825  1
