# generated using pymatgen
data_In86Cu29Se144
_symmetry_space_group_name_H-M   'P 1'
_cell_length_a   17.57859083
_cell_length_b   17.58277778
_cell_length_c   23.44031563
_cell_angle_alpha   89.99343631
_cell_angle_beta   90.01808657
_cell_angle_gamma   89.99388609
_symmetry_Int_Tables_number   1
_chemical_formula_structural   In86Cu29Se144
_chemical_formula_sum   'In86 Cu29 Se144'
_cell_volume   7244.94300105
_cell_formula_units_Z   1
loop_
 _symmetry_equiv_pos_site_id
 _symmetry_equiv_pos_as_xyz
  1  'x, y, z'
loop_
 _atom_site_type_symbol
 _atom_site_label
 _atom_site_symmetry_multiplicity
 _atom_site_fract_x
 _atom_site_fract_y
 _atom_site_fract_z
 _atom_site_occupancy
  In  In0  1  -0.02290231  0.18195712  0.14446348  1
  In  In1  1  -0.01473944  0.18328478  0.62147148  1
  In  In2  1  -0.00215845  0.48989481  0.11493050  1
  In  In3  1  -0.00793878  0.50651136  0.62500224  1
  In  In4  1  0.00135243  0.83884613  0.12248394  1
  In  In5  1  -0.00988999  0.81817916  0.62384116  1
  In  In6  1  0.34213894  0.17885635  0.13198942  1
  In  In7  1  0.34483365  0.16233505  0.61712691  1
  In  In8  1  0.33204468  0.49811295  0.12518141  1
  In  In9  1  0.34436097  0.50301753  0.62419448  1
  In  In10  1  0.31783513  0.82767373  0.12295733  1
  In  In11  1  0.32340236  0.82202171  0.62023044  1
  In  In12  1  0.67871872  0.16512669  0.12309473  1
  In  In13  1  0.66352056  0.16333783  0.62256499  1
  In  In14  1  0.67636462  0.50555203  0.11698898  1
  In  In15  1  0.67111052  0.49901602  0.62398400  1
  In  In16  1  0.66467757  0.81467163  0.12420170  1
  In  In17  1  0.66651927  0.83960258  0.63587051  1
  In  In18  1  0.15207568  -0.00114081  0.37437169  1
  In  In19  1  0.15424548  -0.00136389  0.88027863  1
  In  In20  1  0.16826890  0.33842994  0.35957653  1
  In  In21  1  0.16910841  0.34379198  0.88191148  1
  In  In22  1  0.18209574  0.65556402  0.37156332  1
  In  In23  1  0.16546839  0.66846383  0.87789437  1
  In  In24  1  0.50286674  -0.00536287  0.38459045  1
  In  In25  1  0.50814996  -0.00574965  0.86907082  1
  In  In26  1  0.49946250  0.34711515  0.39671089  1
  In  In27  1  0.51853627  0.33651248  0.86973297  1
  In  In28  1  0.49907162  0.66099761  0.37971368  1
  In  In29  1  0.49589727  0.66396276  0.86600839  1
  In  In30  1  0.84819385  0.00950901  0.37061843  1
  In  In31  1  0.82079521  0.00560368  0.88034312  1
  In  In32  1  0.84538686  0.32795824  0.39793024  1
  In  In33  1  0.82473973  0.34483575  0.88687173  1
  In  In34  1  0.81711576  0.66787606  0.37070705  1
  In  In35  1  0.83397062  0.66355316  0.87079299  1
  In  In36  1  -0.00645949  0.17279877  0.37015811  1
  In  In37  1  -0.01046277  0.15791824  0.87689298  1
  In  In38  1  -0.00704695  0.47130160  0.36838901  1
  In  In39  1  -0.01838985  0.51366547  0.89180282  1
  In  In40  1  -0.00226369  0.84668740  0.37648947  1
  In  In41  1  0.00769470  0.82401023  0.88234999  1
  In  In42  1  0.33802620  0.17782028  0.37538697  1
  In  In43  1  0.34233247  0.16176565  0.87162400  1
  In  In44  1  0.33805373  0.50772920  0.36694896  1
  In  In45  1  0.32650143  0.51270198  0.88307993  1
  In  In46  1  0.34169800  0.82075194  0.38237995  1
  In  In47  1  0.33565709  0.81878721  0.87496525  1
  In  In48  1  0.67787712  0.16945864  0.38838941  1
  In  In49  1  0.67555827  0.18621763  0.85785016  1
  In  In50  1  0.65989521  0.49899978  0.38594191  1
  In  In51  1  0.66770848  0.50105726  0.87287829  1
  In  In52  1  0.66417243  0.81860895  0.37779546  1
  In  In53  1  0.68336127  0.83769863  0.85602967  1
  In  In54  1  0.15758003  -0.01708430  0.12243518  1
  In  In55  1  0.17849206  -0.00121026  0.62171983  1
  In  In56  1  0.15120442  0.34955847  0.14306665  1
  In  In57  1  0.15827938  0.35057792  0.62090956  1
  In  In58  1  0.17166494  0.67317081  0.12242034  1
  In  In59  1  0.15215456  0.67338743  0.63179959  1
  In  In60  1  0.50166319  0.00655839  0.12634669  1
  In  In61  1  0.51727880  0.00407177  0.61460732  1
  In  In62  1  0.48429931  0.34408987  0.13110220  1
  In  In63  1  0.51938442  0.34341561  0.60971114  1
  In  In64  1  0.50739937  0.64972407  0.13090554  1
  In  In65  1  0.49897486  0.66440738  0.62657186  1
  In  In66  1  0.84566589  0.01005256  0.11579593  1
  In  In67  1  0.80741353  -0.00358755  0.63180134  1
  In  In68  1  0.84306726  0.33753117  0.11628200  1
  In  In69  1  0.80424527  0.31053947  0.59125303  1
  In  In70  1  0.82647105  0.65501046  0.11802700  1
  In  In71  1  0.83925658  0.66762587  0.64109202  1
  In  In72  1  0.15203293  0.17737406  0.01505846  1
  In  In73  1  -0.00188316  -0.00572217  0.75311918  1
  In  In74  1  0.00009792  0.66628737  0.24232211  1
  In  In75  1  0.66922391  0.33522537  0.25758072  1
  In  In76  1  0.16714184  0.16291987  0.48848408  1
  In  In77  1  0.50549401  0.17173957  -0.00058117  1
  In  In78  1  0.82980200  0.83593459  0.50503960  1
  In  In79  1  0.34482537  -0.00384600  0.75354244  1
  In  In80  1  0.67467278  -0.00226448  0.26176501  1
  In  In81  1  0.16019650  0.50188874  0.49241132  1
  In  In82  1  0.50224571  0.82907177  -0.00705176  1
  In  In83  1  0.34817558  0.33731472  0.73885690  1
  In  In84  1  0.32790518  -0.00330944  0.24395864  1
  In  In85  1  -0.00847761  0.34488139  0.75127936  1
  Cu  Cu86  1  0.33453398  0.66487633  0.00020688  1
  Cu  Cu87  1  0.49310647  0.81647473  0.25083769  1
  Cu  Cu88  1  -0.00919105  -0.00650723  -0.00068274  1
  Cu  Cu89  1  0.50279712  0.50145138  0.74615163  1
  Cu  Cu90  1  0.82655531  0.17111492  0.74517172  1
  Cu  Cu91  1  0.32067888  0.00327557  -0.00181924  1
  Cu  Cu92  1  0.67122542  -0.00457308  -0.00478315  1
  Cu  Cu93  1  0.67139951  0.66382238  -0.00581607  1
  Cu  Cu94  1  0.33865715  -0.01237679  0.50184651  1
  Cu  Cu95  1  0.00086618  0.00423731  0.49832345  1
  Cu  Cu96  1  0.67017001  -0.00032472  0.50157582  1
  Cu  Cu97  1  0.16573935  0.51233126  0.75732349  1
  Cu  Cu98  1  0.82634874  0.83834563  0.24977033  1
  Cu  Cu99  1  0.82779379  0.50067242  0.24604726  1
  Cu  Cu100  1  0.50481633  0.16971432  0.25829278  1
  Cu  Cu101  1  0.16529365  0.82795034  0.75090313  1
  Cu  Cu102  1  0.16604526  0.82782875  0.24853386  1
  Cu  Cu103  1  0.82851949  0.49394339  0.75170081  1
  Cu  Cu104  1  0.17477096  0.17893403  0.74936759  1
  Cu  Cu105  1  0.50203480  0.83276124  0.74533885  1
  Cu  Cu106  1  0.16107599  0.16344616  0.25286933  1
  Cu  Cu107  1  0.33286747  0.66193972  0.49957867  1
  Cu  Cu108  1  0.33654271  0.34537981  0.00173895  1
  Cu  Cu109  1  0.00198866  0.66638163  0.00350916  1
  Cu  Cu110  1  0.65918629  0.66532157  0.50424109  1
  Cu  Cu111  1  0.33354127  0.33061725  0.50061620  1
  Cu  Cu112  1  0.66809937  0.33588466  -0.00238141  1
  Cu  Cu113  1  0.00242112  0.66942558  0.50075135  1
  Cu  Cu114  1  0.49939294  0.49944718  0.25796310  1
  Se  Se115  1  0.06690757  0.07403555  0.06406014  1
  Se  Se116  1  0.07903346  0.08485759  0.56200564  1
  Se  Se117  1  0.09070741  0.40772669  0.05434654  1
  Se  Se118  1  0.06412413  0.41319107  0.54938055  1
  Se  Se119  1  0.08353186  0.75267671  0.05588738  1
  Se  Se120  1  0.08452303  0.75396300  0.55291590  1
  Se  Se121  1  0.40607289  0.07973780  0.05617550  1
  Se  Se122  1  0.42125861  0.07715971  0.54888979  1
  Se  Se123  1  0.42415868  0.42667035  0.05213704  1
  Se  Se124  1  0.41428678  0.41741896  0.55249876  1
  Se  Se125  1  0.41682389  0.74461241  0.06092882  1
  Se  Se126  1  0.41504911  0.74490971  0.55501106  1
  Se  Se127  1  0.74978168  0.08242378  0.04965307  1
  Se  Se128  1  0.75502563  0.08264069  0.55307515  1
  Se  Se129  1  0.75425004  0.41769114  0.05013571  1
  Se  Se130  1  0.76647164  0.44028895  0.55062688  1
  Se  Se131  1  0.75069979  0.74797299  0.05027562  1
  Se  Se132  1  0.74511396  0.74202670  0.56398562  1
  Se  Se133  1  0.26069009  0.25987884  0.06036339  1
  Se  Se134  1  0.24748257  0.25562304  0.55978736  1
  Se  Se135  1  0.25174079  0.58438867  0.05631728  1
  Se  Se136  1  0.24670062  0.58650661  0.56070862  1
  Se  Se137  1  0.24586555  0.91330815  0.05052786  1
  Se  Se138  1  0.24653854  0.91082961  0.55046072  1
  Se  Se139  1  0.58879942  0.26219213  0.06491317  1
  Se  Se140  1  0.58356259  0.24037254  0.54915960  1
  Se  Se141  1  0.58631768  0.58501207  0.05055895  1
  Se  Se142  1  0.57879992  0.57910943  0.55773398  1
  Se  Se143  1  0.58720047  0.92294105  0.05778190  1
  Se  Se144  1  0.59373501  0.90692922  0.55245833  1
  Se  Se145  1  0.91731766  0.23909319  0.05533442  1
  Se  Se146  1  0.92491757  0.25785616  0.54115862  1
  Se  Se147  1  0.91607668  0.57960258  0.05078450  1
  Se  Se148  1  0.91530999  0.59852506  0.55952534  1
  Se  Se149  1  0.90859582  0.90687737  0.05154684  1
  Se  Se150  1  0.92056811  0.92861492  0.56374034  1
  Se  Se151  1  0.08360210  0.26295705  0.43605398  1
  Se  Se152  1  0.07402607  0.25399625  0.93859746  1
  Se  Se153  1  0.06952441  0.58994162  0.43182203  1
  Se  Se154  1  0.08699788  0.58431171  0.94907007  1
  Se  Se155  1  0.08379733  0.91582434  0.45107122  1
  Se  Se156  1  0.08343748  0.91414114  0.95201244  1
  Se  Se157  1  0.41874854  0.24434785  0.45213505  1
  Se  Se158  1  0.41184051  0.26155107  0.93972469  1
  Se  Se159  1  0.41438802  0.57595844  0.44715637  1
  Se  Se160  1  0.42329539  0.58895254  0.94553163  1
  Se  Se161  1  0.42393739  0.90511436  0.44974279  1
  Se  Se162  1  0.40764030  0.92750209  0.93958180  1
  Se  Se163  1  0.74791486  0.25616089  0.46010713  1
  Se  Se164  1  0.74450858  0.24480684  0.94484631  1
  Se  Se165  1  0.74634218  0.59081400  0.44740121  1
  Se  Se166  1  0.75517807  0.57818688  0.94260038  1
  Se  Se167  1  0.74853848  0.92393216  0.43458667  1
  Se  Se168  1  0.74740617  0.90577749  0.94265734  1
  Se  Se169  1  0.26320777  0.06852535  0.43612334  1
  Se  Se170  1  0.24563206  0.09120540  0.94210735  1
  Se  Se171  1  0.25511779  0.40958943  0.43878334  1
  Se  Se172  1  0.24796030  0.42565546  0.95145004  1
  Se  Se173  1  0.24711616  0.74336033  0.44629760  1
  Se  Se174  1  0.25088448  0.75080490  0.94863052  1
  Se  Se175  1  0.58655819  0.08201859  0.44737100  1
  Se  Se176  1  0.59093910  0.07979560  0.93832975  1
  Se  Se177  1  0.59727068  0.41109764  0.46149177  1
  Se  Se178  1  0.58451077  0.41951602  0.94562784  1
  Se  Se179  1  0.57777228  0.74915719  0.44971079  1
  Se  Se180  1  0.59373040  0.74567333  0.93211300  1
  Se  Se181  1  0.91970124  0.08958997  0.44621877  1
  Se  Se182  1  0.90974849  0.08212043  0.94926777  1
  Se  Se183  1  0.89863051  0.44724717  0.44956763  1
  Se  Se184  1  0.92786859  0.40314471  0.95072237  1
  Se  Se185  1  0.91701882  0.74689788  0.43926398  1
  Se  Se186  1  0.91668613  0.74213286  0.94450035  1
  Se  Se187  1  0.25196372  0.24354160  0.30133446  1
  Se  Se188  1  0.25423904  0.25622382  0.80925257  1
  Se  Se189  1  0.24235367  0.56893697  0.29684796  1
  Se  Se190  1  0.25438324  0.59211711  0.80702344  1
  Se  Se191  1  0.24532306  0.90919857  0.31098908  1
  Se  Se192  1  0.24208946  0.91368679  0.81038006  1
  Se  Se193  1  0.58069015  0.24776021  0.32105242  1
  Se  Se194  1  0.57786140  0.25192788  0.79343757  1
  Se  Se195  1  0.58528880  0.58014873  0.31096181  1
  Se  Se196  1  0.58570254  0.58269496  0.80209697  1
  Se  Se197  1  0.57166800  0.90406475  0.30725096  1
  Se  Se198  1  0.58622052  0.91770799  0.79633112  1
  Se  Se199  1  0.91617084  0.27123660  0.31207818  1
  Se  Se200  1  0.90699623  0.24630387  0.80896557  1
  Se  Se201  1  0.91020991  0.58111510  0.30693971  1
  Se  Se202  1  0.91751604  0.57398977  0.80408086  1
  Se  Se203  1  0.91552340  0.91657446  0.30063562  1
  Se  Se204  1  0.91367355  0.91280213  0.81957860  1
  Se  Se205  1  0.07575725  0.08263578  0.30508302  1
  Se  Se206  1  0.09251484  0.09521182  0.80478704  1
  Se  Se207  1  0.09633431  0.43541292  0.29687590  1
  Se  Se208  1  0.08564058  0.42822339  0.81306210  1
  Se  Se209  1  0.08401798  0.75256369  0.31177837  1
  Se  Se210  1  0.08174172  0.74679077  0.80553019  1
  Se  Se211  1  0.42224762  0.07997934  0.30862238  1
  Se  Se212  1  0.43746934  0.09645180  0.80062306  1
  Se  Se213  1  0.42494956  0.40972100  0.31314628  1
  Se  Se214  1  0.42018002  0.42692387  0.81117864  1
  Se  Se215  1  0.41125351  0.73771965  0.30739144  1
  Se  Se216  1  0.41548158  0.75213702  0.79808028  1
  Se  Se217  1  0.76166657  0.10251577  0.30674990  1
  Se  Se218  1  0.75030358  0.08269216  0.80113650  1
  Se  Se219  1  0.75813886  0.42468492  0.31631882  1
  Se  Se220  1  0.74746218  0.40926711  0.80590113  1
  Se  Se221  1  0.74273207  0.75201245  0.29844473  1
  Se  Se222  1  0.74216115  0.72927905  0.79862580  1
  Se  Se223  1  0.23810531  0.08986091  0.18549919  1
  Se  Se224  1  0.25193449  0.09250468  0.69404129  1
  Se  Se225  1  0.27486697  0.39261104  0.19046320  1
  Se  Se226  1  0.24101661  0.42909956  0.69469959  1
  Se  Se227  1  0.25301477  0.74505833  0.20008402  1
  Se  Se228  1  0.24918710  0.74536818  0.69737019  1
  Se  Se229  1  0.58316776  0.09092870  0.19743543  1
  Se  Se230  1  0.60423361  0.06208318  0.69085653  1
  Se  Se231  1  0.58273413  0.42506391  0.19365952  1
  Se  Se232  1  0.58408616  0.41690823  0.69264965  1
  Se  Se233  1  0.58354577  0.74149187  0.19778925  1
  Se  Se234  1  0.58418182  0.74525200  0.69573189  1
  Se  Se235  1  0.91449244  0.07211175  0.20026771  1
  Se  Se236  1  0.91232594  0.08920915  0.69106132  1
  Se  Se237  1  0.91321706  0.42144114  0.19172300  1
  Se  Se238  1  0.89940553  0.41607496  0.68308531  1
  Se  Se239  1  0.90353721  0.75584994  0.18760659  1
  Se  Se240  1  0.92174553  0.75444559  0.70637234  1
  Se  Se241  1  0.07700289  0.25296714  0.20611088  1
  Se  Se242  1  0.08819461  0.25212468  0.69142985  1
  Se  Se243  1  0.08715802  0.57618367  0.18364423  1
  Se  Se244  1  0.07671330  0.58137900  0.69743658  1
  Se  Se245  1  0.07981385  0.91274458  0.20027237  1
  Se  Se246  1  0.09152415  0.91220421  0.68928983  1
  Se  Se247  1  0.42176009  0.25354948  0.20603676  1
  Se  Se248  1  0.43358540  0.24440455  0.68189903  1
  Se  Se249  1  0.41608562  0.57722727  0.19835541  1
  Se  Se250  1  0.41359671  0.58520593  0.69898508  1
  Se  Se251  1  0.42447845  0.90432138  0.18808910  1
  Se  Se252  1  0.42169622  0.91129687  0.68240153  1
  Se  Se253  1  0.75785985  0.25123746  0.19185246  1
  Se  Se254  1  0.75080930  0.25387459  0.68510389  1
  Se  Se255  1  0.74462729  0.58588592  0.19544119  1
  Se  Se256  1  0.74730739  0.58096069  0.69882589  1
  Se  Se257  1  0.74770832  0.91573679  0.18512409  1
  Se  Se258  1  0.77266583  0.89260904  0.70218115  1
