# generated using pymatgen
data_In86Cu29Se144
_symmetry_space_group_name_H-M   'P 1'
_cell_length_a   17.67773202
_cell_length_b   17.68524396
_cell_length_c   23.53180346
_cell_angle_alpha   89.98615953
_cell_angle_beta   90.02914909
_cell_angle_gamma   89.98806512
_symmetry_Int_Tables_number   1
_chemical_formula_structural   In86Cu29Se144
_chemical_formula_sum   'In86 Cu29 Se144'
_cell_volume   7356.86412539
_cell_formula_units_Z   1
loop_
 _symmetry_equiv_pos_site_id
 _symmetry_equiv_pos_as_xyz
  1  'x, y, z'
loop_
 _atom_site_type_symbol
 _atom_site_label
 _atom_site_symmetry_multiplicity
 _atom_site_fract_x
 _atom_site_fract_y
 _atom_site_fract_z
 _atom_site_occupancy
  In  In0  1  0.00554977  0.16353169  0.13103246  1
  In  In1  1  0.01579888  0.16741403  0.62311574  1
  In  In2  1  0.00787291  0.49260880  0.13391317  1
  In  In3  1  -0.00722824  0.48967047  0.62847537  1
  In  In4  1  -0.00220595  0.84320903  0.13982113  1
  In  In5  1  0.00032874  0.82945097  0.61387050  1
  In  In6  1  0.32232864  0.17549184  0.11557803  1
  In  In7  1  0.33129065  0.16978118  0.62468785  1
  In  In8  1  0.31448769  0.47882451  0.10225398  1
  In  In9  1  0.33982312  0.48675203  0.63229007  1
  In  In10  1  0.34094875  0.82989391  0.12646924  1
  In  In11  1  0.32725712  0.84416721  0.62989291  1
  In  In12  1  0.66853400  0.17341197  0.12914882  1
  In  In13  1  0.65928230  0.18056873  0.62333059  1
  In  In14  1  0.65984935  0.50603734  0.12511174  1
  In  In15  1  0.66578538  0.50987339  0.62371101  1
  In  In16  1  0.64892437  0.82502734  0.11893691  1
  In  In17  1  0.67552844  0.82770441  0.62123783  1
  In  In18  1  0.16794319  0.00411043  0.37040845  1
  In  In19  1  0.18141995  -0.00309878  0.87535534  1
  In  In20  1  0.15770639  0.32095433  0.37092759  1
  In  In21  1  0.18100799  0.33535106  0.87890776  1
  In  In22  1  0.16697646  0.68297833  0.37064385  1
  In  In23  1  0.16815962  0.65719972  0.87541900  1
  In  In24  1  0.49588131  0.01852115  0.37268910  1
  In  In25  1  0.48673359  0.02181212  0.89151802  1
  In  In26  1  0.49457410  0.33376765  0.36962745  1
  In  In27  1  0.44682419  0.35896006  0.92217606  1
  In  In28  1  0.49731904  0.65014350  0.37131393  1
  In  In29  1  0.49752724  0.68255810  0.87894935  1
  In  In30  1  0.83254850  -0.01460819  0.37806870  1
  In  In31  1  0.82801040  -0.00169343  0.87647503  1
  In  In32  1  0.83631661  0.33979455  0.36772917  1
  In  In33  1  0.84252632  0.33584650  0.87415510  1
  In  In34  1  0.84269176  0.67402139  0.36660190  1
  In  In35  1  0.83837983  0.67235312  0.87792231  1
  In  In36  1  0.01692401  0.18089061  0.37148052  1
  In  In37  1  0.01625535  0.18580135  0.88729351  1
  In  In38  1  -0.00187828  0.49690500  0.36702347  1
  In  In39  1  0.01652332  0.49750080  0.87912467  1
  In  In40  1  0.00189034  0.83414647  0.36872049  1
  In  In41  1  -0.00934957  0.82845409  0.88096310  1
  In  In42  1  0.32888230  0.16945928  0.37277461  1
  In  In43  1  0.33666321  0.16520089  0.87658651  1
  In  In44  1  0.34771362  0.49786514  0.37639671  1
  In  In45  1  0.33256112  0.51212742  0.86959133  1
  In  In46  1  0.31458335  0.83947397  0.37158378  1
  In  In47  1  0.34387365  0.84750793  0.86500470  1
  In  In48  1  0.64723584  0.17048915  0.37247509  1
  In  In49  1  0.63951113  0.17178395  0.88620240  1
  In  In50  1  0.65850026  0.49387615  0.36353642  1
  In  In51  1  0.65528711  0.48301636  0.87771966  1
  In  In52  1  0.67749404  0.83639795  0.37392108  1
  In  In53  1  0.67018832  0.84302533  0.88621185  1
  In  In54  1  0.15593730  0.00703876  0.13743078  1
  In  In55  1  0.17565035  0.01090755  0.61582733  1
  In  In56  1  0.16005995  0.33260906  0.12123604  1
  In  In57  1  0.17237820  0.33176713  0.62923894  1
  In  In58  1  0.17164080  0.65079293  0.12712744  1
  In  In59  1  0.16451676  0.67954334  0.62070786  1
  In  In60  1  0.48582233  -0.01010648  0.12066582  1
  In  In61  1  0.48295039  0.00663081  0.62591075  1
  In  In62  1  0.49837626  0.33040916  0.11590018  1
  In  In63  1  0.49173645  0.32510500  0.61954622  1
  In  In64  1  0.49986100  0.66555583  0.12093735  1
  In  In65  1  0.50063505  0.64944845  0.62454054  1
  In  In66  1  0.84338162  -0.00218937  0.12956456  1
  In  In67  1  0.84508197  -0.00281469  0.62320732  1
  In  In68  1  0.83929002  0.32456616  0.13418873  1
  In  In69  1  0.84098278  0.34220941  0.62850059  1
  In  In70  1  0.82495636  0.67309074  0.13099911  1
  In  In71  1  0.82926440  0.66822041  0.62193175  1
  In  In72  1  0.83244341  0.50077137  -0.00227170  1
  In  In73  1  0.66695374  -0.00123269  0.75482061  1
  In  In74  1  0.83886893  0.16276813  0.00519018  1
  In  In75  1  0.16615633  0.82845257  0.00502763  1
  In  In76  1  0.00915401  -0.00012283  0.75458955  1
  In  In77  1  0.67093984  0.66591924  0.74763801  1
  In  In78  1  0.83157962  0.16519157  0.49974501  1
  In  In79  1  0.83130749  0.50101534  0.49714507  1
  In  In80  1  0.49982567  0.83515835  0.50033364  1
  In  In81  1  0.66447623  0.33012465  0.75572672  1
  In  In82  1  0.33849026  0.65862054  0.24761970  1
  In  In83  1  0.00297229  0.66150360  0.74792402  1
  In  In84  1  0.16983323  0.49997344  0.50464059  1
  In  In85  1  0.66389175  0.00228201  0.25001393  1
  Cu  Cu86  1  0.66768274  0.32815683  0.00402797  1
  Cu  Cu87  1  0.49515483  0.49137670  0.24136831  1
  Cu  Cu88  1  0.49921834  0.83496758  0.75111122  1
  Cu  Cu89  1  0.49863854  0.83076485  0.24535482  1
  Cu  Cu90  1  0.48924525  0.16576601  0.75289804  1
  Cu  Cu91  1  0.00152409  0.67212082  0.49128184  1
  Cu  Cu92  1  0.82789271  0.49938443  0.24565949  1
  Cu  Cu93  1  0.33006543  0.00152420  0.00213876  1
  Cu  Cu94  1  0.48889147  0.17514404  0.24595066  1
  Cu  Cu95  1  0.17167451  0.17249139  0.24812907  1
  Cu  Cu96  1  0.83126814  0.83028910  0.25183849  1
  Cu  Cu97  1  0.17630194  0.17158086  0.74939538  1
  Cu  Cu98  1  0.33360411  0.33042181  0.50056365  1
  Cu  Cu99  1  0.00073597  -0.00235348  0.00998857  1
  Cu  Cu100  1  0.00035158  -0.00524481  0.49392420  1
  Cu  Cu101  1  0.32929465  0.00462361  0.49915117  1
  Cu  Cu102  1  0.66005985  0.66526673  0.00249310  1
  Cu  Cu103  1  0.33561816  0.66903548  0.49535825  1
  Cu  Cu104  1  0.65623348  0.33518025  0.49391693  1
  Cu  Cu105  1  0.16692656  0.83240266  0.74571938  1
  Cu  Cu106  1  0.17030872  0.49510730  0.75451333  1
  Cu  Cu107  1  0.66821219  0.66562805  0.49887959  1
  Cu  Cu108  1  0.84115018  0.16815498  0.75938725  1
  Cu  Cu109  1  -0.00388400  0.66747604  0.00417416  1
  Cu  Cu110  1  0.83677170  0.16336050  0.25249234  1
  Cu  Cu111  1  0.17254681  0.49354209  0.24596374  1
  Cu  Cu112  1  0.34077803  0.67418843  -0.00355260  1
  Cu  Cu113  1  0.66291819  0.00265283  0.49485445  1
  Cu  Cu114  1  0.49804008  0.49410016  0.75553523  1
  Se  Se115  1  0.08400647  0.08213181  0.05891488  1
  Se  Se116  1  0.07948749  0.07934870  0.54952368  1
  Se  Se117  1  0.09360096  0.43486295  0.05776239  1
  Se  Se118  1  0.07664696  0.40916064  0.55845382  1
  Se  Se119  1  0.07679942  0.74307573  0.06715837  1
  Se  Se120  1  0.08680993  0.75261500  0.54516240  1
  Se  Se121  1  0.41202495  0.08459848  0.05622130  1
  Se  Se122  1  0.41286700  0.08801750  0.55221858  1
  Se  Se123  1  0.40970497  0.40069050  0.04117101  1
  Se  Se124  1  0.41563334  0.41655173  0.55336931  1
  Se  Se125  1  0.42087536  0.75435419  0.05358041  1
  Se  Se126  1  0.41384296  0.74506348  0.56191948  1
  Se  Se127  1  0.74791532  0.07638345  0.06449595  1
  Se  Se128  1  0.74043686  0.07713018  0.56298088  1
  Se  Se129  1  0.75070124  0.40744622  0.06197049  1
  Se  Se130  1  0.73997902  0.40762935  0.55698400  1
  Se  Se131  1  0.74355452  0.74608675  0.05676439  1
  Se  Se132  1  0.75346779  0.74858863  0.54889127  1
  Se  Se133  1  0.22963133  0.24566024  0.04580533  1
  Se  Se134  1  0.24851060  0.25196037  0.55555456  1
  Se  Se135  1  0.25247886  0.59131524  0.04668183  1
  Se  Se136  1  0.26145419  0.59008435  0.56229823  1
  Se  Se137  1  0.25187663  0.92167295  0.06350092  1
  Se  Se138  1  0.25117424  0.91582692  0.55194423  1
  Se  Se139  1  0.58580645  0.24103026  0.05353857  1
  Se  Se140  1  0.57812710  0.24921495  0.54872786  1
  Se  Se141  1  0.57750835  0.57840854  0.05110582  1
  Se  Se142  1  0.58489249  0.58112963  0.54930524  1
  Se  Se143  1  0.58657686  0.92674449  0.05721395  1
  Se  Se144  1  0.58744627  0.92599333  0.56294132  1
  Se  Se145  1  0.92839766  0.25686617  0.05886951  1
  Se  Se146  1  0.92050431  0.25387435  0.55976736  1
  Se  Se147  1  0.91653129  0.58683376  0.06413369  1
  Se  Se148  1  0.92775142  0.59050635  0.55563068  1
  Se  Se149  1  0.92057519  0.91194007  0.06026867  1
  Se  Se150  1  0.91578022  0.91586892  0.54952638  1
  Se  Se151  1  0.08675622  0.25174413  0.45083435  1
  Se  Se152  1  0.11110848  0.24886488  0.95557424  1
  Se  Se153  1  0.08127070  0.58544546  0.43807635  1
  Se  Se154  1  0.08160192  0.59082562  0.94923826  1
  Se  Se155  1  0.08443736  0.91747611  0.43735860  1
  Se  Se156  1  0.07847555  0.92162101  0.94288087  1
  Se  Se157  1  0.41486569  0.25168254  0.44080691  1
  Se  Se158  1  0.44915626  0.21452436  0.93975248  1
  Se  Se159  1  0.41975302  0.58215110  0.44958825  1
  Se  Se160  1  0.41969698  0.58964593  0.94118461  1
  Se  Se161  1  0.41121593  0.92419339  0.43907047  1
  Se  Se162  1  0.41195254  0.91767082  0.94726287  1
  Se  Se163  1  0.74288743  0.25683493  0.43801789  1
  Se  Se164  1  0.74903398  0.25364931  0.94107400  1
  Se  Se165  1  0.74456210  0.58751511  0.43386445  1
  Se  Se166  1  0.73766194  0.58777489  0.93780833  1
  Se  Se167  1  0.74743868  0.91476790  0.45116095  1
  Se  Se168  1  0.77032473  0.90905686  0.94951845  1
  Se  Se169  1  0.24801135  0.08582786  0.44236304  1
  Se  Se170  1  0.25048628  0.08350147  0.94598876  1
  Se  Se171  1  0.25511752  0.41236429  0.44017530  1
  Se  Se172  1  0.25029817  0.43521920  0.94067931  1
  Se  Se173  1  0.25060609  0.75148380  0.44603019  1
  Se  Se174  1  0.25687034  0.75239957  0.93602190  1
  Se  Se175  1  0.57858858  0.08766657  0.44799786  1
  Se  Se176  1  0.61383864  0.05002574  0.94129544  1
  Se  Se177  1  0.57889697  0.41883677  0.43767339  1
  Se  Se178  1  0.58219867  0.41253176  0.95499706  1
  Se  Se179  1  0.58639081  0.74416540  0.43786916  1
  Se  Se180  1  0.58503150  0.75556728  0.94828195  1
  Se  Se181  1  0.92104848  0.08022220  0.43660556  1
  Se  Se182  1  0.93068578  0.07768817  0.94097479  1
  Se  Se183  1  0.92471438  0.40999362  0.44366987  1
  Se  Se184  1  0.92942926  0.40938445  0.94719511  1
  Se  Se185  1  0.91615000  0.75450089  0.44045553  1
  Se  Se186  1  0.91196934  0.75067933  0.95352043  1
  Se  Se187  1  0.25304903  0.25626392  0.30219792  1
  Se  Se188  1  0.25806120  0.25034544  0.80756466  1
  Se  Se189  1  0.24582163  0.57474018  0.31186062  1
  Se  Se190  1  0.24843184  0.59095458  0.79802186  1
  Se  Se191  1  0.24863653  0.92326398  0.29916607  1
  Se  Se192  1  0.24865389  0.91795663  0.79800694  1
  Se  Se193  1  0.57833041  0.25312536  0.29834906  1
  Se  Se194  1  0.56563455  0.25040561  0.81116430  1
  Se  Se195  1  0.57540195  0.57833158  0.29558400  1
  Se  Se196  1  0.58022639  0.57876195  0.80976851  1
  Se  Se197  1  0.57281799  0.91174381  0.31115461  1
  Se  Se198  1  0.57586924  0.91242612  0.81357917  1
  Se  Se199  1  0.91775899  0.24916300  0.30594683  1
  Se  Se200  1  0.92623393  0.24795296  0.81199598  1
  Se  Se201  1  0.91281349  0.57883621  0.30152742  1
  Se  Se202  1  0.91653277  0.57678302  0.81372976  1
  Se  Se203  1  0.91293916  0.91749070  0.30223198  1
  Se  Se204  1  0.91165063  0.91036878  0.80585107  1
  Se  Se205  1  0.08639534  0.09065701  0.30203144  1
  Se  Se206  1  0.09548450  0.09429621  0.81244036  1
  Se  Se207  1  0.08750705  0.41614025  0.30380350  1
  Se  Se208  1  0.09020582  0.41235983  0.80892391  1
  Se  Se209  1  0.07353914  0.74165846  0.30118717  1
  Se  Se210  1  0.08744532  0.75840855  0.80920932  1
  Se  Se211  1  0.41162989  0.08850346  0.30063179  1
  Se  Se212  1  0.41306987  0.07577723  0.80538996  1
  Se  Se213  1  0.41146052  0.41533034  0.29923246  1
  Se  Se214  1  0.42215319  0.41325204  0.81898974  1
  Se  Se215  1  0.41988121  0.75455579  0.31130149  1
  Se  Se216  1  0.41603865  0.74931334  0.80149238  1
  Se  Se217  1  0.75298276  0.08888893  0.31457423  1
  Se  Se218  1  0.75065091  0.09711942  0.81421165  1
  Se  Se219  1  0.74746802  0.41351503  0.29959726  1
  Se  Se220  1  0.75795819  0.42562356  0.80832046  1
  Se  Se221  1  0.74504161  0.74808472  0.30276689  1
  Se  Se222  1  0.75323705  0.75792091  0.80959479  1
  Se  Se223  1  0.25222015  0.09106892  0.19178181  1
  Se  Se224  1  0.25078984  0.08345095  0.69345371  1
  Se  Se225  1  0.25223687  0.41136125  0.18871828  1
  Se  Se226  1  0.25310080  0.41139003  0.70063198  1
  Se  Se227  1  0.24689818  0.74996029  0.19215356  1
  Se  Se228  1  0.25006416  0.74940338  0.69321073  1
  Se  Se229  1  0.57115735  0.08916448  0.19092276  1
  Se  Se230  1  0.57790562  0.09229712  0.69399512  1
  Se  Se231  1  0.58113171  0.41179873  0.18703341  1
  Se  Se232  1  0.57959127  0.42144457  0.69032722  1
  Se  Se233  1  0.57884563  0.74430577  0.19516229  1
  Se  Se234  1  0.57595335  0.75611349  0.68843268  1
  Se  Se235  1  0.91967271  0.08199715  0.19881153  1
  Se  Se236  1  0.91560973  0.09073412  0.69477553  1
  Se  Se237  1  0.91631141  0.41564053  0.19874040  1
  Se  Se238  1  0.91986845  0.41279454  0.70243453  1
  Se  Se239  1  0.91508070  0.74826525  0.19836572  1
  Se  Se240  1  0.91369230  0.75529594  0.69022356  1
  Se  Se241  1  0.08351391  0.25328145  0.19663307  1
  Se  Se242  1  0.08683448  0.24893732  0.69706620  1
  Se  Se243  1  0.08670737  0.58141816  0.20087325  1
  Se  Se244  1  0.09505886  0.57306891  0.68742174  1
  Se  Se245  1  0.09568991  0.90851098  0.20431898  1
  Se  Se246  1  0.08833536  0.91251434  0.68492925  1
  Se  Se247  1  0.41044146  0.25399388  0.18490454  1
  Se  Se248  1  0.41435169  0.25170055  0.69503757  1
  Se  Se249  1  0.41217629  0.56682580  0.17902718  1
  Se  Se250  1  0.41936029  0.57742705  0.69823464  1
  Se  Se251  1  0.41282558  0.91580831  0.19910173  1
  Se  Se252  1  0.41657501  0.91921760  0.69818475  1
  Se  Se253  1  0.75179067  0.24637835  0.20142466  1
  Se  Se254  1  0.75968583  0.24225916  0.69459015  1
  Se  Se255  1  0.74399826  0.58341481  0.19498250  1
  Se  Se256  1  0.76529925  0.57147308  0.69404278  1
  Se  Se257  1  0.74911637  0.90876253  0.19085072  1
  Se  Se258  1  0.75831955  0.91206888  0.69208176  1
