# generated using pymatgen
data_In86Cu29Se144
_symmetry_space_group_name_H-M   'P 1'
_cell_length_a   17.58286828
_cell_length_b   17.57890108
_cell_length_c   23.44561891
_cell_angle_alpha   90.00049233
_cell_angle_beta   90.01499054
_cell_angle_gamma   89.98695601
_symmetry_Int_Tables_number   1
_chemical_formula_structural   In86Cu29Se144
_chemical_formula_sum   'In86 Cu29 Se144'
_cell_volume   7246.74735012
_cell_formula_units_Z   1
loop_
 _symmetry_equiv_pos_site_id
 _symmetry_equiv_pos_as_xyz
  1  'x, y, z'
loop_
 _atom_site_type_symbol
 _atom_site_label
 _atom_site_symmetry_multiplicity
 _atom_site_fract_x
 _atom_site_fract_y
 _atom_site_fract_z
 _atom_site_occupancy
  In  In0  1  -0.00317675  0.16168651  0.10556386  1
  In  In1  1  0.00682307  0.15570375  0.62616948  1
  In  In2  1  0.01486426  0.49976801  0.12250772  1
  In  In3  1  0.00332001  0.52678638  0.61680097  1
  In  In4  1  -0.01414337  0.80965001  0.09606735  1
  In  In5  1  0.00233158  0.80838145  0.62958863  1
  In  In6  1  0.33334419  0.16720893  0.11741912  1
  In  In7  1  0.32972350  0.17089076  0.63413722  1
  In  In8  1  0.32361348  0.51073871  0.13157354  1
  In  In9  1  0.33845845  0.49032523  0.62955112  1
  In  In10  1  0.33326419  0.82937066  0.11774927  1
  In  In11  1  0.33158893  0.83277630  0.62911656  1
  In  In12  1  0.65430877  0.16524982  0.10704633  1
  In  In13  1  0.66073467  0.16176793  0.63323586  1
  In  In14  1  0.67366277  0.51128405  0.12637938  1
  In  In15  1  0.67729595  0.51268608  0.61533290  1
  In  In16  1  0.65843112  0.81945583  0.11372414  1
  In  In17  1  0.66189792  0.84142829  0.63894626  1
  In  In18  1  0.17673563  -0.00247886  0.38269464  1
  In  In19  1  0.17244092  -0.01199916  0.88626955  1
  In  In20  1  0.16206850  0.32036988  0.37638167  1
  In  In21  1  0.17329295  0.32786823  0.87877006  1
  In  In22  1  0.17405278  0.67352696  0.37184746  1
  In  In23  1  0.16893248  0.66403240  0.88004942  1
  In  In24  1  0.48627024  -0.00391989  0.37775879  1
  In  In25  1  0.49829031  -0.00246778  0.87397889  1
  In  In26  1  0.50419588  0.34996120  0.37296524  1
  In  In27  1  0.49089494  0.33564995  0.87659576  1
  In  In28  1  0.49533302  0.66865009  0.37604432  1
  In  In29  1  0.50692866  0.67951702  0.86748501  1
  In  In30  1  0.82695959  -0.00271382  0.37686133  1
  In  In31  1  0.83027242  -0.00168050  0.88198502  1
  In  In32  1  0.85087734  0.35281564  0.37486656  1
  In  In33  1  0.82809377  0.31698011  0.87729241  1
  In  In34  1  0.82600237  0.66404890  0.37180484  1
  In  In35  1  0.84580626  0.68941129  0.85688741  1
  In  In36  1  0.01621307  0.18452803  0.37617308  1
  In  In37  1  0.00572998  0.14910575  0.89348680  1
  In  In38  1  -0.01332707  0.50146162  0.38244488  1
  In  In39  1  -0.00068059  0.52995371  0.87819302  1
  In  In40  1  0.01638550  0.83375340  0.37488155  1
  In  In41  1  0.01129110  0.81821193  0.89163430  1
  In  In42  1  0.31951838  0.16412103  0.37149236  1
  In  In43  1  0.33485802  0.16706458  0.87448611  1
  In  In44  1  0.34260459  0.50995998  0.36801696  1
  In  In45  1  0.32951341  0.49188471  0.86629321  1
  In  In46  1  0.34652447  0.81828009  0.39028135  1
  In  In47  1  0.33277390  0.83261799  0.87521880  1
  In  In48  1  0.66340164  0.15927151  0.37486228  1
  In  In49  1  0.68030144  0.15459555  0.88892818  1
  In  In50  1  0.65225400  0.51726491  0.38508918  1
  In  In51  1  0.65925897  0.50651620  0.87102409  1
  In  In52  1  0.66715206  0.81746513  0.37414500  1
  In  In53  1  0.66538866  0.83160653  0.87572883  1
  In  In54  1  0.15492815  -0.00723481  0.10650422  1
  In  In55  1  0.17305949  0.00479649  0.62454106  1
  In  In56  1  0.17300169  0.34067865  0.11920542  1
  In  In57  1  0.18239234  0.33669874  0.62402183  1
  In  In58  1  0.16851849  0.66836007  0.11946926  1
  In  In59  1  0.16170613  0.67780998  0.62952919  1
  In  In60  1  0.49385846  -0.00736061  0.11537753  1
  In  In61  1  0.50686623  -0.01527612  0.63874754  1
  In  In62  1  0.49249729  0.31817939  0.12285040  1
  In  In63  1  0.49156599  0.33318209  0.62426570  1
  In  In64  1  0.49775873  0.67567137  0.13267866  1
  In  In65  1  0.49688472  0.66667242  0.62509977  1
  In  In66  1  0.83727622  -0.01150621  0.10584462  1
  In  In67  1  0.82841253  -0.01767943  0.63581984  1
  In  In68  1  0.83896251  0.33794318  0.11996386  1
  In  In69  1  0.82338148  0.33741371  0.62524311  1
  In  In70  1  0.82688793  0.66961838  0.12731273  1
  In  In71  1  0.84011820  0.66565993  0.63838288  1
  In  In72  1  0.83148408  0.49660027  -0.00140245  1
  In  In73  1  0.65961999  0.33342706  0.75584505  1
  In  In74  1  0.16667632  0.49748265  0.49923661  1
  In  In75  1  0.32705604  -0.01041260  0.23509973  1
  In  In76  1  0.00245571  -0.01171923  0.76377619  1
  In  In77  1  0.83848068  0.17101885  0.49680081  1
  In  In78  1  0.66174801  0.34229701  0.24519755  1
  In  In79  1  0.83621411  0.82577099  0.50936873  1
  In  In80  1  0.00388209  0.33921076  0.75310948  1
  In  In81  1  0.49175984  0.16924801  0.51121847  1
  In  In82  1  0.66261232  -0.01210592  0.24609967  1
  In  In83  1  0.00566595  -0.00807070  0.24019734  1
  In  In84  1  0.00693230  0.34215697  0.24785001  1
  In  In85  1  0.49756780  0.49979853  -0.00561520  1
  Cu  Cu86  1  0.67375743  0.34519212  0.49772718  1
  Cu  Cu87  1  0.17043838  0.82554947  0.24550479  1
  Cu  Cu88  1  0.49380049  0.83088711  0.75327788  1
  Cu  Cu89  1  0.83475606  0.17046150  0.23877417  1
  Cu  Cu90  1  0.49954180  0.16048433  0.75378480  1
  Cu  Cu91  1  0.66174393  -0.00319137  0.51276027  1
  Cu  Cu92  1  0.33647026  0.33245210  0.50032362  1
  Cu  Cu93  1  0.33231939  0.66635803  -0.00025579  1
  Cu  Cu94  1  0.84136777  0.82673790  0.24247122  1
  Cu  Cu95  1  -0.00131648  0.33512408  -0.00332497  1
  Cu  Cu96  1  0.83778326  0.50287590  0.74768398  1
  Cu  Cu97  1  0.66082805  0.66794218  0.50116412  1
  Cu  Cu98  1  0.66219725  -0.00803116  -0.00422560  1
  Cu  Cu99  1  0.16639292  0.83143155  0.75741640  1
  Cu  Cu100  1  0.17630080  0.16741198  0.75332777  1
  Cu  Cu101  1  0.17115374  0.50648870  0.24748355  1
  Cu  Cu102  1  0.33933960  0.00312058  -0.00418922  1
  Cu  Cu103  1  0.49799958  0.50307358  0.74728781  1
  Cu  Cu104  1  0.16620695  0.50647809  0.74960274  1
  Cu  Cu105  1  0.82806952  0.51275948  0.25389907  1
  Cu  Cu106  1  0.01004610  0.00229031  0.50228949  1
  Cu  Cu107  1  0.33088467  -0.00645286  0.50401648  1
  Cu  Cu108  1  0.33218927  0.66663532  0.50149773  1
  Cu  Cu109  1  0.49145420  0.16809306  0.24193421  1
  Cu  Cu110  1  0.49507609  0.50489228  0.25248136  1
  Cu  Cu111  1  0.16351111  0.16985509  0.24706642  1
  Cu  Cu112  1  0.67053383  0.67125449  -0.00508427  1
  Cu  Cu113  1  0.83571450  0.15817194  0.76151033  1
  Cu  Cu114  1  0.33154854  0.33442829  -0.00243350  1
  Se  Se115  1  0.09777661  0.09833217  0.04370174  1
  Se  Se116  1  0.09267602  0.08825906  0.55273320  1
  Se  Se117  1  0.08423897  0.41566762  0.04962700  1
  Se  Se118  1  0.07839540  0.41258573  0.56549592  1
  Se  Se119  1  0.10361533  0.75810366  0.04565421  1
  Se  Se120  1  0.08025296  0.74313953  0.55172676  1
  Se  Se121  1  0.42056145  0.08708744  0.05074441  1
  Se  Se122  1  0.41166330  0.07039957  0.56842322  1
  Se  Se123  1  0.40794763  0.41608541  0.06024765  1
  Se  Se124  1  0.41853765  0.41783360  0.55199145  1
  Se  Se125  1  0.42057435  0.74425209  0.05281004  1
  Se  Se126  1  0.41331802  0.75115839  0.55736558  1
  Se  Se127  1  0.74450000  0.07689675  0.05008021  1
  Se  Se128  1  0.75062965  0.08030123  0.56241444  1
  Se  Se129  1  0.73494097  0.41038547  0.05756318  1
  Se  Se130  1  0.76005559  0.42423697  0.55036893  1
  Se  Se131  1  0.75813922  0.75041677  0.04913310  1
  Se  Se132  1  0.73801841  0.74461357  0.56704933  1
  Se  Se133  1  0.24840610  0.25116231  0.05113013  1
  Se  Se134  1  0.25735358  0.24757146  0.55504367  1
  Se  Se135  1  0.25083320  0.57987871  0.05130003  1
  Se  Se136  1  0.25454412  0.58470293  0.56289159  1
  Se  Se137  1  0.25681431  0.91798377  0.04937545  1
  Se  Se138  1  0.24619307  0.91195407  0.55763791  1
  Se  Se139  1  0.57441715  0.25561946  0.04609222  1
  Se  Se140  1  0.59796220  0.25953903  0.55865287  1
  Se  Se141  1  0.58801679  0.59143434  0.05451692  1
  Se  Se142  1  0.57716672  0.58259678  0.55343020  1
  Se  Se143  1  0.57851936  0.90976631  0.04947998  1
  Se  Se144  1  0.58025774  0.90936955  0.56062946  1
  Se  Se145  1  0.91048195  0.25436216  0.04759481  1
  Se  Se146  1  0.92267578  0.25324738  0.56564118  1
  Se  Se147  1  0.91915753  0.58300841  0.06144060  1
  Se  Se148  1  0.90864570  0.59913807  0.55459385  1
  Se  Se149  1  0.94117771  0.93077650  0.04238201  1
  Se  Se150  1  0.92827681  0.92415366  0.56343524  1
  Se  Se151  1  0.08612033  0.25415746  0.45588727  1
  Se  Se152  1  0.08468693  0.25152050  0.94681968  1
  Se  Se153  1  0.08152510  0.59088514  0.43988010  1
  Se  Se154  1  0.08979570  0.58288120  0.95288507  1
  Se  Se155  1  0.08950816  0.91597869  0.44848262  1
  Se  Se156  1  0.05953811  0.93730444  0.94561061  1
  Se  Se157  1  0.41512127  0.25265582  0.43577130  1
  Se  Se158  1  0.41578625  0.25035588  0.94672308  1
  Se  Se159  1  0.41516431  0.58370291  0.44693693  1
  Se  Se160  1  0.41154849  0.59043490  0.93408113  1
  Se  Se161  1  0.42115582  0.91459251  0.45462373  1
  Se  Se162  1  0.41805887  0.91337194  0.94455551  1
  Se  Se163  1  0.74562779  0.26008680  0.43402586  1
  Se  Se164  1  0.74483489  0.25603973  0.95305596  1
  Se  Se165  1  0.75068460  0.58788668  0.44903409  1
  Se  Se166  1  0.74835593  0.58858379  0.93643470  1
  Se  Se167  1  0.74216470  0.91881192  0.44815222  1
  Se  Se168  1  0.75028033  0.90854531  0.94759220  1
  Se  Se169  1  0.25517131  0.08448085  0.45093485  1
  Se  Se170  1  0.25244226  0.08525675  0.94492611  1
  Se  Se171  1  0.25909773  0.41121544  0.43665727  1
  Se  Se172  1  0.25171887  0.42037100  0.94408964  1
  Se  Se173  1  0.24468293  0.75017963  0.45183184  1
  Se  Se174  1  0.25035371  0.75271522  0.94706350  1
  Se  Se175  1  0.58513740  0.07812811  0.44977764  1
  Se  Se176  1  0.57899875  0.07946299  0.94660533  1
  Se  Se177  1  0.57926576  0.42164750  0.45060154  1
  Se  Se178  1  0.59365015  0.40895694  0.94050826  1
  Se  Se179  1  0.57985036  0.75118409  0.44706412  1
  Se  Se180  1  0.57900390  0.75135712  0.94714604  1
  Se  Se181  1  0.92878313  0.07694181  0.43688930  1
  Se  Se182  1  0.88805178  0.10396610  0.94701207  1
  Se  Se183  1  0.93002136  0.40699130  0.45596718  1
  Se  Se184  1  0.92302158  0.41294203  0.93225746  1
  Se  Se185  1  0.92035075  0.74942384  0.43727339  1
  Se  Se186  1  0.91682696  0.73169794  0.94710946  1
  Se  Se187  1  0.24683974  0.25184533  0.30056298  1
  Se  Se188  1  0.25622898  0.25589191  0.80431569  1
  Se  Se189  1  0.25352154  0.58911295  0.30240624  1
  Se  Se190  1  0.25011490  0.58659186  0.80512431  1
  Se  Se191  1  0.24523483  0.90959255  0.30709907  1
  Se  Se192  1  0.24821602  0.91861218  0.80728653  1
  Se  Se193  1  0.57600426  0.24165590  0.30471639  1
  Se  Se194  1  0.57981187  0.23794700  0.81659570  1
  Se  Se195  1  0.58026328  0.58658715  0.30528483  1
  Se  Se196  1  0.58128500  0.58584518  0.79984498  1
  Se  Se197  1  0.57289985  0.90826239  0.31244356  1
  Se  Se198  1  0.58002694  0.91258097  0.80613283  1
  Se  Se199  1  0.91224987  0.24648937  0.30402942  1
  Se  Se200  1  0.92403385  0.23876246  0.81244292  1
  Se  Se201  1  0.92024253  0.58634723  0.30663235  1
  Se  Se202  1  0.92204395  0.59079914  0.79584963  1
  Se  Se203  1  0.91071326  0.91123272  0.30680487  1
  Se  Se204  1  0.91262103  0.89997609  0.82082569  1
  Se  Se205  1  0.08859973  0.08475174  0.30777480  1
  Se  Se206  1  0.09357473  0.08919899  0.81288506  1
  Se  Se207  1  0.09265894  0.42978432  0.31309381  1
  Se  Se208  1  0.08848174  0.42949842  0.81512294  1
  Se  Se209  1  0.08350275  0.74777242  0.30078080  1
  Se  Se210  1  0.08346299  0.74764314  0.81055265  1
  Se  Se211  1  0.41473150  0.08435481  0.30182596  1
  Se  Se212  1  0.41337607  0.07994516  0.80544376  1
  Se  Se213  1  0.41421840  0.41379438  0.30049597  1
  Se  Se214  1  0.42006895  0.41364524  0.79934904  1
  Se  Se215  1  0.41286660  0.75258832  0.30795972  1
  Se  Se216  1  0.40741594  0.74639852  0.80259419  1
  Se  Se217  1  0.75672051  0.08906333  0.30049316  1
  Se  Se218  1  0.74655426  0.07672273  0.80873235  1
  Se  Se219  1  0.74921175  0.42743434  0.31188505  1
  Se  Se220  1  0.76184701  0.42219211  0.80928642  1
  Se  Se221  1  0.75358074  0.75194530  0.29967154  1
  Se  Se222  1  0.72186328  0.72804217  0.80800944  1
  Se  Se223  1  0.23424946  0.08529041  0.18359074  1
  Se  Se224  1  0.25295077  0.07899017  0.69979252  1
  Se  Se225  1  0.24794575  0.41490829  0.19665073  1
  Se  Se226  1  0.24848126  0.41781940  0.70078755  1
  Se  Se227  1  0.25584972  0.74723944  0.18982146  1
  Se  Se228  1  0.24893391  0.75037062  0.70010931  1
  Se  Se229  1  0.57614265  0.08694173  0.18767962  1
  Se  Se230  1  0.58626677  0.07814604  0.70296998  1
  Se  Se231  1  0.56851796  0.42856661  0.18418099  1
  Se  Se232  1  0.58254808  0.42306531  0.68713008  1
  Se  Se233  1  0.59629127  0.74697917  0.19586387  1
  Se  Se234  1  0.57643058  0.74891660  0.69760886  1
  Se  Se235  1  0.91215081  0.08507755  0.18297344  1
  Se  Se236  1  0.91543470  0.08194799  0.69810106  1
  Se  Se237  1  0.90698420  0.43119561  0.19342209  1
  Se  Se238  1  0.91654749  0.42366846  0.68708950  1
  Se  Se239  1  0.92588597  0.74881453  0.18690425  1
  Se  Se240  1  0.89254347  0.77811364  0.69756164  1
  Se  Se241  1  0.08096462  0.24359041  0.18400734  1
  Se  Se242  1  0.09260578  0.24441294  0.69368193  1
  Se  Se243  1  0.08683134  0.58649836  0.19294377  1
  Se  Se244  1  0.08169583  0.58854764  0.69748686  1
  Se  Se245  1  0.08901771  0.89884126  0.18097196  1
  Se  Se246  1  0.08756639  0.90966795  0.69206417  1
  Se  Se247  1  0.40346902  0.25033773  0.19477274  1
  Se  Se248  1  0.42332352  0.24836349  0.69833265  1
  Se  Se249  1  0.41448317  0.58779011  0.19674089  1
  Se  Se250  1  0.41279755  0.58422820  0.69491093  1
  Se  Se251  1  0.43115113  0.90150177  0.19116440  1
  Se  Se252  1  0.40824788  0.91674761  0.70281436  1
  Se  Se253  1  0.74832823  0.24786199  0.18373714  1
  Se  Se254  1  0.75900549  0.24119678  0.70054635  1
  Se  Se255  1  0.74304442  0.59327430  0.20088031  1
  Se  Se256  1  0.74655995  0.58143511  0.69806467  1
  Se  Se257  1  0.75997051  0.90923413  0.18408772  1
  Se  Se258  1  0.74527431  0.91861294  0.71029423  1
