# generated using pymatgen
data_In86Cu29Se144
_symmetry_space_group_name_H-M   'P 1'
_cell_length_a   17.57681132
_cell_length_b   17.57733474
_cell_length_c   23.43656630
_cell_angle_alpha   89.99011875
_cell_angle_beta   90.01214076
_cell_angle_gamma   90.01159086
_symmetry_Int_Tables_number   1
_chemical_formula_structural   In86Cu29Se144
_chemical_formula_sum   'In86 Cu29 Se144'
_cell_volume   7240.80867880
_cell_formula_units_Z   1
loop_
 _symmetry_equiv_pos_site_id
 _symmetry_equiv_pos_as_xyz
  1  'x, y, z'
loop_
 _atom_site_type_symbol
 _atom_site_label
 _atom_site_symmetry_multiplicity
 _atom_site_fract_x
 _atom_site_fract_y
 _atom_site_fract_z
 _atom_site_occupancy
  In  In0  1  -0.00649568  0.14718074  0.10141593  1
  In  In1  1  0.00895381  0.15954443  0.64557784  1
  In  In2  1  -0.00298340  0.50911222  0.12407627  1
  In  In3  1  0.00509408  0.49915472  0.63503804  1
  In  In4  1  -0.01606317  0.84294894  0.13768120  1
  In  In5  1  0.00326783  0.83334870  0.63310082  1
  In  In6  1  0.33156622  0.16730351  0.11950081  1
  In  In7  1  0.34668505  0.16954644  0.63027410  1
  In  In8  1  0.33457628  0.49487505  0.12986567  1
  In  In9  1  0.34837988  0.49033792  0.63146937  1
  In  In10  1  0.33546990  0.83410781  0.13522766  1
  In  In11  1  0.32330450  0.82627689  0.61709022  1
  In  In12  1  0.66991412  0.16915981  0.11384008  1
  In  In13  1  0.62068705  0.19653815  0.66925044  1
  In  In14  1  0.66114649  0.49957066  0.11232801  1
  In  In15  1  0.65089921  0.49738999  0.62346495  1
  In  In16  1  0.67398351  0.82411735  0.12062662  1
  In  In17  1  0.66388112  0.84775855  0.62745385  1
  In  In18  1  0.15587960  -0.00861170  0.37015111  1
  In  In19  1  0.15550700  0.02362989  0.87913613  1
  In  In20  1  0.17333079  0.32208136  0.37510122  1
  In  In21  1  0.15930172  0.31502290  0.85540073  1
  In  In22  1  0.17699227  0.67365745  0.36977673  1
  In  In23  1  0.17144306  0.67028874  0.87231089  1
  In  In24  1  0.48680348  0.01452365  0.38358976  1
  In  In25  1  0.51647485  0.00434977  0.86966938  1
  In  In26  1  0.48133449  0.34362174  0.39399734  1
  In  In27  1  0.50336474  0.32952939  0.86934417  1
  In  In28  1  0.48829719  0.67543997  0.38285359  1
  In  In29  1  0.48206085  0.66001713  0.87556024  1
  In  In30  1  0.84105725  -0.01013601  0.36757167  1
  In  In31  1  0.83888455  0.00292700  0.88175729  1
  In  In32  1  0.83068332  0.34295089  0.37189057  1
  In  In33  1  0.83160497  0.33239166  0.87558805  1
  In  In34  1  0.84813474  0.67293323  0.35974669  1
  In  In35  1  0.84393395  0.65330111  0.88383980  1
  In  In36  1  0.01166338  0.16100629  0.37098524  1
  In  In37  1  0.00101694  0.16172883  0.87454693  1
  In  In38  1  -0.00802388  0.51520139  0.37203039  1
  In  In39  1  -0.00355230  0.49140680  0.87170834  1
  In  In40  1  0.00700187  0.84263225  0.36403715  1
  In  In41  1  -0.00105297  0.83044644  0.87473614  1
  In  In42  1  0.33799997  0.17437074  0.36739152  1
  In  In43  1  0.32991693  0.17935967  0.87279089  1
  In  In44  1  0.33596522  0.50155993  0.37202433  1
  In  In45  1  0.34133377  0.50133836  0.87572029  1
  In  In46  1  0.33040682  0.83415162  0.37656485  1
  In  In47  1  0.33480569  0.82598404  0.87159639  1
  In  In48  1  0.65813648  0.15776903  0.37483658  1
  In  In49  1  0.66578975  0.16829652  0.87460608  1
  In  In50  1  0.66071382  0.49114745  0.37722688  1
  In  In51  1  0.67410478  0.48602891  0.88021390  1
  In  In52  1  0.66506218  0.82818998  0.37589177  1
  In  In53  1  0.67178910  0.84723207  0.87162977  1
  In  In54  1  0.16199195  0.00362992  0.12427502  1
  In  In55  1  0.17184289  -0.01192573  0.62689844  1
  In  In56  1  0.18078092  0.32809980  0.12421955  1
  In  In57  1  0.17683221  0.32218616  0.64479944  1
  In  In58  1  0.16658498  0.66588336  0.13276999  1
  In  In59  1  0.16461977  0.67488552  0.62990871  1
  In  In60  1  0.48659866  0.00291846  0.12649249  1
  In  In61  1  0.50263790  0.00671216  0.62163775  1
  In  In62  1  0.49113483  0.32614902  0.11678062  1
  In  In63  1  0.49125497  0.33865629  0.62867048  1
  In  In64  1  0.49837112  0.65617464  0.12477952  1
  In  In65  1  0.48720624  0.65301148  0.61549082  1
  In  In66  1  0.84183997  0.00148590  0.11532590  1
  In  In67  1  0.82391037  0.00917637  0.63597214  1
  In  In68  1  0.83865214  0.33308626  0.11063773  1
  In  In69  1  0.83688711  0.32658713  0.63672096  1
  In  In70  1  0.84032184  0.67337976  0.11403932  1
  In  In71  1  0.84143041  0.67687473  0.62974634  1
  In  In72  1  0.33102954  0.00575370  0.75155452  1
  In  In73  1  0.66773897  0.66503232  0.74746182  1
  In  In74  1  0.82353481  0.16449984  0.50648336  1
  In  In75  1  0.17732725  0.16035869  0.51246253  1
  In  In76  1  0.00847131  0.33308519  0.23874290  1
  In  In77  1  0.66837330  0.00166294  0.24243868  1
  In  In78  1  0.82582887  0.50411364  0.49390696  1
  In  In79  1  0.82651134  0.83568594  0.49834594  1
  In  In80  1  0.50707724  0.83518113  0.00104570  1
  In  In81  1  0.16858447  0.49241935  0.00315760  1
  In  In82  1  0.66727070  0.66702677  0.24712313  1
  In  In83  1  0.66426231  0.33439671  0.25225095  1
  In  In84  1  0.17378036  0.49668122  0.49890226  1
  In  In85  1  0.16523714  0.83666536  -0.00348301  1
  Cu  Cu86  1  -0.00271603  -0.00814439  0.49691965  1
  Cu  Cu87  1  0.33010017  -0.00363328  0.49923535  1
  Cu  Cu88  1  0.16384769  0.83645656  0.75168742  1
  Cu  Cu89  1  0.00372770  0.67419117  0.50565972  1
  Cu  Cu90  1  0.33170544  0.66578008  0.49810657  1
  Cu  Cu91  1  0.83585806  0.49976223  0.75606998  1
  Cu  Cu92  1  0.17083531  0.15619303  0.24547257  1
  Cu  Cu93  1  0.84468665  0.16693309  0.23973197  1
  Cu  Cu94  1  0.16856370  0.49584189  0.25055940  1
  Cu  Cu95  1  0.49620485  0.83853235  0.25788689  1
  Cu  Cu96  1  0.66114263  0.33283829  -0.00683411  1
  Cu  Cu97  1  0.66626329  0.66507203  -0.00311372  1
  Cu  Cu98  1  0.65373906  0.00689334  0.50613205  1
  Cu  Cu99  1  0.83956542  0.83388476  0.75470970  1
  Cu  Cu100  1  0.83430463  0.16053625  0.76198405  1
  Cu  Cu101  1  0.67362335  0.00443465  -0.00518761  1
  Cu  Cu102  1  0.65839341  0.66719760  0.49606913  1
  Cu  Cu103  1  0.48874763  0.17426698  0.24953875  1
  Cu  Cu104  1  0.33566049  0.33505561  -0.00453583  1
  Cu  Cu105  1  0.17188809  0.50994303  0.75210071  1
  Cu  Cu106  1  0.00329415  0.33236296  0.50963565  1
  Cu  Cu107  1  0.00144248  0.66869911  0.00154796  1
  Cu  Cu108  1  0.50000498  0.49728341  0.75128459  1
  Cu  Cu109  1  0.16897268  0.82891357  0.25093105  1
  Cu  Cu110  1  0.33873194  0.00544104  -0.00262673  1
  Cu  Cu111  1  0.49528668  0.82963769  0.74754852  1
  Cu  Cu112  1  0.49464246  0.49876400  0.25123518  1
  Cu  Cu113  1  0.65943668  0.32737798  0.50950690  1
  Cu  Cu114  1  0.00063560  0.32979811  -0.01045092  1
  Se  Se115  1  0.10464455  0.08880634  0.04553490  1
  Se  Se116  1  0.07171332  0.07424138  0.56106341  1
  Se  Se117  1  0.07353994  0.40339071  0.06131833  1
  Se  Se118  1  0.08758408  0.40981964  0.56602019  1
  Se  Se119  1  0.08118824  0.74745218  0.06163613  1
  Se  Se120  1  0.08422122  0.75764916  0.55889367  1
  Se  Se121  1  0.42218684  0.08819292  0.05105842  1
  Se  Se122  1  0.40943158  0.08087414  0.55503202  1
  Se  Se123  1  0.41253644  0.41971309  0.05334070  1
  Se  Se124  1  0.42370168  0.42374899  0.55299637  1
  Se  Se125  1  0.41327781  0.74947412  0.05990644  1
  Se  Se126  1  0.41609291  0.75056702  0.55094671  1
  Se  Se127  1  0.75665770  0.08679227  0.05000190  1
  Se  Se128  1  0.73143666  0.08484889  0.56852186  1
  Se  Se129  1  0.74636126  0.41396924  0.04850487  1
  Se  Se130  1  0.74938739  0.40783452  0.56129143  1
  Se  Se131  1  0.75139936  0.75100304  0.04534324  1
  Se  Se132  1  0.73993899  0.74130653  0.55975727  1
  Se  Se133  1  0.25109605  0.24997051  0.04723080  1
  Se  Se134  1  0.26223101  0.26241994  0.56213457  1
  Se  Se135  1  0.25406064  0.58804738  0.06027887  1
  Se  Se136  1  0.25573876  0.58748895  0.56335472  1
  Se  Se137  1  0.26335566  0.92035176  0.05702684  1
  Se  Se138  1  0.24296800  0.91341291  0.54863006  1
  Se  Se139  1  0.58073316  0.24952428  0.04990021  1
  Se  Se140  1  0.58149384  0.24652778  0.56817546  1
  Se  Se141  1  0.57704916  0.58572487  0.04760144  1
  Se  Se142  1  0.58080035  0.57900148  0.54835752  1
  Se  Se143  1  0.59417646  0.92948556  0.06203090  1
  Se  Se144  1  0.57644211  0.91268266  0.55331137  1
  Se  Se145  1  0.91566964  0.24625905  0.04293152  1
  Se  Se146  1  0.92542055  0.24592687  0.56462439  1
  Se  Se147  1  0.91633590  0.57894827  0.04774193  1
  Se  Se148  1  0.92139697  0.58725831  0.55790859  1
  Se  Se149  1  0.92145344  0.90929662  0.05256222  1
  Se  Se150  1  0.91286387  0.92357043  0.56232052  1
  Se  Se151  1  0.07985512  0.24964024  0.44898061  1
  Se  Se152  1  0.08942249  0.24996854  0.93974399  1
  Se  Se153  1  0.07948068  0.59059052  0.44453399  1
  Se  Se154  1  0.08163717  0.58692177  0.94202705  1
  Se  Se155  1  0.08171687  0.91011354  0.44541435  1
  Se  Se156  1  0.07350086  0.92888770  0.94322815  1
  Se  Se157  1  0.41871794  0.23324039  0.44782708  1
  Se  Se158  1  0.42038892  0.25083373  0.94297428  1
  Se  Se159  1  0.41444880  0.57933056  0.44670740  1
  Se  Se160  1  0.41362171  0.58147141  0.95156505  1
  Se  Se161  1  0.41634235  0.91485742  0.44611086  1
  Se  Se162  1  0.41581541  0.92226370  0.93706057  1
  Se  Se163  1  0.74071309  0.25948766  0.44040277  1
  Se  Se164  1  0.74890266  0.24963571  0.94475197  1
  Se  Se165  1  0.74409550  0.60016507  0.43133392  1
  Se  Se166  1  0.74986205  0.57752457  0.94729213  1
  Se  Se167  1  0.73785944  0.93445570  0.44194393  1
  Se  Se168  1  0.75408482  0.91343234  0.94790486  1
  Se  Se169  1  0.25041889  0.07708954  0.43706146  1
  Se  Se170  1  0.25708808  0.08792234  0.94282542  1
  Se  Se171  1  0.26166270  0.40223962  0.44295793  1
  Se  Se172  1  0.24803395  0.40607490  0.93415573  1
  Se  Se173  1  0.24734252  0.75082190  0.44742363  1
  Se  Se174  1  0.26161549  0.74142383  0.94762038  1
  Se  Se175  1  0.57558740  0.09318261  0.45141270  1
  Se  Se176  1  0.58350751  0.08513366  0.94704292  1
  Se  Se177  1  0.58485405  0.41602137  0.45244187  1
  Se  Se178  1  0.57477780  0.41746437  0.94401520  1
  Se  Se179  1  0.57879434  0.75738536  0.44705458  1
  Se  Se180  1  0.58920816  0.74507681  0.93351093  1
  Se  Se181  1  0.91915734  0.07937064  0.44146783  1
  Se  Se182  1  0.91706622  0.09063523  0.94883404  1
  Se  Se183  1  0.92832746  0.41020713  0.44470912  1
  Se  Se184  1  0.91446792  0.41815415  0.94536584  1
  Se  Se185  1  0.92189456  0.74800864  0.44147258  1
  Se  Se186  1  0.91815599  0.75062573  0.94688871  1
  Se  Se187  1  0.24685889  0.24780057  0.29799581  1
  Se  Se188  1  0.26175868  0.25254419  0.79199811  1
  Se  Se189  1  0.25123313  0.58101446  0.30383579  1
  Se  Se190  1  0.25757669  0.58718410  0.80770331  1
  Se  Se191  1  0.24912356  0.91544574  0.30534331  1
  Se  Se192  1  0.24095107  0.91664527  0.81491070  1
  Se  Se193  1  0.57215899  0.24832653  0.31196125  1
  Se  Se194  1  0.58963578  0.24955781  0.80046542  1
  Se  Se195  1  0.57564160  0.57986342  0.31046979  1
  Se  Se196  1  0.58144231  0.57769645  0.81166884  1
  Se  Se197  1  0.58003877  0.92079800  0.31214602  1
  Se  Se198  1  0.58181435  0.91150164  0.79817380  1
  Se  Se199  1  0.91461112  0.24750523  0.30779620  1
  Se  Se200  1  0.91739583  0.25070378  0.80847420  1
  Se  Se201  1  0.91250107  0.57691135  0.29372334  1
  Se  Se202  1  0.92092208  0.58508137  0.80448741  1
  Se  Se203  1  0.91887585  0.91656035  0.29516031  1
  Se  Se204  1  0.91881583  0.91956783  0.80904606  1
  Se  Se205  1  0.08090284  0.07813730  0.29751894  1
  Se  Se206  1  0.08477659  0.09067142  0.79853097  1
  Se  Se207  1  0.08716251  0.41941696  0.31356618  1
  Se  Se208  1  0.08754585  0.42319979  0.80166702  1
  Se  Se209  1  0.08289849  0.74497960  0.30276847  1
  Se  Se210  1  0.08421354  0.74992284  0.80603308  1
  Se  Se211  1  0.41393724  0.08106957  0.30118868  1
  Se  Se212  1  0.42605039  0.09156908  0.80797762  1
  Se  Se213  1  0.41859523  0.41117199  0.30729670  1
  Se  Se214  1  0.41558297  0.41491523  0.80459415  1
  Se  Se215  1  0.41337759  0.74991688  0.30614699  1
  Se  Se216  1  0.41395745  0.74561794  0.80022129  1
  Se  Se217  1  0.76028571  0.09412991  0.30433088  1
  Se  Se218  1  0.74819681  0.07629986  0.81144288  1
  Se  Se219  1  0.75813210  0.43431176  0.30113894  1
  Se  Se220  1  0.74969948  0.41367748  0.80260649  1
  Se  Se221  1  0.75785477  0.76658994  0.30075961  1
  Se  Se222  1  0.75832987  0.74871707  0.81161659  1
  Se  Se223  1  0.25682127  0.07792340  0.19011201  1
  Se  Se224  1  0.24017434  0.09315843  0.68965891  1
  Se  Se225  1  0.25106163  0.41172011  0.19862565  1
  Se  Se226  1  0.25406256  0.42321768  0.70064103  1
  Se  Se227  1  0.25429135  0.74551565  0.19987565  1
  Se  Se228  1  0.25068866  0.75577333  0.69842360  1
  Se  Se229  1  0.57640048  0.09926571  0.19059559  1
  Se  Se230  1  0.58905141  0.06050287  0.70081585  1
  Se  Se231  1  0.57557617  0.42195398  0.18928895  1
  Se  Se232  1  0.58456370  0.41489098  0.69872787  1
  Se  Se233  1  0.57248377  0.76131111  0.19197808  1
  Se  Se234  1  0.57508702  0.74982509  0.68569950  1
  Se  Se235  1  0.92411264  0.08243761  0.18682784  1
  Se  Se236  1  0.91615738  0.07743245  0.70541980  1
  Se  Se237  1  0.90675930  0.41964888  0.18910032  1
  Se  Se238  1  0.91818029  0.41690702  0.69983700  1
  Se  Se239  1  0.92475612  0.73105148  0.19316128  1
  Se  Se240  1  0.92275665  0.74891049  0.70294702  1
  Se  Se241  1  0.08878303  0.23367775  0.18260173  1
  Se  Se242  1  0.06866366  0.26576633  0.70458588  1
  Se  Se243  1  0.08429901  0.57697335  0.19720339  1
  Se  Se244  1  0.08436270  0.58979729  0.69852060  1
  Se  Se245  1  0.08986178  0.91307543  0.19417155  1
  Se  Se246  1  0.08206001  0.92248082  0.69997803  1
  Se  Se247  1  0.40880564  0.25483120  0.19174677  1
  Se  Se248  1  0.42171960  0.25034534  0.70168830  1
  Se  Se249  1  0.41398201  0.58457289  0.19799704  1
  Se  Se250  1  0.41904869  0.58606420  0.69954195  1
  Se  Se251  1  0.41584886  0.92194526  0.20181449  1
  Se  Se252  1  0.41360155  0.91084658  0.68833471  1
  Se  Se253  1  0.75743207  0.24845354  0.18866301  1
  Se  Se254  1  0.75499715  0.24211719  0.70290518  1
  Se  Se255  1  0.74997780  0.58069419  0.18105639  1
  Se  Se256  1  0.75844403  0.57314290  0.68704464  1
  Se  Se257  1  0.75912659  0.91019823  0.18762291  1
  Se  Se258  1  0.75185266  0.91208744  0.70120058  1
