# generated using pymatgen
data_In86Cu29Se144
_symmetry_space_group_name_H-M   'P 1'
_cell_length_a   17.57884048
_cell_length_b   17.58126795
_cell_length_c   23.43926658
_cell_angle_alpha   90.00499665
_cell_angle_beta   90.01273359
_cell_angle_gamma   90.01098883
_symmetry_Int_Tables_number   1
_chemical_formula_structural   In86Cu29Se144
_chemical_formula_sum   'In86 Cu29 Se144'
_cell_volume   7244.09965399
_cell_formula_units_Z   1
loop_
 _symmetry_equiv_pos_site_id
 _symmetry_equiv_pos_as_xyz
  1  'x, y, z'
loop_
 _atom_site_type_symbol
 _atom_site_label
 _atom_site_symmetry_multiplicity
 _atom_site_fract_x
 _atom_site_fract_y
 _atom_site_fract_z
 _atom_site_occupancy
  In  In0  1  -0.01032479  0.16487022  0.12013621  1
  In  In1  1  -0.01332686  0.17132265  0.63421530  1
  In  In2  1  0.00989219  0.48932204  0.13753837  1
  In  In3  1  -0.00484875  0.49164703  0.61739090  1
  In  In4  1  -0.00846388  0.85173315  0.14274083  1
  In  In5  1  0.00722490  0.84095264  0.61622248  1
  In  In6  1  0.32231280  0.18341900  0.11758914  1
  In  In7  1  0.33221474  0.17073729  0.63528666  1
  In  In8  1  0.31193168  0.47300099  0.10759884  1
  In  In9  1  0.32828569  0.48527640  0.61264551  1
  In  In10  1  0.32548066  0.82937005  0.12724895  1
  In  In11  1  0.33897386  0.85337363  0.60920410  1
  In  In12  1  0.68245998  0.15374152  0.13404717  1
  In  In13  1  0.67624557  0.15259644  0.62974407  1
  In  In14  1  0.65476300  0.49729816  0.12642737  1
  In  In15  1  0.66950060  0.50201121  0.61139739  1
  In  In16  1  0.68423599  0.82899429  0.12961739  1
  In  In17  1  0.67847160  0.84348598  0.60770738  1
  In  In18  1  0.15571736  0.00220536  0.37581250  1
  In  In19  1  0.17115423  0.01548275  0.86885569  1
  In  In20  1  0.16505824  0.34430950  0.37758542  1
  In  In21  1  0.16398924  0.32993115  0.87206429  1
  In  In22  1  0.15054239  0.67623354  0.37923023  1
  In  In23  1  0.16264733  0.66124586  0.87553065  1
  In  In24  1  0.50771487  -0.01658197  0.38498203  1
  In  In25  1  0.50327072  0.00788903  0.86420251  1
  In  In26  1  0.50994332  0.32759139  0.37820922  1
  In  In27  1  0.49981367  0.34829304  0.87542075  1
  In  In28  1  0.50561263  0.66803803  0.38946739  1
  In  In29  1  0.49073832  0.65684152  0.87384873  1
  In  In30  1  0.83374733  0.00201439  0.37626684  1
  In  In31  1  0.83409604  0.00398659  0.87134450  1
  In  In32  1  0.83866057  0.33204040  0.37515239  1
  In  In33  1  0.84100696  0.31211289  0.88164790  1
  In  In34  1  0.84270366  0.65603919  0.38397859  1
  In  In35  1  0.84822954  0.67245176  0.87651512  1
  In  In36  1  -0.00631673  0.15414600  0.36664874  1
  In  In37  1  0.00125805  0.17115868  0.87258895  1
  In  In38  1  -0.00006808  0.49868443  0.37439100  1
  In  In39  1  0.02285603  0.49241834  0.88282544  1
  In  In40  1  0.00160606  0.83247558  0.37479077  1
  In  In41  1  -0.01485633  0.83402828  0.87468901  1
  In  In42  1  0.33345818  0.16763218  0.38152351  1
  In  In43  1  0.32330314  0.16382016  0.86945660  1
  In  In44  1  0.32479535  0.49665707  0.38849953  1
  In  In45  1  0.33599934  0.48726083  0.88337502  1
  In  In46  1  0.33495776  0.83596386  0.39042944  1
  In  In47  1  0.32193362  0.83969761  0.86900064  1
  In  In48  1  0.68183843  0.18039365  0.36802748  1
  In  In49  1  0.68056861  0.15898925  0.87641913  1
  In  In50  1  0.67753170  0.49556482  0.38336216  1
  In  In51  1  0.66069632  0.48868668  0.87630396  1
  In  In52  1  0.66271744  0.83579270  0.38429101  1
  In  In53  1  0.67265999  0.85083793  0.86973024  1
  In  In54  1  0.14123773  0.00277195  0.12710116  1
  In  In55  1  0.16600759  -0.00286194  0.62906190  1
  In  In56  1  0.12841408  0.30330788  0.08587528  1
  In  In57  1  0.16266892  0.33458474  0.62827296  1
  In  In58  1  0.16673046  0.65744821  0.13119246  1
  In  In59  1  0.16998376  0.66668594  0.61822475  1
  In  In60  1  0.50358404  0.01018706  0.12848522  1
  In  In61  1  0.50153207  0.00010453  0.62891988  1
  In  In62  1  0.49535238  0.34389584  0.12857667  1
  In  In63  1  0.49169184  0.33489790  0.62586755  1
  In  In64  1  0.50834472  0.65125790  0.12913573  1
  In  In65  1  0.50408257  0.66476453  0.60962437  1
  In  In66  1  0.83803212  0.00023395  0.12596387  1
  In  In67  1  0.83562874  -0.00244359  0.62240264  1
  In  In68  1  0.84933174  0.31863628  0.13349134  1
  In  In69  1  0.83785066  0.33335231  0.62175330  1
  In  In70  1  0.83006564  0.68177126  0.12625427  1
  In  In71  1  0.83387958  0.66899732  0.60884881  1
  In  In72  1  0.83429842  0.49607986  0.00094243  1
  In  In73  1  0.16228038  0.83052954  0.00043558  1
  In  In74  1  0.67064189  0.32757270  0.75092402  1
  In  In75  1  0.33312617  0.67222228  0.74135709  1
  In  In76  1  0.66913388  0.67054902  0.73044315  1
  In  In77  1  0.67188714  0.66673372  0.25872352  1
  In  In78  1  0.00004012  0.66882922  0.74656504  1
  In  In79  1  0.16642765  0.16425543  0.50572015  1
  In  In80  1  0.33295155  0.00323364  0.25972945  1
  In  In81  1  0.32772626  0.33430145  0.24759123  1
  In  In82  1  0.50406275  0.17016759  0.50940007  1
  In  In83  1  0.50051580  0.17549027  -0.00332903  1
  In  In84  1  0.50608539  0.83002778  -0.00380162  1
  In  In85  1  0.33269580  0.66331841  0.25169963  1
  Cu  Cu86  1  0.66716623  0.66562516  0.00340526  1
  Cu  Cu87  1  0.49549692  0.16847422  0.75017224  1
  Cu  Cu88  1  0.51350019  0.16511861  0.25276069  1
  Cu  Cu89  1  0.84444076  0.49028440  0.74714934  1
  Cu  Cu90  1  0.49675887  0.84477820  0.74098197  1
  Cu  Cu91  1  -0.00456848  0.00346474  -0.00158686  1
  Cu  Cu92  1  0.50217492  0.83708616  0.25831822  1
  Cu  Cu93  1  0.67673304  0.33276467  0.49721159  1
  Cu  Cu94  1  0.67154702  0.00744142  0.49930709  1
  Cu  Cu95  1  -0.00790379  -0.00276790  0.49726940  1
  Cu  Cu96  1  0.32856178  0.66134721  0.50047901  1
  Cu  Cu97  1  0.00018477  0.33206819  0.49953845  1
  Cu  Cu98  1  0.66503194  0.33024991  0.00358063  1
  Cu  Cu99  1  0.34033685  0.65666508  0.00298681  1
  Cu  Cu100  1  0.49644960  0.50151088  0.74825572  1
  Cu  Cu101  1  0.15994529  0.16899630  0.74928282  1
  Cu  Cu102  1  0.83777867  0.16493339  0.25074061  1
  Cu  Cu103  1  0.68019278  -0.00545444  0.00254461  1
  Cu  Cu104  1  0.17000198  0.49191879  0.75000165  1
  Cu  Cu105  1  0.32949757  0.00158572  -0.00520781  1
  Cu  Cu106  1  0.16037457  0.16886851  0.24123449  1
  Cu  Cu107  1  0.83353271  0.49835331  0.25718856  1
  Cu  Cu108  1  0.49725581  0.49655765  0.25111572  1
  Cu  Cu109  1  -0.00662162  0.67306850  0.00784810  1
  Cu  Cu110  1  0.83922819  0.84207591  0.25403401  1
  Cu  Cu111  1  0.00458211  0.66183738  0.49473382  1
  Cu  Cu112  1  0.15854526  0.49896362  0.25220791  1
  Cu  Cu113  1  0.16308655  0.84772597  0.74546940  1
  Cu  Cu114  1  0.82834019  0.84012432  0.74543053  1
  Se  Se115  1  0.08084944  0.08646969  0.05010491  1
  Se  Se116  1  0.06937731  0.07813105  0.56079213  1
  Se  Se117  1  0.08005071  0.43334626  0.05164999  1
  Se  Se118  1  0.08644804  0.41284221  0.55232181  1
  Se  Se119  1  0.07602769  0.75045937  0.06872534  1
  Se  Se120  1  0.08245709  0.74642636  0.55224844  1
  Se  Se121  1  0.40897647  0.08020991  0.05701730  1
  Se  Se122  1  0.40675087  0.08152964  0.56147661  1
  Se  Se123  1  0.42013027  0.41205362  0.05073975  1
  Se  Se124  1  0.43747020  0.42780228  0.55264389  1
  Se  Se125  1  0.41607934  0.74200115  0.06196826  1
  Se  Se126  1  0.40986355  0.74882516  0.55174513  1
  Se  Se127  1  0.75743519  0.08401488  0.05461799  1
  Se  Se128  1  0.75765368  0.08709752  0.55234180  1
  Se  Se129  1  0.74667884  0.40888641  0.06498779  1
  Se  Se130  1  0.75976598  0.41747768  0.55093282  1
  Se  Se131  1  0.75078795  0.75359725  0.04914757  1
  Se  Se132  1  0.73811292  0.73911101  0.54541072  1
  Se  Se133  1  0.26240031  0.27420216  0.04669906  1
  Se  Se134  1  0.25909141  0.25651673  0.55970596  1
  Se  Se135  1  0.24643303  0.58565557  0.05528967  1
  Se  Se136  1  0.24483508  0.57598646  0.55137017  1
  Se  Se137  1  0.25151514  0.92546254  0.05966234  1
  Se  Se138  1  0.22691751  0.90996977  0.55266423  1
  Se  Se139  1  0.58997630  0.24970924  0.06806710  1
  Se  Se140  1  0.60044154  0.25878855  0.56627617  1
  Se  Se141  1  0.58290898  0.57959235  0.05084580  1
  Se  Se142  1  0.58957179  0.58481527  0.54448910  1
  Se  Se143  1  0.59087744  0.92024605  0.06141375  1
  Se  Se144  1  0.58218704  0.92924443  0.55209803  1
  Se  Se145  1  0.91628086  0.25372497  0.05022908  1
  Se  Se146  1  0.91878039  0.24743576  0.55309842  1
  Se  Se147  1  0.91719867  0.58681669  0.06584220  1
  Se  Se148  1  0.91948914  0.57979969  0.54869477  1
  Se  Se149  1  0.92220823  0.91602217  0.05748802  1
  Se  Se150  1  0.91038200  0.91036935  0.55019088  1
  Se  Se151  1  0.07790518  0.24774246  0.43894495  1
  Se  Se152  1  0.09115352  0.24214722  0.94319492  1
  Se  Se153  1  0.08819652  0.57448801  0.44505861  1
  Se  Se154  1  0.07797887  0.59601155  0.95098466  1
  Se  Se155  1  0.08122584  0.91702511  0.44690503  1
  Se  Se156  1  0.07838033  0.92315162  0.93792976  1
  Se  Se157  1  0.41120537  0.25918065  0.44815017  1
  Se  Se158  1  0.40802290  0.25830333  0.93615013  1
  Se  Se159  1  0.41603207  0.58062008  0.44880176  1
  Se  Se160  1  0.42177703  0.57465505  0.94799135  1
  Se  Se161  1  0.41345185  0.92473295  0.45490009  1
  Se  Se162  1  0.41245672  0.92186746  0.93889006  1
  Se  Se163  1  0.75957632  0.24690785  0.44715208  1
  Se  Se164  1  0.74679556  0.24579474  0.95119952  1
  Se  Se165  1  0.73346648  0.60209838  0.44601872  1
  Se  Se166  1  0.74587498  0.58868738  0.93713794  1
  Se  Se167  1  0.75237078  0.91990048  0.44697410  1
  Se  Se168  1  0.75930229  0.91375687  0.94461481  1
  Se  Se169  1  0.25644221  0.07241620  0.44518428  1
  Se  Se170  1  0.24642176  0.08849839  0.94685146  1
  Se  Se171  1  0.25090617  0.40383409  0.45321277  1
  Se  Se172  1  0.22086440  0.43749577  0.93734953  1
  Se  Se173  1  0.24632968  0.74531935  0.44708713  1
  Se  Se174  1  0.26219707  0.74048023  0.94312542  1
  Se  Se175  1  0.59148223  0.08998025  0.43957967  1
  Se  Se176  1  0.58844184  0.07099055  0.94693362  1
  Se  Se177  1  0.58758057  0.41270431  0.44718814  1
  Se  Se178  1  0.58323104  0.41609116  0.95230824  1
  Se  Se179  1  0.56512356  0.77206524  0.45127912  1
  Se  Se180  1  0.59325519  0.74097373  0.93274828  1
  Se  Se181  1  0.91485799  0.08795724  0.44593877  1
  Se  Se182  1  0.91617720  0.08537707  0.94103010  1
  Se  Se183  1  0.91754862  0.41731038  0.44533629  1
  Se  Se184  1  0.92637103  0.40786604  0.94374607  1
  Se  Se185  1  0.92063428  0.75018418  0.44650130  1
  Se  Se186  1  0.91352776  0.75633464  0.95265193  1
  Se  Se187  1  0.24099096  0.23939418  0.30842892  1
  Se  Se188  1  0.24808718  0.25169814  0.79995092  1
  Se  Se189  1  0.24277891  0.57437950  0.31236590  1
  Se  Se190  1  0.24902694  0.58104717  0.80535964  1
  Se  Se191  1  0.24632169  0.90765323  0.31430584  1
  Se  Se192  1  0.24976298  0.92621850  0.80000228  1
  Se  Se193  1  0.58961508  0.25748779  0.30183493  1
  Se  Se194  1  0.57724437  0.24295340  0.81458555  1
  Se  Se195  1  0.57459438  0.57746646  0.31218989  1
  Se  Se196  1  0.58457686  0.58166155  0.80207499  1
  Se  Se197  1  0.58984608  0.91788890  0.30716162  1
  Se  Se198  1  0.58319523  0.91878342  0.79889510  1
  Se  Se199  1  0.92020517  0.25113225  0.30309551  1
  Se  Se200  1  0.91379701  0.24740522  0.80195540  1
  Se  Se201  1  0.91773293  0.58453984  0.30549715  1
  Se  Se202  1  0.91889448  0.57298832  0.81035550  1
  Se  Se203  1  0.92243182  0.92406666  0.30799109  1
  Se  Se204  1  0.91528322  0.91686675  0.80088925  1
  Se  Se205  1  0.08599915  0.08146074  0.29818263  1
  Se  Se206  1  0.07730143  0.08252797  0.80066748  1
  Se  Se207  1  0.07840526  0.41084680  0.30386597  1
  Se  Se208  1  0.08016026  0.41361265  0.80057453  1
  Se  Se209  1  0.07498658  0.74592871  0.30259629  1
  Se  Se210  1  0.09123894  0.76113424  0.80750889  1
  Se  Se211  1  0.43114356  0.09088495  0.31582715  1
  Se  Se212  1  0.41023284  0.08356204  0.80113010  1
  Se  Se213  1  0.41654769  0.41898681  0.31322086  1
  Se  Se214  1  0.41410850  0.42008896  0.80268496  1
  Se  Se215  1  0.42126020  0.75390394  0.31352322  1
  Se  Se216  1  0.42547019  0.76114821  0.80561397  1
  Se  Se217  1  0.75216154  0.08279585  0.30366282  1
  Se  Se218  1  0.73673303  0.06913706  0.80270940  1
  Se  Se219  1  0.74929995  0.41484901  0.30814995  1
  Se  Se220  1  0.76164713  0.41949036  0.81157823  1
  Se  Se221  1  0.76111700  0.75894939  0.31521634  1
  Se  Se222  1  0.75584173  0.75028225  0.80419869  1
  Se  Se223  1  0.24926043  0.08861103  0.18767527  1
  Se  Se224  1  0.24436613  0.08539406  0.69680814  1
  Se  Se225  1  0.23017845  0.41442304  0.18950005  1
  Se  Se226  1  0.25538879  0.41492661  0.69357044  1
  Se  Se227  1  0.23868957  0.75849313  0.19969845  1
  Se  Se228  1  0.24247447  0.76528703  0.68657916  1
  Se  Se229  1  0.59090889  0.07589362  0.20101603  1
  Se  Se230  1  0.58040077  0.08646164  0.69763113  1
  Se  Se231  1  0.58386708  0.41381071  0.20115911  1
  Se  Se232  1  0.58681297  0.42613803  0.69177126  1
  Se  Se233  1  0.57755453  0.75448872  0.19480803  1
  Se  Se234  1  0.57368005  0.76406645  0.68046084  1
  Se  Se235  1  0.92118624  0.08101380  0.19658745  1
  Se  Se236  1  0.92059804  0.06924999  0.69546391  1
  Se  Se237  1  0.91583291  0.41505953  0.20190643  1
  Se  Se238  1  0.92552639  0.40858748  0.69324004  1
  Se  Se239  1  0.91401306  0.75053668  0.20039227  1
  Se  Se240  1  0.90740587  0.75534141  0.68654872  1
  Se  Se241  1  0.08171180  0.25117264  0.18358573  1
  Se  Se242  1  0.07863355  0.25365864  0.69611658  1
  Se  Se243  1  0.07772058  0.58891763  0.20302024  1
  Se  Se244  1  0.09152930  0.57616916  0.69063428  1
  Se  Se245  1  0.09636959  0.91256442  0.20478429  1
  Se  Se246  1  0.07051051  0.92271088  0.69555901  1
  Se  Se247  1  0.42345877  0.23794283  0.19393755  1
  Se  Se248  1  0.41584224  0.25776338  0.70077628  1
  Se  Se249  1  0.41257958  0.56736558  0.18879126  1
  Se  Se250  1  0.42255826  0.58036773  0.68405060  1
  Se  Se251  1  0.42142813  0.91041158  0.19316050  1
  Se  Se252  1  0.40513242  0.92404598  0.69332919  1
  Se  Se253  1  0.75177500  0.25042193  0.19996719  1
  Se  Se254  1  0.76442414  0.23956352  0.69565102  1
  Se  Se255  1  0.75525915  0.57664528  0.19221469  1
  Se  Se256  1  0.76646013  0.57190471  0.68677487  1
  Se  Se257  1  0.75313345  0.91987735  0.19799346  1
  Se  Se258  1  0.74308938  0.91784934  0.68980560  1
