# generated using pymatgen
data_In86Cu29Se144
_symmetry_space_group_name_H-M   'P 1'
_cell_length_a   17.59415152
_cell_length_b   17.59064208
_cell_length_c   23.46052105
_cell_angle_alpha   89.98980474
_cell_angle_beta   89.99637957
_cell_angle_gamma   90.01571983
_symmetry_Int_Tables_number   1
_chemical_formula_structural   In86Cu29Se144
_chemical_formula_sum   'In86 Cu29 Se144'
_cell_volume   7260.85307775
_cell_formula_units_Z   1
loop_
 _symmetry_equiv_pos_site_id
 _symmetry_equiv_pos_as_xyz
  1  'x, y, z'
loop_
 _atom_site_type_symbol
 _atom_site_label
 _atom_site_symmetry_multiplicity
 _atom_site_fract_x
 _atom_site_fract_y
 _atom_site_fract_z
 _atom_site_occupancy
  In  In0  1  -0.01025399  0.18289174  0.13356780  1
  In  In1  1  -0.01649022  0.14520908  0.61131485  1
  In  In2  1  -0.01294566  0.51221646  0.13021722  1
  In  In3  1  0.00083440  0.49171331  0.62247442  1
  In  In4  1  -0.01926247  0.81079933  0.10526039  1
  In  In5  1  0.01161103  0.84614066  0.61744542  1
  In  In6  1  0.34353317  0.16996156  0.12736087  1
  In  In7  1  0.33330164  0.16346860  0.62198660  1
  In  In8  1  0.33578456  0.50189671  0.13238370  1
  In  In9  1  0.34154137  0.50337895  0.63499990  1
  In  In10  1  0.31666126  0.82991767  0.12036813  1
  In  In11  1  0.32465075  0.84593500  0.63720982  1
  In  In12  1  0.68722294  0.15061242  0.15075240  1
  In  In13  1  0.66429594  0.15929705  0.61954330  1
  In  In14  1  0.67320906  0.49325901  0.13259784  1
  In  In15  1  0.66078869  0.50885483  0.62956680  1
  In  In16  1  0.67334915  0.82557197  0.13229266  1
  In  In17  1  0.67105599  0.83264061  0.63337024  1
  In  In18  1  0.16773719  -0.00353943  0.38685392  1
  In  In19  1  0.15939875  -0.00583835  0.86501529  1
  In  In20  1  0.15774586  0.32271683  0.36740466  1
  In  In21  1  0.17317002  0.32556229  0.87342201  1
  In  In22  1  0.16670668  0.67142442  0.37288136  1
  In  In23  1  0.17458080  0.66919005  0.87695261  1
  In  In24  1  0.52374192  -0.00168512  0.37378640  1
  In  In25  1  0.51075987  0.00236719  0.85829544  1
  In  In26  1  0.49260097  0.32784006  0.37381295  1
  In  In27  1  0.49799439  0.34503379  0.86933813  1
  In  In28  1  0.50145326  0.68253624  0.36229465  1
  In  In29  1  0.52077462  0.68690436  0.85152194  1
  In  In30  1  0.81896156  0.00818058  0.37844511  1
  In  In31  1  0.82891934  -0.00315050  0.87406538  1
  In  In32  1  0.81700870  0.30791669  0.35397779  1
  In  In33  1  0.83498107  0.32625745  0.88820125  1
  In  In34  1  0.83977799  0.67047592  0.36852633  1
  In  In35  1  0.82383969  0.68742251  0.89616195  1
  In  In36  1  -0.00902441  0.16842747  0.37791879  1
  In  In37  1  -0.00739731  0.15623205  0.87073361  1
  In  In38  1  -0.00570451  0.49327783  0.36538596  1
  In  In39  1  -0.00646865  0.49871572  0.88397041  1
  In  In40  1  0.00021958  0.82931997  0.37833193  1
  In  In41  1  -0.01331145  0.84648258  0.89009473  1
  In  In42  1  0.32655844  0.17081161  0.38477326  1
  In  In43  1  0.33680862  0.16813030  0.86099508  1
  In  In44  1  0.33675594  0.50514581  0.37178377  1
  In  In45  1  0.34942912  0.51306980  0.85724415  1
  In  In46  1  0.33085910  0.82235667  0.37660477  1
  In  In47  1  0.33196613  0.82677111  0.86533282  1
  In  In48  1  0.66662041  0.16235594  0.37653954  1
  In  In49  1  0.68092918  0.15327294  0.87793528  1
  In  In50  1  0.67203378  0.50535241  0.36937619  1
  In  In51  1  0.66901732  0.51394085  0.87805525  1
  In  In52  1  0.67431771  0.84572915  0.35919995  1
  In  In53  1  0.68709480  0.85101260  0.85857744  1
  In  In54  1  0.16821951  -0.01291131  0.11962862  1
  In  In55  1  0.16534666  0.00064927  0.62324670  1
  In  In56  1  0.16886556  0.33555248  0.13623783  1
  In  In57  1  0.17782890  0.33132350  0.62292071  1
  In  In58  1  0.15876451  0.67250424  0.12854093  1
  In  In59  1  0.16453637  0.68022394  0.62311458  1
  In  In60  1  0.50975252  0.00688294  0.12392880  1
  In  In61  1  0.49223353  0.00482835  0.63417941  1
  In  In62  1  0.50178282  0.33339897  0.13445932  1
  In  In63  1  0.50539022  0.31694614  0.62114112  1
  In  In64  1  0.50473777  0.66993283  0.13774423  1
  In  In65  1  0.48916132  0.68866156  0.64754810  1
  In  In66  1  0.82695138  -0.00133864  0.12023384  1
  In  In67  1  0.83868142  0.00146473  0.62876552  1
  In  In68  1  0.82763885  0.33109674  0.12753494  1
  In  In69  1  0.84038951  0.32405098  0.62302765  1
  In  In70  1  0.83535843  0.66089231  0.12417095  1
  In  In71  1  0.81332901  0.67391814  0.63383549  1
  In  In72  1  0.50091731  0.50547853  -0.00671967  1
  In  In73  1  -0.00145850  -0.00095440  0.24501839  1
  In  In74  1  0.00410642  0.32694632  0.75535390  1
  In  In75  1  0.16440087  0.50371338  -0.00042825  1
  In  In76  1  0.49825691  0.83840246  0.50138502  1
  In  In77  1  0.50657415  0.83670271  -0.00324424  1
  In  In78  1  0.33806058  -0.00255093  0.24951812  1
  In  In79  1  0.65958049  0.33012283  0.74504348  1
  In  In80  1  -0.00131783  0.67071077  0.75910996  1
  In  In81  1  0.16723787  0.50082847  0.48915276  1
  In  In82  1  0.50897857  0.16783623  -0.00892376  1
  In  In83  1  0.15783619  0.16285228  -0.00180514  1
  In  In84  1  0.83723999  0.49632234  0.49855942  1
  In  In85  1  0.50326214  0.50284989  0.50163555  1
  Cu  Cu86  1  0.67291415  0.66687918  0.00500171  1
  Cu  Cu87  1  0.16860138  0.16616157  0.74185761  1
  Cu  Cu88  1  0.50190967  0.50421106  0.25303636  1
  Cu  Cu89  1  0.67169482  0.32845963  0.01098379  1
  Cu  Cu90  1  0.66667304  0.67784600  0.50517152  1
  Cu  Cu91  1  -0.00147178  0.32105024  0.49097842  1
  Cu  Cu92  1  0.83530088  0.50132066  0.24506374  1
  Cu  Cu93  1  0.17248419  0.50080278  0.25145324  1
  Cu  Cu94  1  -0.00777549  0.33768361  0.00714738  1
  Cu  Cu95  1  0.33516867  0.32198569  0.49962013  1
  Cu  Cu96  1  0.33529812  -0.00131658  0.50784825  1
  Cu  Cu97  1  0.17123708  0.16588076  0.25561554  1
  Cu  Cu98  1  -0.00230473  -0.00462028  0.49929976  1
  Cu  Cu99  1  0.67349605  0.32771661  0.49710087  1
  Cu  Cu100  1  0.82615030  0.49830087  0.75647157  1
  Cu  Cu101  1  0.33380178  -0.00256512  -0.00807082  1
  Cu  Cu102  1  -0.01211000  0.67361878  0.50077903  1
  Cu  Cu103  1  0.49846543  0.16709844  0.74560908  1
  Cu  Cu104  1  0.83911073  0.83043805  0.24431905  1
  Cu  Cu105  1  0.32787873  0.33940577  -0.00044669  1
  Cu  Cu106  1  0.33387214  0.67350726  -0.00460719  1
  Cu  Cu107  1  0.32815844  0.66999312  0.50021336  1
  Cu  Cu108  1  0.16197526  0.82558862  0.24869042  1
  Cu  Cu109  1  0.49958968  0.17193855  0.25454140  1
  Cu  Cu110  1  0.16607999  0.83858398  0.74854950  1
  Cu  Cu111  1  0.17072799  0.50516369  0.74902303  1
  Cu  Cu112  1  -0.00590821  0.00500653  -0.00271858  1
  Cu  Cu113  1  0.67412697  -0.00016348  0.50047438  1
  Cu  Cu114  1  0.84144504  0.83620225  0.75344672  1
  Se  Se115  1  0.06991566  0.07966230  0.06534153  1
  Se  Se116  1  0.08574619  0.07973344  0.54899866  1
  Se  Se117  1  0.08106744  0.41171111  0.06305907  1
  Se  Se118  1  0.07676572  0.40615537  0.54951478  1
  Se  Se119  1  0.10189555  0.76422935  0.05468867  1
  Se  Se120  1  0.08160338  0.75042819  0.54964923  1
  Se  Se121  1  0.41103571  0.07805539  0.05202121  1
  Se  Se122  1  0.42263248  0.08221578  0.55566450  1
  Se  Se123  1  0.41437981  0.41349321  0.05769376  1
  Se  Se124  1  0.40954653  0.41088290  0.55776693  1
  Se  Se125  1  0.41812499  0.74528451  0.05865641  1
  Se  Se126  1  0.40812612  0.74857272  0.56191713  1
  Se  Se127  1  0.74406846  0.09240593  0.06083984  1
  Se  Se128  1  0.75710639  0.08216571  0.55528412  1
  Se  Se129  1  0.75195362  0.42063369  0.05673938  1
  Se  Se130  1  0.74165395  0.41242527  0.56224021  1
  Se  Se131  1  0.75380975  0.75169587  0.05795057  1
  Se  Se132  1  0.75237149  0.75887109  0.55639154  1
  Se  Se133  1  0.25228131  0.25396616  0.05764266  1
  Se  Se134  1  0.24716853  0.24364026  0.55165023  1
  Se  Se135  1  0.26089644  0.58953830  0.05770953  1
  Se  Se136  1  0.25328279  0.58363579  0.55916753  1
  Se  Se137  1  0.24998408  0.91587397  0.04488721  1
  Se  Se138  1  0.25019259  0.91341142  0.55656188  1
  Se  Se139  1  0.58528549  0.24926758  0.06503964  1
  Se  Se140  1  0.58707227  0.24513321  0.54815825  1
  Se  Se141  1  0.58700948  0.58831464  0.06177312  1
  Se  Se142  1  0.58117570  0.60171057  0.56305643  1
  Se  Se143  1  0.59649266  0.92139552  0.05943273  1
  Se  Se144  1  0.59016147  0.92410977  0.56245904  1
  Se  Se145  1  0.91022419  0.24916095  0.05547650  1
  Se  Se146  1  0.91221106  0.24516017  0.54793338  1
  Se  Se147  1  0.92236688  0.58869219  0.05175415  1
  Se  Se148  1  0.91699489  0.59102167  0.56476479  1
  Se  Se149  1  0.91259899  0.92000900  0.05120570  1
  Se  Se150  1  0.91259564  0.91557061  0.55443851  1
  Se  Se151  1  0.08924348  0.24018764  0.44345338  1
  Se  Se152  1  0.06998304  0.26049871  0.94134137  1
  Se  Se153  1  0.06530703  0.58910348  0.44051762  1
  Se  Se154  1  0.07477286  0.59736101  0.94413264  1
  Se  Se155  1  0.08222109  0.90994579  0.44891306  1
  Se  Se156  1  0.08606252  0.92782062  0.94701436  1
  Se  Se157  1  0.42495238  0.24343339  0.44926829  1
  Se  Se158  1  0.40766507  0.25819988  0.93990477  1
  Se  Se159  1  0.41592290  0.59747386  0.44168373  1
  Se  Se160  1  0.41802927  0.60096420  0.93412198  1
  Se  Se161  1  0.41038604  0.92654398  0.43729517  1
  Se  Se162  1  0.41774626  0.92312502  0.93220461  1
  Se  Se163  1  0.75590928  0.24585765  0.44277155  1
  Se  Se164  1  0.74619000  0.24332631  0.95111499  1
  Se  Se165  1  0.74448133  0.59285500  0.44620861  1
  Se  Se166  1  0.75409380  0.57973416  0.95286696  1
  Se  Se167  1  0.74587952  0.91084165  0.44314774  1
  Se  Se168  1  0.76029381  0.90313921  0.94355463  1
  Se  Se169  1  0.25122510  0.08090872  0.45225012  1
  Se  Se170  1  0.25511658  0.08385932  0.93583239  1
  Se  Se171  1  0.25954728  0.40541166  0.43779744  1
  Se  Se172  1  0.25778354  0.42133123  0.93529124  1
  Se  Se173  1  0.24287307  0.75146066  0.44823966  1
  Se  Se174  1  0.25181053  0.75845303  0.94417604  1
  Se  Se175  1  0.58615182  0.08224447  0.45056326  1
  Se  Se176  1  0.59252481  0.06312235  0.94284015  1
  Se  Se177  1  0.59393761  0.41403003  0.44137415  1
  Se  Se178  1  0.59456916  0.40517330  0.94479054  1
  Se  Se179  1  0.58888918  0.75208049  0.43935827  1
  Se  Se180  1  0.59408807  0.74206671  0.94012391  1
  Se  Se181  1  0.91498084  0.07851645  0.44458757  1
  Se  Se182  1  0.90981456  0.08580778  0.94408823  1
  Se  Se183  1  0.91521783  0.40286043  0.43456597  1
  Se  Se184  1  0.90986451  0.42020265  0.95281056  1
  Se  Se185  1  0.90607410  0.75417169  0.44534258  1
  Se  Se186  1  0.92941311  0.74548832  0.95668771  1
  Se  Se187  1  0.25763886  0.24864326  0.30568686  1
  Se  Se188  1  0.24847409  0.25191889  0.79698456  1
  Se  Se189  1  0.25032199  0.58684553  0.30673954  1
  Se  Se190  1  0.24928382  0.59240665  0.80136940  1
  Se  Se191  1  0.23901969  0.91233582  0.30676220  1
  Se  Se192  1  0.25394496  0.92076206  0.80014048  1
  Se  Se193  1  0.58501886  0.25156860  0.30920371  1
  Se  Se194  1  0.57770457  0.23927481  0.81303819  1
  Se  Se195  1  0.58598275  0.58874171  0.30431610  1
  Se  Se196  1  0.56033570  0.55473594  0.81297753  1
  Se  Se197  1  0.56331406  0.89998391  0.29933558  1
  Se  Se198  1  0.57564496  0.89893178  0.79820051  1
  Se  Se199  1  0.93276060  0.25457747  0.30066892  1
  Se  Se200  1  0.90149543  0.24370064  0.80643655  1
  Se  Se201  1  0.91839160  0.58443676  0.29996775  1
  Se  Se202  1  0.90592818  0.57991176  0.81525751  1
  Se  Se203  1  0.91022740  0.91391651  0.30982149  1
  Se  Se204  1  0.92356325  0.91985626  0.80704627  1
  Se  Se205  1  0.09123057  0.08119172  0.31070301  1
  Se  Se206  1  0.08527795  0.09016203  0.80121894  1
  Se  Se207  1  0.08635770  0.41640189  0.30121039  1
  Se  Se208  1  0.09106521  0.42772600  0.81136131  1
  Se  Se209  1  0.07674096  0.74768430  0.30506431  1
  Se  Se210  1  0.08707139  0.76466502  0.81479977  1
  Se  Se211  1  0.42097797  0.08713405  0.31475053  1
  Se  Se212  1  0.41534680  0.07914264  0.79583275  1
  Se  Se213  1  0.41918586  0.41967840  0.30647758  1
  Se  Se214  1  0.39996335  0.39899410  0.80026647  1
  Se  Se215  1  0.40414103  0.75201562  0.29910593  1
  Se  Se216  1  0.41303481  0.74827193  0.79491060  1
  Se  Se217  1  0.74002254  0.07834574  0.30321517  1
  Se  Se218  1  0.74549949  0.07334675  0.80147043  1
  Se  Se219  1  0.75245106  0.42111686  0.30162284  1
  Se  Se220  1  0.75029457  0.41205186  0.81381004  1
  Se  Se221  1  0.75361994  0.74906876  0.29964156  1
  Se  Se222  1  0.76295594  0.74414226  0.80498275  1
  Se  Se223  1  0.24266293  0.08637513  0.18830484  1
  Se  Se224  1  0.25266789  0.07999007  0.69198953  1
  Se  Se225  1  0.25758749  0.41563730  0.20066541  1
  Se  Se226  1  0.24736742  0.41928260  0.69378780  1
  Se  Se227  1  0.25119623  0.74644362  0.19717658  1
  Se  Se228  1  0.24593020  0.74873881  0.69829625  1
  Se  Se229  1  0.57777226  0.08103625  0.20416148  1
  Se  Se230  1  0.58675290  0.08493037  0.69597980  1
  Se  Se231  1  0.58337857  0.41835488  0.20057738  1
  Se  Se232  1  0.56732777  0.42252456  0.68969722  1
  Se  Se233  1  0.58061299  0.75934748  0.20217069  1
  Se  Se234  1  0.60886242  0.73220276  0.69968282  1
  Se  Se235  1  0.90343568  0.09176426  0.19513651  1
  Se  Se236  1  0.92275829  0.08337371  0.69753578  1
  Se  Se237  1  0.91741063  0.41386755  0.19369493  1
  Se  Se238  1  0.90854084  0.42237265  0.69653541  1
  Se  Se239  1  0.92162447  0.74501112  0.19305090  1
  Se  Se240  1  0.91796524  0.75675078  0.68942343  1
  Se  Se241  1  0.08745520  0.24748669  0.20056559  1
  Se  Se242  1  0.08343889  0.24442091  0.68359186  1
  Se  Se243  1  0.08691571  0.57947918  0.19547816  1
  Se  Se244  1  0.08402837  0.57953625  0.69057786  1
  Se  Se245  1  0.08233971  0.90303139  0.18649031  1
  Se  Se246  1  0.08175837  0.92154435  0.69598883  1
  Se  Se247  1  0.41363734  0.25228011  0.20111174  1
  Se  Se248  1  0.41523397  0.24911691  0.69174468  1
  Se  Se249  1  0.41645125  0.58575283  0.20013561  1
  Se  Se250  1  0.41704133  0.58630615  0.70384322  1
  Se  Se251  1  0.41747640  0.91237107  0.18039828  1
  Se  Se252  1  0.43741057  0.89641780  0.69552849  1
  Se  Se253  1  0.73673074  0.26869070  0.20174169  1
  Se  Se254  1  0.75584401  0.24157604  0.69153920  1
  Se  Se255  1  0.74897775  0.58741622  0.19667996  1
  Se  Se256  1  0.74414632  0.58139681  0.70311864  1
  Se  Se257  1  0.75486052  0.91741331  0.19600021  1
  Se  Se258  1  0.75631460  0.91760223  0.69854801  1
