# generated using pymatgen
data_In86Cu29Se144
_symmetry_space_group_name_H-M   'P 1'
_cell_length_a   17.58913816
_cell_length_b   17.58420498
_cell_length_c   23.43945296
_cell_angle_alpha   89.98440639
_cell_angle_beta   89.98086016
_cell_angle_gamma   89.99332402
_symmetry_Int_Tables_number   1
_chemical_formula_structural   In86Cu29Se144
_chemical_formula_sum   'In86 Cu29 Se144'
_cell_volume   7249.61137707
_cell_formula_units_Z   1
loop_
 _symmetry_equiv_pos_site_id
 _symmetry_equiv_pos_as_xyz
  1  'x, y, z'
loop_
 _atom_site_type_symbol
 _atom_site_label
 _atom_site_symmetry_multiplicity
 _atom_site_fract_x
 _atom_site_fract_y
 _atom_site_fract_z
 _atom_site_occupancy
  In  In0  1  0.00720428  0.16544333  0.11440992  1
  In  In1  1  0.02021706  0.15570932  0.64265458  1
  In  In2  1  0.00582709  0.50581576  0.11467932  1
  In  In3  1  0.00718349  0.48908883  0.63667664  1
  In  In4  1  -0.00683842  0.82043590  0.12245076  1
  In  In5  1  -0.01170198  0.83525494  0.62935175  1
  In  In6  1  0.31940546  0.16018302  0.11962673  1
  In  In7  1  0.31406149  0.17870712  0.64370778  1
  In  In8  1  0.32865601  0.50577513  0.12369690  1
  In  In9  1  0.32587564  0.49589959  0.61443715  1
  In  In10  1  0.33477074  0.83566195  0.12779846  1
  In  In11  1  0.34692380  0.83389837  0.62529097  1
  In  In12  1  0.66511930  0.16492420  0.12987208  1
  In  In13  1  0.66284796  0.16461695  0.62057192  1
  In  In14  1  0.66248624  0.50217920  0.13945850  1
  In  In15  1  0.67258707  0.52002621  0.61909032  1
  In  In16  1  0.65170687  0.83330735  0.14347188  1
  In  In17  1  0.65829051  0.81520288  0.61017189  1
  In  In18  1  0.18021478  -0.00004723  0.37772376  1
  In  In19  1  0.16777876  -0.00347733  0.87468489  1
  In  In20  1  0.16413496  0.33198149  0.38643562  1
  In  In21  1  0.16613885  0.33535120  0.88020832  1
  In  In22  1  0.15973675  0.65682426  0.36739135  1
  In  In23  1  0.15518071  0.67952335  0.88427698  1
  In  In24  1  0.49048939  -0.01390835  0.36072330  1
  In  In25  1  0.48801460  0.00206913  0.87947627  1
  In  In26  1  0.51230627  0.33785095  0.36938960  1
  In  In27  1  0.49128307  0.34740300  0.87175964  1
  In  In28  1  0.50110485  0.67082900  0.36720642  1
  In  In29  1  0.51411194  0.66523430  0.87707789  1
  In  In30  1  0.81747069  -0.00755093  0.37225107  1
  In  In31  1  0.83991326  -0.01176144  0.87722653  1
  In  In32  1  0.83176403  0.34993772  0.37085310  1
  In  In33  1  0.86720838  0.33337788  0.88507095  1
  In  In34  1  0.84388064  0.66535766  0.37109984  1
  In  In35  1  0.82785184  0.66017831  0.87453894  1
  In  In36  1  0.00527820  0.17508486  0.38165858  1
  In  In37  1  0.04365683  0.19028733  0.83957079  1
  In  In38  1  -0.00030299  0.50982015  0.37705435  1
  In  In39  1  -0.00241806  0.50319251  0.88181816  1
  In  In40  1  0.00188474  0.81419908  0.37493123  1
  In  In41  1  0.00602130  0.84410455  0.86621713  1
  In  In42  1  0.33300481  0.15610324  0.37724893  1
  In  In43  1  0.30342043  0.14770649  0.85207899  1
  In  In44  1  0.32081073  0.50716849  0.37603447  1
  In  In45  1  0.32911567  0.48855948  0.87292875  1
  In  In46  1  0.34773331  0.83870636  0.36294506  1
  In  In47  1  0.32724827  0.83823858  0.88447145  1
  In  In48  1  0.66301668  0.16123095  0.36596396  1
  In  In49  1  0.66176785  0.16824027  0.88040511  1
  In  In50  1  0.66378759  0.50556021  0.36216273  1
  In  In51  1  0.66897137  0.51830500  0.87729169  1
  In  In52  1  0.66111515  0.83146872  0.37522144  1
  In  In53  1  0.67116579  0.81807576  0.88303031  1
  In  In54  1  0.17584422  0.00301254  0.11789142  1
  In  In55  1  0.16229788  0.00609179  0.63546272  1
  In  In56  1  0.15957459  0.33278042  0.10415626  1
  In  In57  1  0.16803307  0.33572462  0.63147294  1
  In  In58  1  0.16475282  0.66763215  0.12097388  1
  In  In59  1  0.16850130  0.64982813  0.62427017  1
  In  In60  1  0.51094038  -0.02566151  0.14176910  1
  In  In61  1  0.49825187  -0.01257752  0.62426062  1
  In  In62  1  0.50993899  0.34684350  0.12884476  1
  In  In63  1  0.48550277  0.33282586  0.62099075  1
  In  In64  1  0.47501612  0.68150378  0.15415764  1
  In  In65  1  0.50864076  0.67545521  0.61001478  1
  In  In66  1  0.82465343  -0.00837033  0.12450813  1
  In  In67  1  0.84510361  -0.00668391  0.62479129  1
  In  In68  1  0.82326293  0.33816068  0.12262186  1
  In  In69  1  0.84174332  0.34503777  0.62922187  1
  In  In70  1  0.83542520  0.65642062  0.14388748  1
  In  In71  1  0.82481475  0.67204102  0.63134150  1
  In  In72  1  0.33687943  0.33448658  0.24540770  1
  In  In73  1  0.33505656  0.66715714  0.74674127  1
  In  In74  1  0.84048185  0.16432143  -0.00045815  1
  In  In75  1  0.67272020  0.34523014  0.74792974  1
  In  In76  1  0.49106829  0.16351311  -0.00357343  1
  In  In77  1  0.49345019  0.16346683  0.49857929  1
  In  In78  1  -0.00246132  0.33995159  0.24067582  1
  In  In79  1  0.66851148  -0.00603280  0.75053398  1
  In  In80  1  0.83553405  0.50645639  0.49528402  1
  In  In81  1  0.17075526  0.82949544  0.49752859  1
  In  In82  1  0.49857755  0.50919805  0.00881645  1
  In  In83  1  0.83776951  0.16515020  0.50401124  1
  In  In84  1  0.83054575  0.82990267  0.00564818  1
  In  In85  1  0.00216653  0.00134592  0.23679334  1
  Cu  Cu86  1  0.00163408  0.65997011  0.50040977  1
  Cu  Cu87  1  0.83029499  0.82441564  0.75076959  1
  Cu  Cu88  1  0.33402917  0.66770744  0.00750276  1
  Cu  Cu89  1  0.33161705  0.33878665  0.50397163  1
  Cu  Cu90  1  0.33937807  0.66860693  0.49263451  1
  Cu  Cu91  1  0.16371061  0.50327549  0.24508193  1
  Cu  Cu92  1  0.49686143  0.16255344  0.24906662  1
  Cu  Cu93  1  0.83650626  0.83590940  0.25121990  1
  Cu  Cu94  1  0.33630481  -0.00676606  -0.00082609  1
  Cu  Cu95  1  0.49289865  0.17024898  0.75316306  1
  Cu  Cu96  1  0.82712172  0.17536451  0.24734842  1
  Cu  Cu97  1  0.66970651  0.34105156  0.00473570  1
  Cu  Cu98  1  0.00139941  -0.00307783  0.50708108  1
  Cu  Cu99  1  -0.00253419  0.66856488  0.00212707  1
  Cu  Cu100  1  0.33271394  0.00464267  0.49956737  1
  Cu  Cu101  1  0.01012909  0.00482203  -0.00933389  1
  Cu  Cu102  1  0.16574331  0.83305688  0.75420051  1
  Cu  Cu103  1  0.17199424  0.16180999  0.24886784  1
  Cu  Cu104  1  0.16548633  0.50042723  0.75375821  1
  Cu  Cu105  1  0.32899012  0.32557366  -0.00793693  1
  Cu  Cu106  1  0.50064469  0.50655517  0.74595245  1
  Cu  Cu107  1  0.66205345  0.67117029  0.01029585  1
  Cu  Cu108  1  0.17266558  0.82530847  0.24957010  1
  Cu  Cu109  1  0.50247555  0.83135851  0.74765833  1
  Cu  Cu110  1  0.83813379  0.16456437  0.75096618  1
  Cu  Cu111  1  0.01251087  0.32914311  0.51058931  1
  Cu  Cu112  1  0.66701293  0.34013701  0.48708786  1
  Cu  Cu113  1  0.66160586  -0.01307367  0.49432125  1
  Cu  Cu114  1  0.83874333  0.50238241  0.75562792  1
  Se  Se115  1  0.09183779  0.08472044  0.04853385  1
  Se  Se116  1  0.08334233  0.08065449  0.55915325  1
  Se  Se117  1  0.07219624  0.41505838  0.04360848  1
  Se  Se118  1  0.08937400  0.42138354  0.55981829  1
  Se  Se119  1  0.08330654  0.75382519  0.05121972  1
  Se  Se120  1  0.08013039  0.74378040  0.56063168  1
  Se  Se121  1  0.41527153  0.07050756  0.06303242  1
  Se  Se122  1  0.40697849  0.08276195  0.56657649  1
  Se  Se123  1  0.40816249  0.40362682  0.05584657  1
  Se  Se124  1  0.42207094  0.42288217  0.54820666  1
  Se  Se125  1  0.41930077  0.74459391  0.06352375  1
  Se  Se126  1  0.41545177  0.75610976  0.54733817  1
  Se  Se127  1  0.74214065  0.07817470  0.05544365  1
  Se  Se128  1  0.74010786  0.06872976  0.55582080  1
  Se  Se129  1  0.74127068  0.42975177  0.06038724  1
  Se  Se130  1  0.74718330  0.40937282  0.55532796  1
  Se  Se131  1  0.74545669  0.74618083  0.07257670  1
  Se  Se132  1  0.75604270  0.74127968  0.55027250  1
  Se  Se133  1  0.24658541  0.24175613  0.04568875  1
  Se  Se134  1  0.25269887  0.25416694  0.56035178  1
  Se  Se135  1  0.24651880  0.58075683  0.05188619  1
  Se  Se136  1  0.25257229  0.58831793  0.54628149  1
  Se  Se137  1  0.25193904  0.91055158  0.05282178  1
  Se  Se138  1  0.25415197  0.92205693  0.56078353  1
  Se  Se139  1  0.58552003  0.25541468  0.05551875  1
  Se  Se140  1  0.59080180  0.25917898  0.55129573  1
  Se  Se141  1  0.57933821  0.59771358  0.07349299  1
  Se  Se142  1  0.58146659  0.57899489  0.54739882  1
  Se  Se143  1  0.58954064  0.91111472  0.06260372  1
  Se  Se144  1  0.57575086  0.91090566  0.55091930  1
  Se  Se145  1  0.92360195  0.26365166  0.05622918  1
  Se  Se146  1  0.92699472  0.25058984  0.56778651  1
  Se  Se147  1  0.91002542  0.59431413  0.05947788  1
  Se  Se148  1  0.92414264  0.58275136  0.56593678  1
  Se  Se149  1  0.92783736  0.92924234  0.05490539  1
  Se  Se150  1  0.91451429  0.90940122  0.55005536  1
  Se  Se151  1  0.09039465  0.24183610  0.45596490  1
  Se  Se152  1  0.07804469  0.24386501  0.93758688  1
  Se  Se153  1  0.08850881  0.58083759  0.44752342  1
  Se  Se154  1  0.08338535  0.58574322  0.95056201  1
  Se  Se155  1  0.07678247  0.92031669  0.43915147  1
  Se  Se156  1  0.08747809  0.90957926  0.94452844  1
  Se  Se157  1  0.40990512  0.26115496  0.43837006  1
  Se  Se158  1  0.40784104  0.24950846  0.92970752  1
  Se  Se159  1  0.41794655  0.58475471  0.43630369  1
  Se  Se160  1  0.40858591  0.58981577  0.93939976  1
  Se  Se161  1  0.41189253  0.92225399  0.44213414  1
  Se  Se162  1  0.42385642  0.90935562  0.95071266  1
  Se  Se163  1  0.74950106  0.25147642  0.43740338  1
  Se  Se164  1  0.74705960  0.26139412  0.94191900  1
  Se  Se165  1  0.74285789  0.59155058  0.43753447  1
  Se  Se166  1  0.74612714  0.59241711  0.95346747  1
  Se  Se167  1  0.75283240  0.90747668  0.44691050  1
  Se  Se168  1  0.74154944  0.92324464  0.94672769  1
  Se  Se169  1  0.24562672  0.08916154  0.45166318  1
  Se  Se170  1  0.25551731  0.07805624  0.94278910  1
  Se  Se171  1  0.24761312  0.42001921  0.44852180  1
  Se  Se172  1  0.24858483  0.42145583  0.94986020  1
  Se  Se173  1  0.25607215  0.74596239  0.43090797  1
  Se  Se174  1  0.25074364  0.74903389  0.95120952  1
  Se  Se175  1  0.58356892  0.07499418  0.43855112  1
  Se  Se176  1  0.59141663  0.07156258  0.94637000  1
  Se  Se177  1  0.58569389  0.42651088  0.43823460  1
  Se  Se178  1  0.58694366  0.41767034  0.94307161  1
  Se  Se179  1  0.56558470  0.76151268  0.44084391  1
  Se  Se180  1  0.57904535  0.75039767  0.95373885  1
  Se  Se181  1  0.92207161  0.07295318  0.43985316  1
  Se  Se182  1  0.92742229  0.08321515  0.93270785  1
  Se  Se183  1  0.93080903  0.40483737  0.44676603  1
  Se  Se184  1  0.90060442  0.44041676  0.95284830  1
  Se  Se185  1  0.91850232  0.74437629  0.44900057  1
  Se  Se186  1  0.92056237  0.75047232  0.93872286  1
  Se  Se187  1  0.24444156  0.24807627  0.30966736  1
  Se  Se188  1  0.25994366  0.27190204  0.80726568  1
  Se  Se189  1  0.25000848  0.58446925  0.29700311  1
  Se  Se190  1  0.24412346  0.58599091  0.81228866  1
  Se  Se191  1  0.24697099  0.91561765  0.30338923  1
  Se  Se192  1  0.25371131  0.91153883  0.80641926  1
  Se  Se193  1  0.58112811  0.24705348  0.29988128  1
  Se  Se194  1  0.58007575  0.25084756  0.80741923  1
  Se  Se195  1  0.60330508  0.60972105  0.29520227  1
  Se  Se196  1  0.58531325  0.58518280  0.80043303  1
  Se  Se197  1  0.60243562  0.93118215  0.30491160  1
  Se  Se198  1  0.57916723  0.90862421  0.81377045  1
  Se  Se199  1  0.91385639  0.24615848  0.30741591  1
  Se  Se200  1  0.91808705  0.25246630  0.80170246  1
  Se  Se201  1  0.91277735  0.57026553  0.30354238  1
  Se  Se202  1  0.92119889  0.58790297  0.80775339  1
  Se  Se203  1  0.92213057  0.91624903  0.30859980  1
  Se  Se204  1  0.91124619  0.91523887  0.79849643  1
  Se  Se205  1  0.08485837  0.08735850  0.30792948  1
  Se  Se206  1  0.07544376  0.05894607  0.80105864  1
  Se  Se207  1  0.09085675  0.41870857  0.30810208  1
  Se  Se208  1  0.08324133  0.42287197  0.81256974  1
  Se  Se209  1  0.08218679  0.74530303  0.29873961  1
  Se  Se210  1  0.08134851  0.74726496  0.80275116  1
  Se  Se211  1  0.40970414  0.08329168  0.30135261  1
  Se  Se212  1  0.41646876  0.07792268  0.80215840  1
  Se  Se213  1  0.41741787  0.42367818  0.30975732  1
  Se  Se214  1  0.41538897  0.42349097  0.79656970  1
  Se  Se215  1  0.41283912  0.74372692  0.29562884  1
  Se  Se216  1  0.42307928  0.75311137  0.81145651  1
  Se  Se217  1  0.75327648  0.08362436  0.30005842  1
  Se  Se218  1  0.75430948  0.09015167  0.81124657  1
  Se  Se219  1  0.74575533  0.41490833  0.29954664  1
  Se  Se220  1  0.75905123  0.42169356  0.81843723  1
  Se  Se221  1  0.75855987  0.75635794  0.31065725  1
  Se  Se222  1  0.74491407  0.74519629  0.80542073  1
  Se  Se223  1  0.25236685  0.07665648  0.19646174  1
  Se  Se224  1  0.25066735  0.07717138  0.70574519  1
  Se  Se225  1  0.23439497  0.41288214  0.18580633  1
  Se  Se226  1  0.25220482  0.42634102  0.69527724  1
  Se  Se227  1  0.25156736  0.74320330  0.19154862  1
  Se  Se228  1  0.24230198  0.75702131  0.68729896  1
  Se  Se229  1  0.58398459  0.08101290  0.19748867  1
  Se  Se230  1  0.57551721  0.09061778  0.69377891  1
  Se  Se231  1  0.58150736  0.41593827  0.20704847  1
  Se  Se232  1  0.57849747  0.42405957  0.68413193  1
  Se  Se233  1  0.58746513  0.73689646  0.21304989  1
  Se  Se234  1  0.58117661  0.74835573  0.69090189  1
  Se  Se235  1  0.90636089  0.09752199  0.18455111  1
  Se  Se236  1  0.91616225  0.07808421  0.69718760  1
  Se  Se237  1  0.90743149  0.43111209  0.18655688  1
  Se  Se238  1  0.91976930  0.41262531  0.70691525  1
  Se  Se239  1  0.92113269  0.75027380  0.20208148  1
  Se  Se240  1  0.91811174  0.74356336  0.69920852  1
  Se  Se241  1  0.09335957  0.24343994  0.18918319  1
  Se  Se242  1  0.08578599  0.25718538  0.70357199  1
  Se  Se243  1  0.08045037  0.58471915  0.19052158  1
  Se  Se244  1  0.08373758  0.58486790  0.70028749  1
  Se  Se245  1  0.09364484  0.90476120  0.18585411  1
  Se  Se246  1  0.08145887  0.91044888  0.69488904  1
  Se  Se247  1  0.42225115  0.24119732  0.18323504  1
  Se  Se248  1  0.41564510  0.25749878  0.69947481  1
  Se  Se249  1  0.42953046  0.55215006  0.19353065  1
  Se  Se250  1  0.42166544  0.58246447  0.68144822  1
  Se  Se251  1  0.41317843  0.90805363  0.20539555  1
  Se  Se252  1  0.41659818  0.91753533  0.70073147  1
  Se  Se253  1  0.74390805  0.25679591  0.19366722  1
  Se  Se254  1  0.75582398  0.24144469  0.68956110  1
  Se  Se255  1  0.73107193  0.59689262  0.20930127  1
  Se  Se256  1  0.75143689  0.57997758  0.70072434  1
  Se  Se257  1  0.75029287  0.91796021  0.20030070  1
  Se  Se258  1  0.75135865  0.90416065  0.68648216  1
