# generated using pymatgen
data_In86Cu29Se144
_symmetry_space_group_name_H-M   'P 1'
_cell_length_a   17.71152123
_cell_length_b   17.70932900
_cell_length_c   23.55947182
_cell_angle_alpha   90.02214027
_cell_angle_beta   89.99397576
_cell_angle_gamma   90.00909502
_symmetry_Int_Tables_number   1
_chemical_formula_structural   In86Cu29Se144
_chemical_formula_sum   'In86 Cu29 Se144'
_cell_volume   7389.64337408
_cell_formula_units_Z   1
loop_
 _symmetry_equiv_pos_site_id
 _symmetry_equiv_pos_as_xyz
  1  'x, y, z'
loop_
 _atom_site_type_symbol
 _atom_site_label
 _atom_site_symmetry_multiplicity
 _atom_site_fract_x
 _atom_site_fract_y
 _atom_site_fract_z
 _atom_site_occupancy
  In  In0  1  0.00746552  0.15365592  0.11495191  1
  In  In1  1  0.04200982  0.14139678  0.67215227  1
  In  In2  1  -0.00775631  0.49744566  0.10312623  1
  In  In3  1  0.01209819  0.49164156  0.63498383  1
  In  In4  1  -0.00571848  0.82820275  0.12459748  1
  In  In5  1  0.01810394  0.81395128  0.63794942  1
  In  In6  1  0.33169854  0.16827654  0.12727963  1
  In  In7  1  0.33429082  0.17079005  0.62908270  1
  In  In8  1  0.32716393  0.49141326  0.12480253  1
  In  In9  1  0.32649712  0.50717950  0.63434135  1
  In  In10  1  0.32959710  0.82611615  0.14154305  1
  In  In11  1  0.33731407  0.83483913  0.62416291  1
  In  In12  1  0.65807365  0.17855392  0.12476404  1
  In  In13  1  0.66583135  0.17689593  0.62562525  1
  In  In14  1  0.61189873  0.46014186  0.06137567  1
  In  In15  1  0.67308013  0.49695062  0.63713388  1
  In  In16  1  0.65679972  0.81962616  0.12084113  1
  In  In17  1  0.65036303  0.83331614  0.62354090  1
  In  In18  1  0.18110163  -0.00638936  0.39014880  1
  In  In19  1  0.17396467  0.02003436  0.84963955  1
  In  In20  1  0.17635857  0.32269474  0.38681454  1
  In  In21  1  0.17786223  0.32713838  0.86519570  1
  In  In22  1  0.17973132  0.65871294  0.38481207  1
  In  In23  1  0.15763699  0.65460945  0.86578221  1
  In  In24  1  0.48762781  0.00436327  0.37934001  1
  In  In25  1  0.49154052  0.01724957  0.88278381  1
  In  In26  1  0.49057881  0.32511963  0.36506024  1
  In  In27  1  0.49731355  0.33887124  0.87921504  1
  In  In28  1  0.49102740  0.67763825  0.37799429  1
  In  In29  1  0.49022094  0.66198263  0.87713415  1
  In  In30  1  0.84712270  0.00190616  0.37303783  1
  In  In31  1  0.84201600  -0.00453920  0.86793732  1
  In  In32  1  0.83384360  0.34271196  0.37155981  1
  In  In33  1  0.83340681  0.34773648  0.87709364  1
  In  In34  1  0.83209432  0.65795053  0.37618129  1
  In  In35  1  0.83630027  0.66778875  0.86927260  1
  In  In36  1  0.01002499  0.17581352  0.38219854  1
  In  In37  1  0.02028916  0.19246827  0.84930197  1
  In  In38  1  0.00159885  0.50905543  0.37839824  1
  In  In39  1  0.00868344  0.50214273  0.87872492  1
  In  In40  1  0.01020064  0.84479681  0.38127953  1
  In  In41  1  -0.00267904  0.83630853  0.85440461  1
  In  In42  1  0.33437958  0.16817773  0.37672827  1
  In  In43  1  0.32682406  0.16809657  0.86992077  1
  In  In44  1  0.33082632  0.48923712  0.36446121  1
  In  In45  1  0.33472587  0.49939221  0.87753036  1
  In  In46  1  0.33188945  0.83122659  0.37793801  1
  In  In47  1  0.33243680  0.84014906  0.86892783  1
  In  In48  1  0.64870125  0.17005979  0.37315702  1
  In  In49  1  0.65078640  0.18049945  0.88691100  1
  In  In50  1  0.66810501  0.49596643  0.36603638  1
  In  In51  1  0.66491483  0.50706104  0.88234187  1
  In  In52  1  0.65775490  0.82338347  0.37952967  1
  In  In53  1  0.66942253  0.82559440  0.87459328  1
  In  In54  1  0.17368286  0.00954924  0.12029620  1
  In  In55  1  0.18397295  0.00771659  0.63252890  1
  In  In56  1  0.17345444  0.33932010  0.12041641  1
  In  In57  1  0.16753888  0.33250715  0.62980565  1
  In  In58  1  0.17317578  0.66046617  0.12421797  1
  In  In59  1  0.17373228  0.66518489  0.62604200  1
  In  In60  1  0.46814733  0.00006002  0.12895835  1
  In  In61  1  0.49462122  -0.00361288  0.62044371  1
  In  In62  1  0.49194515  0.32468517  0.12183920  1
  In  In63  1  0.51030093  0.32787155  0.62914315  1
  In  In64  1  0.49542923  0.65123393  0.12099537  1
  In  In65  1  0.48835555  0.67293927  0.63553449  1
  In  In66  1  0.83355381  -0.01360633  0.12071030  1
  In  In67  1  0.83744149  0.00162497  0.62859732  1
  In  In68  1  0.81591622  0.33578624  0.11621240  1
  In  In69  1  0.83710951  0.32828020  0.63567986  1
  In  In70  1  0.78053324  0.59110713  0.06857518  1
  In  In71  1  0.84096588  0.66172666  0.63964714  1
  In  In72  1  0.83749297  0.17078072  0.51009621  1
  In  In73  1  0.17002168  0.83514046  -0.00854225  1
  In  In74  1  0.84037366  0.16899212  -0.00905017  1
  In  In75  1  0.00747051  0.33043955  0.24545717  1
  In  In76  1  0.83801347  0.49843341  0.50933908  1
  In  In77  1  0.66472994  -0.00010464  0.75599915  1
  In  In78  1  0.84082737  0.83642247  -0.01235245  1
  In  In79  1  0.00442346  -0.00104931  0.25217115  1
  In  In80  1  -0.00070191  0.67182313  0.23991838  1
  In  In81  1  0.65843426  0.00084347  0.26020400  1
  In  In82  1  0.83312453  0.83462096  0.50273538  1
  In  In83  1  0.65994553  0.65491303  0.23636085  1
  In  In84  1  0.49976139  0.49805636  0.50399972  1
  In  In85  1  0.49648977  0.83732947  -0.00134678  1
  Cu  Cu86  1  0.82647818  0.82152366  0.24319491  1
  Cu  Cu87  1  0.66152550  0.32795184  0.49813031  1
  Cu  Cu88  1  0.50155928  0.49419809  0.23557116  1
  Cu  Cu89  1  0.82792918  0.50559606  0.75926663  1
  Cu  Cu90  1  0.01171225  0.66979715  0.50272012  1
  Cu  Cu91  1  0.83051173  0.17064552  0.24250594  1
  Cu  Cu92  1  0.49638540  0.17028089  0.24931081  1
  Cu  Cu93  1  0.33043663  0.65871325  0.00016409  1
  Cu  Cu94  1  0.49858458  0.83402010  0.74990802  1
  Cu  Cu95  1  0.33480159  0.33410760  0.49937063  1
  Cu  Cu96  1  0.65922822  -0.00210222  0.49639915  1
  Cu  Cu97  1  0.17171279  0.50136642  0.75270436  1
  Cu  Cu98  1  0.01543630  0.00573533  -0.01517080  1
  Cu  Cu99  1  0.17919466  0.83228098  0.74532847  1
  Cu  Cu100  1  0.32662097  0.32615354  -0.00301339  1
  Cu  Cu101  1  0.33468432  0.66766402  0.50569922  1
  Cu  Cu102  1  0.17492257  0.16228220  0.25323894  1
  Cu  Cu103  1  0.01219751  0.00310307  0.51385263  1
  Cu  Cu104  1  0.00883456  0.32690727  -0.01170155  1
  Cu  Cu105  1  0.01266253  0.33350536  0.50968811  1
  Cu  Cu106  1  0.81964161  0.17486089  0.75391060  1
  Cu  Cu107  1  0.66113654  0.66611948  0.50568791  1
  Cu  Cu108  1  0.82865359  0.49125983  0.24172534  1
  Cu  Cu109  1  0.50191833  0.17209582  0.75630863  1
  Cu  Cu110  1  0.16315670  0.49810037  0.25166477  1
  Cu  Cu111  1  0.33596146  0.00743435  0.50429539  1
  Cu  Cu112  1  0.50297883  0.49870037  0.75703103  1
  Cu  Cu113  1  0.66329751  0.00602856  0.00469287  1
  Cu  Cu114  1  0.16566261  0.83022066  0.25592173  1
  Se  Se115  1  0.09435424  0.08302131  0.04469962  1
  Se  Se116  1  0.08420047  0.08749854  0.57338605  1
  Se  Se117  1  0.08449356  0.40938526  0.04928231  1
  Se  Se118  1  0.09210697  0.42265697  0.55839898  1
  Se  Se119  1  0.08503909  0.74960462  0.05896909  1
  Se  Se120  1  0.09302288  0.75156689  0.55620462  1
  Se  Se121  1  0.42128872  0.09584069  0.05746063  1
  Se  Se122  1  0.41766412  0.09015860  0.55841408  1
  Se  Se123  1  0.40650647  0.40874612  0.05445245  1
  Se  Se124  1  0.41127134  0.41087154  0.56469756  1
  Se  Se125  1  0.40617559  0.74458437  0.05938227  1
  Se  Se126  1  0.42079404  0.74920058  0.55632835  1
  Se  Se127  1  0.75248354  0.08164864  0.05999296  1
  Se  Se128  1  0.73999212  0.07426551  0.55794558  1
  Se  Se129  1  0.76162980  0.43870097  0.04913109  1
  Se  Se130  1  0.74234636  0.40536760  0.55929431  1
  Se  Se131  1  0.76142694  0.75791436  0.06000891  1
  Se  Se132  1  0.74862307  0.74083944  0.56256702  1
  Se  Se133  1  0.24668242  0.24600864  0.05572835  1
  Se  Se134  1  0.25440837  0.25585143  0.55929988  1
  Se  Se135  1  0.24769199  0.57625146  0.05388673  1
  Se  Se136  1  0.25348132  0.58044786  0.55588722  1
  Se  Se137  1  0.25735712  0.91103010  0.06297289  1
  Se  Se138  1  0.25566512  0.92353901  0.55917892  1
  Se  Se139  1  0.58417218  0.25441536  0.05183221  1
  Se  Se140  1  0.58045422  0.24605661  0.55196488  1
  Se  Se141  1  0.61175393  0.60890128  0.06247001  1
  Se  Se142  1  0.58792438  0.58414877  0.56732271  1
  Se  Se143  1  0.58379461  0.92660949  0.06408099  1
  Se  Se144  1  0.57854010  0.91540785  0.55065435  1
  Se  Se145  1  0.92696116  0.25772406  0.05792847  1
  Se  Se146  1  0.92894477  0.25576891  0.56702811  1
  Se  Se147  1  0.92694223  0.61432485  0.06478167  1
  Se  Se148  1  0.92899587  0.59185264  0.56242436  1
  Se  Se149  1  0.93538306  0.92928780  0.04886206  1
  Se  Se150  1  0.92566433  0.91850866  0.56327175  1
  Se  Se151  1  0.09032580  0.24575643  0.45631101  1
  Se  Se152  1  0.09147391  0.24541328  0.93589855  1
  Se  Se153  1  0.08657396  0.58050290  0.44875598  1
  Se  Se154  1  0.09141605  0.58468103  0.94652367  1
  Se  Se155  1  0.08768521  0.91806903  0.45543500  1
  Se  Se156  1  0.08614743  0.92041981  0.92471383  1
  Se  Se157  1  0.41840833  0.25407603  0.44385583  1
  Se  Se158  1  0.41062982  0.24961012  0.93941180  1
  Se  Se159  1  0.40905731  0.58348498  0.44284340  1
  Se  Se160  1  0.41880257  0.57781120  0.95032635  1
  Se  Se161  1  0.41001590  0.91907079  0.44733402  1
  Se  Se162  1  0.40236190  0.92759571  0.94594677  1
  Se  Se163  1  0.74979725  0.25363028  0.43980415  1
  Se  Se164  1  0.74427170  0.26586374  0.94871807  1
  Se  Se165  1  0.73935897  0.58308123  0.44625236  1
  Se  Se166  1  0.75488190  0.59382272  0.94380833  1
  Se  Se167  1  0.74639225  0.92545095  0.43692487  1
  Se  Se168  1  0.74105520  0.93193702  0.94024354  1
  Se  Se169  1  0.25288407  0.09166446  0.45091297  1
  Se  Se170  1  0.24598336  0.07690349  0.93384216  1
  Se  Se171  1  0.25628633  0.41972716  0.44455308  1
  Se  Se172  1  0.24951103  0.41080649  0.93999259  1
  Se  Se173  1  0.25143630  0.75087128  0.45115775  1
  Se  Se174  1  0.25949523  0.74077407  0.93628660  1
  Se  Se175  1  0.57985261  0.08388965  0.44386560  1
  Se  Se176  1  0.57924501  0.08820047  0.95345486  1
  Se  Se177  1  0.58719575  0.41159627  0.43780173  1
  Se  Se178  1  0.57875404  0.42478654  0.95088489  1
  Se  Se179  1  0.57881818  0.74617515  0.45132470  1
  Se  Se180  1  0.58730419  0.74496093  0.94504638  1
  Se  Se181  1  0.93025925  0.07635689  0.44902664  1
  Se  Se182  1  0.93103345  0.08535776  0.92927569  1
  Se  Se183  1  0.92817267  0.40693605  0.44695316  1
  Se  Se184  1  0.92390757  0.41710700  0.94617821  1
  Se  Se185  1  0.92487421  0.74184181  0.44129812  1
  Se  Se186  1  0.93579830  0.74870759  0.93407305  1
  Se  Se187  1  0.24941559  0.25073991  0.30791883  1
  Se  Se188  1  0.23843398  0.23024020  0.79301152  1
  Se  Se189  1  0.24534287  0.58081012  0.30523596  1
  Se  Se190  1  0.25744670  0.58342832  0.80501123  1
  Se  Se191  1  0.24429398  0.91484483  0.31069282  1
  Se  Se192  1  0.25764394  0.92148444  0.79585609  1
  Se  Se193  1  0.58557311  0.25412755  0.29727637  1
  Se  Se194  1  0.58241707  0.25700477  0.80912237  1
  Se  Se195  1  0.56976375  0.57493906  0.30628044  1
  Se  Se196  1  0.58110969  0.58540216  0.81095412  1
  Se  Se197  1  0.57101816  0.90547602  0.31327348  1
  Se  Se198  1  0.57133126  0.91356446  0.81663792  1
  Se  Se199  1  0.91426173  0.24135329  0.30735859  1
  Se  Se200  1  0.90392039  0.25848616  0.80500240  1
  Se  Se201  1  0.90809558  0.57198559  0.30223435  1
  Se  Se202  1  0.92217810  0.58026297  0.80791522  1
  Se  Se203  1  0.90921352  0.89909103  0.30354428  1
  Se  Se204  1  0.91343956  0.92243241  0.79148154  1
  Se  Se205  1  0.09185579  0.08681369  0.31439018  1
  Se  Se206  1  0.06532857  0.07918816  0.78814301  1
  Se  Se207  1  0.08678470  0.41811183  0.31412710  1
  Se  Se208  1  0.08923709  0.41983430  0.80781700  1
  Se  Se209  1  0.08399131  0.74983228  0.31368838  1
  Se  Se210  1  0.09276665  0.75226743  0.79826753  1
  Se  Se211  1  0.41648602  0.08750116  0.30565490  1
  Se  Se212  1  0.41798227  0.08568785  0.80380125  1
  Se  Se213  1  0.42137205  0.41664711  0.29642340  1
  Se  Se214  1  0.41625259  0.41667635  0.80736428  1
  Se  Se215  1  0.40144578  0.74011891  0.30802806  1
  Se  Se216  1  0.41868361  0.75280315  0.80781288  1
  Se  Se217  1  0.75960783  0.09287497  0.31084746  1
  Se  Se218  1  0.74696705  0.09572927  0.81780437  1
  Se  Se219  1  0.74824452  0.41135125  0.29882733  1
  Se  Se220  1  0.74299097  0.42323669  0.81061457  1
  Se  Se221  1  0.74988684  0.74662347  0.30852420  1
  Se  Se222  1  0.76507573  0.76707252  0.80747820  1
  Se  Se223  1  0.25248148  0.07886791  0.19651022  1
  Se  Se224  1  0.24232113  0.10882679  0.70337442  1
  Se  Se225  1  0.24522565  0.41309040  0.19864597  1
  Se  Se226  1  0.25160417  0.41509545  0.69913588  1
  Se  Se227  1  0.24028809  0.74123547  0.20166652  1
  Se  Se228  1  0.26022837  0.74661932  0.69281283  1
  Se  Se229  1  0.57639864  0.08619001  0.19172254  1
  Se  Se230  1  0.57865886  0.08941752  0.69338024  1
  Se  Se231  1  0.58233418  0.42770365  0.16887518  1
  Se  Se232  1  0.58302944  0.41677678  0.69927721  1
  Se  Se233  1  0.56429326  0.75341690  0.19281037  1
  Se  Se234  1  0.58262403  0.75073875  0.69885312  1
  Se  Se235  1  0.90956632  0.08536452  0.18874476  1
  Se  Se236  1  0.89993394  0.10170316  0.69206292  1
  Se  Se237  1  0.91469631  0.41539900  0.18422886  1
  Se  Se238  1  0.90654571  0.42920072  0.69612440  1
  Se  Se239  1  0.89845006  0.74347975  0.18015112  1
  Se  Se240  1  0.91139623  0.75994080  0.69941559  1
  Se  Se241  1  0.09135476  0.23327209  0.18866690  1
  Se  Se242  1  0.06357651  0.28002626  0.69823054  1
  Se  Se243  1  0.08204555  0.56875808  0.18799259  1
  Se  Se244  1  0.09033685  0.58488764  0.69686470  1
  Se  Se245  1  0.09028164  0.90876818  0.19052450  1
  Se  Se246  1  0.09603064  0.91506358  0.69259258  1
  Se  Se247  1  0.41166313  0.25246409  0.19734388  1
  Se  Se248  1  0.42234431  0.25140476  0.69637958  1
  Se  Se249  1  0.41105759  0.57760767  0.19157954  1
  Se  Se250  1  0.41893215  0.57940153  0.70164879  1
  Se  Se251  1  0.41722550  0.90884550  0.20299932  1
  Se  Se252  1  0.41964707  0.91796848  0.69459260  1
  Se  Se253  1  0.74803659  0.25359050  0.19251876  1
  Se  Se254  1  0.73881921  0.25754438  0.69918332  1
  Se  Se255  1  0.75403836  0.57234912  0.18205173  1
  Se  Se256  1  0.74654977  0.58805171  0.70318242  1
  Se  Se257  1  0.74541123  0.91044820  0.19297388  1
  Se  Se258  1  0.74612479  0.91339000  0.68855379  1
