# generated using pymatgen
data_In86Cu29Se144
_symmetry_space_group_name_H-M   'P 1'
_cell_length_a   17.58326791
_cell_length_b   17.58249740
_cell_length_c   23.44578055
_cell_angle_alpha   89.99701242
_cell_angle_beta   90.00274644
_cell_angle_gamma   90.00490566
_symmetry_Int_Tables_number   1
_chemical_formula_structural   In86Cu29Se144
_chemical_formula_sum   'In86 Cu29 Se144'
_cell_volume   7248.44500263
_cell_formula_units_Z   1
loop_
 _symmetry_equiv_pos_site_id
 _symmetry_equiv_pos_as_xyz
  1  'x, y, z'
loop_
 _atom_site_type_symbol
 _atom_site_label
 _atom_site_symmetry_multiplicity
 _atom_site_fract_x
 _atom_site_fract_y
 _atom_site_fract_z
 _atom_site_occupancy
  In  In0  1  -0.02254935  0.16789193  0.13545171  1
  In  In1  1  0.00469410  0.18130330  0.61210413  1
  In  In2  1  0.01897041  0.51962421  0.10379902  1
  In  In3  1  -0.02434005  0.47339455  0.59922180  1
  In  In4  1  0.00953534  0.82056785  0.13747109  1
  In  In5  1  0.00333132  0.83546984  0.61565523  1
  In  In6  1  0.34699057  0.16892168  0.12644833  1
  In  In7  1  0.31320119  0.16626805  0.62518737  1
  In  In8  1  0.33206095  0.49996506  0.13066789  1
  In  In9  1  0.33099294  0.49631730  0.61523504  1
  In  In10  1  0.31176322  0.83332178  0.12396417  1
  In  In11  1  0.33144400  0.84154227  0.62964422  1
  In  In12  1  0.66550790  0.18099764  0.13656319  1
  In  In13  1  0.68386237  0.16875255  0.62075382  1
  In  In14  1  0.65359318  0.49606015  0.11365093  1
  In  In15  1  0.66860365  0.50123878  0.62506854  1
  In  In16  1  0.68192277  0.83379661  0.12699000  1
  In  In17  1  0.66336122  0.81993432  0.62357773  1
  In  In18  1  0.15527102  0.00764962  0.38324833  1
  In  In19  1  0.16664284  -0.01567256  0.87476149  1
  In  In20  1  0.16657723  0.32683883  0.38156316  1
  In  In21  1  0.16152075  0.34755572  0.87875185  1
  In  In22  1  0.16741464  0.66822818  0.37513932  1
  In  In23  1  0.15902893  0.66411044  0.88694308  1
  In  In24  1  0.50540823  -0.01093934  0.37042033  1
  In  In25  1  0.49906170  0.01956330  0.87719389  1
  In  In26  1  0.51278707  0.34045480  0.36950745  1
  In  In27  1  0.50645515  0.33030306  0.88015268  1
  In  In28  1  0.48619366  0.66506835  0.36852467  1
  In  In29  1  0.51066926  0.64821106  0.88594919  1
  In  In30  1  0.83484038  0.00147207  0.37420670  1
  In  In31  1  0.84174204  -0.00107814  0.87492061  1
  In  In32  1  0.83756609  0.34251624  0.38404733  1
  In  In33  1  0.84965208  0.35600022  0.85322539  1
  In  In34  1  0.84513203  0.65522722  0.38167390  1
  In  In35  1  0.82067088  0.65585896  0.87183378  1
  In  In36  1  0.01025213  0.16788974  0.38275529  1
  In  In37  1  -0.01509148  0.17579953  0.87637726  1
  In  In38  1  -0.00759021  0.50203230  0.38471745  1
  In  In39  1  -0.00272600  0.49775645  0.88255114  1
  In  In40  1  0.00174754  0.83064992  0.37665975  1
  In  In41  1  0.00552244  0.83326035  0.87748196  1
  In  In42  1  0.31488540  0.16619076  0.37431441  1
  In  In43  1  0.34319956  0.17513085  0.87359677  1
  In  In44  1  0.33376844  0.50127275  0.37294207  1
  In  In45  1  0.33141221  0.50709615  0.88367929  1
  In  In46  1  0.33651533  0.82025024  0.37276819  1
  In  In47  1  0.31654164  0.82882825  0.87194154  1
  In  In48  1  0.68701181  0.18182978  0.35885623  1
  In  In49  1  0.65325521  0.17518789  0.87812043  1
  In  In50  1  0.67811727  0.48769218  0.37970965  1
  In  In51  1  0.67104735  0.49375698  0.87773825  1
  In  In52  1  0.66996650  0.84667352  0.37001789  1
  In  In53  1  0.68078964  0.82978491  0.87102817  1
  In  In54  1  0.16205398  -0.01432988  0.12633390  1
  In  In55  1  0.16499593  -0.00045208  0.62377589  1
  In  In56  1  0.15928615  0.35658142  0.12790510  1
  In  In57  1  0.15472583  0.32969881  0.61153924  1
  In  In58  1  0.16349080  0.66930745  0.12700419  1
  In  In59  1  0.16547269  0.66153982  0.61897791  1
  In  In60  1  0.50029266  0.01815573  0.12319299  1
  In  In61  1  0.49587504  -0.01367776  0.62829922  1
  In  In62  1  0.50217563  0.33519269  0.12831747  1
  In  In63  1  0.49647174  0.35039524  0.62431120  1
  In  In64  1  0.50006427  0.64060322  0.12192436  1
  In  In65  1  0.51765594  0.66602592  0.62771342  1
  In  In66  1  0.83506723  0.00732463  0.14413223  1
  In  In67  1  0.84114602  0.00721917  0.61166612  1
  In  In68  1  0.82709935  0.33958042  0.13010449  1
  In  In69  1  0.83154164  0.33418451  0.62566792  1
  In  In70  1  0.84575937  0.66273966  0.12176558  1
  In  In71  1  0.82132803  0.65578211  0.61735593  1
  In  In72  1  -0.00214627  0.33795897  0.25228162  1
  In  In73  1  0.33322318  0.00170639  0.24898413  1
  In  In74  1  0.16678938  0.17290227  0.00274798  1
  In  In75  1  0.84513869  0.82596098  0.00167384  1
  In  In76  1  0.33666349  0.66436699  0.75464875  1
  In  In77  1  0.50070266  0.16598570  0.49587350  1
  In  In78  1  0.49545088  0.83012986  -0.00626599  1
  In  In79  1  0.00578573  0.00320686  0.74249412  1
  In  In80  1  0.33202158  0.33295308  0.75146965  1
  In  In81  1  0.66973549  0.00244399  0.75109032  1
  In  In82  1  0.50107649  0.82586738  0.49773803  1
  In  In83  1  0.82707107  0.17913301  0.01139873  1
  In  In84  1  0.00112289  0.66040070  0.75151080  1
  In  In85  1  0.66836868  0.66436790  0.24392911  1
  Cu  Cu86  1  0.49730459  0.83178469  0.75232592  1
  Cu  Cu87  1  0.16272494  0.83113614  0.25377418  1
  Cu  Cu88  1  0.15569345  0.49547077  0.74817938  1
  Cu  Cu89  1  0.32916752  0.66535446  0.00500445  1
  Cu  Cu90  1  0.32351842  0.00050303  0.50294941  1
  Cu  Cu91  1  0.83884577  0.83260622  0.25350384  1
  Cu  Cu92  1  0.16664662  0.17078981  0.25528541  1
  Cu  Cu93  1  0.66634632  0.33748817  0.49821885  1
  Cu  Cu94  1  0.34256152  0.33781053  0.00437396  1
  Cu  Cu95  1  0.33251024  0.66477795  0.49633896  1
  Cu  Cu96  1  0.83193674  0.17908405  0.74688826  1
  Cu  Cu97  1  0.00113161  -0.00410542  0.00825081  1
  Cu  Cu98  1  0.83210300  0.82640749  0.74244178  1
  Cu  Cu99  1  0.33018764  0.00339859  0.00465362  1
  Cu  Cu100  1  0.00022840  -0.00581174  0.49645278  1
  Cu  Cu101  1  0.50380991  0.17291287  0.24941184  1
  Cu  Cu102  1  0.66885947  0.66203482  0.49893354  1
  Cu  Cu103  1  0.33229833  0.33643354  0.49680667  1
  Cu  Cu104  1  0.49759744  0.83131884  0.24650887  1
  Cu  Cu105  1  0.15857913  0.16449874  0.74406199  1
  Cu  Cu106  1  0.67370728  0.00224376  0.49181346  1
  Cu  Cu107  1  0.16728487  0.50830981  0.24976795  1
  Cu  Cu108  1  0.50846127  0.50180703  0.75202725  1
  Cu  Cu109  1  0.66383931  0.33316254  0.00092845  1
  Cu  Cu110  1  0.66378131  0.00167858  0.00391725  1
  Cu  Cu111  1  0.83826426  0.49862199  0.25332282  1
  Cu  Cu112  1  0.49691365  0.16468761  0.75067679  1
  Cu  Cu113  1  0.50134209  0.49481427  0.24938549  1
  Cu  Cu114  1  0.00344107  0.67034299  0.49825644  1
  Se  Se115  1  0.07543201  0.08484918  0.06563726  1
  Se  Se116  1  0.07948702  0.07794859  0.55517064  1
  Se  Se117  1  0.09075543  0.41836002  0.04422910  1
  Se  Se118  1  0.09999186  0.43601790  0.54923948  1
  Se  Se119  1  0.08173197  0.75339374  0.05806245  1
  Se  Se120  1  0.08902307  0.75121443  0.55116701  1
  Se  Se121  1  0.41720416  0.08932271  0.04907408  1
  Se  Se122  1  0.41171905  0.07652222  0.56030847  1
  Se  Se123  1  0.42052492  0.42172383  0.06112841  1
  Se  Se124  1  0.41895255  0.41927753  0.54654874  1
  Se  Se125  1  0.41085706  0.74733342  0.06345742  1
  Se  Se126  1  0.41148718  0.74129637  0.56282619  1
  Se  Se127  1  0.74481932  0.07672553  0.06632036  1
  Se  Se128  1  0.75364171  0.08782174  0.54509628  1
  Se  Se129  1  0.74888742  0.41371276  0.05491231  1
  Se  Se130  1  0.74882991  0.41799204  0.55506516  1
  Se  Se131  1  0.74497847  0.73979271  0.05525594  1
  Se  Se132  1  0.74830339  0.75175723  0.54989902  1
  Se  Se133  1  0.25727035  0.26057166  0.06442688  1
  Se  Se134  1  0.25005767  0.25039129  0.54923917  1
  Se  Se135  1  0.24917477  0.58260582  0.06152951  1
  Se  Se136  1  0.24910066  0.58147899  0.54937868  1
  Se  Se137  1  0.24292686  0.91729376  0.04886780  1
  Se  Se138  1  0.24705625  0.91205351  0.55619671  1
  Se  Se139  1  0.58501208  0.24959447  0.05917620  1
  Se  Se140  1  0.58605924  0.25643179  0.55930368  1
  Se  Se141  1  0.58841333  0.59074184  0.04461815  1
  Se  Se142  1  0.58302074  0.58175727  0.55266885  1
  Se  Se143  1  0.58513346  0.91707889  0.06086063  1
  Se  Se144  1  0.59222714  0.92404674  0.55367766  1
  Se  Se145  1  0.92877035  0.26682916  0.06038182  1
  Se  Se146  1  0.89157928  0.23428531  0.55661127  1
  Se  Se147  1  0.90603187  0.57522310  0.04684076  1
  Se  Se148  1  0.91402541  0.58794076  0.54745321  1
  Se  Se149  1  0.91813404  0.92088099  0.06937228  1
  Se  Se150  1  0.91403892  0.91166274  0.54826586  1
  Se  Se151  1  0.08008494  0.25653335  0.45315170  1
  Se  Se152  1  0.07222606  0.25821152  0.94406610  1
  Se  Se153  1  0.08541615  0.58606540  0.44498160  1
  Se  Se154  1  0.09020079  0.56870817  0.95017995  1
  Se  Se155  1  0.08744941  0.90952320  0.44808895  1
  Se  Se156  1  0.08079237  0.91652446  0.94974015  1
  Se  Se157  1  0.41117274  0.25488618  0.43536743  1
  Se  Se158  1  0.41908328  0.25032955  0.94882365  1
  Se  Se159  1  0.41863197  0.58333074  0.44440463  1
  Se  Se160  1  0.41615337  0.58249289  0.95491359  1
  Se  Se161  1  0.40793296  0.92350452  0.44314921  1
  Se  Se162  1  0.40709971  0.92626620  0.93802350  1
  Se  Se163  1  0.74749692  0.25243989  0.44440949  1
  Se  Se164  1  0.74739716  0.25920885  0.93865231  1
  Se  Se165  1  0.75387384  0.57753632  0.44712580  1
  Se  Se166  1  0.75308723  0.57596666  0.94747486  1
  Se  Se167  1  0.75514717  0.91217103  0.44470514  1
  Se  Se168  1  0.74804326  0.92533152  0.94576396  1
  Se  Se169  1  0.24409235  0.08755400  0.45056522  1
  Se  Se170  1  0.25249545  0.08234003  0.93923176  1
  Se  Se171  1  0.25011176  0.41973999  0.44265739  1
  Se  Se172  1  0.25579400  0.41340830  0.94773724  1
  Se  Se173  1  0.25101742  0.75230854  0.44597902  1
  Se  Se174  1  0.24885140  0.74889820  0.94913012  1
  Se  Se175  1  0.59015957  0.08022696  0.43352745  1
  Se  Se176  1  0.58367359  0.08816274  0.95164379  1
  Se  Se177  1  0.58046008  0.42054373  0.44756345  1
  Se  Se178  1  0.57979930  0.41901242  0.94899199  1
  Se  Se179  1  0.59130080  0.74086441  0.43395044  1
  Se  Se180  1  0.59925561  0.74700500  0.94314115  1
  Se  Se181  1  0.92006792  0.08088926  0.44383904  1
  Se  Se182  1  0.91906386  0.07898148  0.95167725  1
  Se  Se183  1  0.92668345  0.41002024  0.45512838  1
  Se  Se184  1  0.90529075  0.41387994  0.94329569  1
  Se  Se185  1  0.91541634  0.75199397  0.44681946  1
  Se  Se186  1  0.92481079  0.73515314  0.93593309  1
  Se  Se187  1  0.24923757  0.25765198  0.30318577  1
  Se  Se188  1  0.23603834  0.24446785  0.80928401  1
  Se  Se189  1  0.25264173  0.58846668  0.30487986  1
  Se  Se190  1  0.23782299  0.57462030  0.80816045  1
  Se  Se191  1  0.24534719  0.91480836  0.31242087  1
  Se  Se192  1  0.25140294  0.91857150  0.80095028  1
  Se  Se193  1  0.59041105  0.25827709  0.29787571  1
  Se  Se194  1  0.57751214  0.25133021  0.80199190  1
  Se  Se195  1  0.58364733  0.57602346  0.30966153  1
  Se  Se196  1  0.58967984  0.58302946  0.80771399  1
  Se  Se197  1  0.58326390  0.91453419  0.29535048  1
  Se  Se198  1  0.57749056  0.91449919  0.81350442  1
  Se  Se199  1  0.91494928  0.24718637  0.31470321  1
  Se  Se200  1  0.92584250  0.25467299  0.79511500  1
  Se  Se201  1  0.92236800  0.58081424  0.30549026  1
  Se  Se202  1  0.90768507  0.57029050  0.80516448  1
  Se  Se203  1  0.92048068  0.91562742  0.30791761  1
  Se  Se204  1  0.91219432  0.90684420  0.80241073  1
  Se  Se205  1  0.08412348  0.08631925  0.30654901  1
  Se  Se206  1  0.08452471  0.09037507  0.81479856  1
  Se  Se207  1  0.08962272  0.42605873  0.31207545  1
  Se  Se208  1  0.07522949  0.41701350  0.80639554  1
  Se  Se209  1  0.07969975  0.74553484  0.30519765  1
  Se  Se210  1  0.09379110  0.75323285  0.80795597  1
  Se  Se211  1  0.42337347  0.09234764  0.31093718  1
  Se  Se212  1  0.41119850  0.08383046  0.80190632  1
  Se  Se213  1  0.41747044  0.41535191  0.30534299  1
  Se  Se214  1  0.42011060  0.42642947  0.81064914  1
  Se  Se215  1  0.41241294  0.74781676  0.29507545  1
  Se  Se216  1  0.42784365  0.74992120  0.81855572  1
  Se  Se217  1  0.73577955  0.06431834  0.30634550  1
  Se  Se218  1  0.75969502  0.09503681  0.81129017  1
  Se  Se219  1  0.75695468  0.41255076  0.30480808  1
  Se  Se220  1  0.72738732  0.39792791  0.80400585  1
  Se  Se221  1  0.75624085  0.74806828  0.31085020  1
  Se  Se222  1  0.75145619  0.74558500  0.79854600  1
  Se  Se223  1  0.24154791  0.09064797  0.18883085  1
  Se  Se224  1  0.24520536  0.07897866  0.69790837  1
  Se  Se225  1  0.24917466  0.41821654  0.20176362  1
  Se  Se226  1  0.24298620  0.41967573  0.68915742  1
  Se  Se227  1  0.24714817  0.74953813  0.19992651  1
  Se  Se228  1  0.24572771  0.74853936  0.69297381  1
  Se  Se229  1  0.58433130  0.08506870  0.19780456  1
  Se  Se230  1  0.57829185  0.08879592  0.68720930  1
  Se  Se231  1  0.58983592  0.41812160  0.19510510  1
  Se  Se232  1  0.58520702  0.41649199  0.69583788  1
  Se  Se233  1  0.57495373  0.75231580  0.18309359  1
  Se  Se234  1  0.58556665  0.75150138  0.70239234  1
  Se  Se235  1  0.92817751  0.07633860  0.21099828  1
  Se  Se236  1  0.91031917  0.09298319  0.68932367  1
  Se  Se237  1  0.92213778  0.43168334  0.18597825  1
  Se  Se238  1  0.91942423  0.41672101  0.69021926  1
  Se  Se239  1  0.91392760  0.74302922  0.19962523  1
  Se  Se240  1  0.91603899  0.74977683  0.68466871  1
  Se  Se241  1  0.08877560  0.24717620  0.18981715  1
  Se  Se242  1  0.08302812  0.25253762  0.69002559  1
  Se  Se243  1  0.07882687  0.58232929  0.19326051  1
  Se  Se244  1  0.08074027  0.57244928  0.68369077  1
  Se  Se245  1  0.08067294  0.91855042  0.20309971  1
  Se  Se246  1  0.09167879  0.90173968  0.69394638  1
  Se  Se247  1  0.41625057  0.25461146  0.19914503  1
  Se  Se248  1  0.41933203  0.24346288  0.68648031  1
  Se  Se249  1  0.41711610  0.58227470  0.20107070  1
  Se  Se250  1  0.42182870  0.57464019  0.69052660  1
  Se  Se251  1  0.41976769  0.91318969  0.18387776  1
  Se  Se252  1  0.41390971  0.91681793  0.70327007  1
  Se  Se253  1  0.77744941  0.23332699  0.19570076  1
  Se  Se254  1  0.74153113  0.25622067  0.69697847  1
  Se  Se255  1  0.75646256  0.57122161  0.18744956  1
  Se  Se256  1  0.74058991  0.59223081  0.69431737  1
  Se  Se257  1  0.75015575  0.91375375  0.20300440  1
  Se  Se258  1  0.75652927  0.91569617  0.68556013  1
