# generated using pymatgen
data_In86Cu29Se144
_symmetry_space_group_name_H-M   'P 1'
_cell_length_a   17.57619457
_cell_length_b   17.57324893
_cell_length_c   23.44091267
_cell_angle_alpha   89.98261530
_cell_angle_beta   89.96575042
_cell_angle_gamma   90.00936975
_symmetry_Int_Tables_number   1
_chemical_formula_structural   In86Cu29Se144
_chemical_formula_sum   'In86 Cu29 Se144'
_cell_volume   7240.21271979
_cell_formula_units_Z   1
loop_
 _symmetry_equiv_pos_site_id
 _symmetry_equiv_pos_as_xyz
  1  'x, y, z'
loop_
 _atom_site_type_symbol
 _atom_site_label
 _atom_site_symmetry_multiplicity
 _atom_site_fract_x
 _atom_site_fract_y
 _atom_site_fract_z
 _atom_site_occupancy
  In  In0  1  0.01374480  0.16985325  0.11845072  1
  In  In1  1  0.00367134  0.17454854  0.62117259  1
  In  In2  1  -0.00329907  0.48739878  0.11096337  1
  In  In3  1  0.00799304  0.48834624  0.63331226  1
  In  In4  1  -0.00433114  0.84234377  0.12297569  1
  In  In5  1  -0.00827859  0.82286252  0.61794892  1
  In  In6  1  0.31963340  0.17665469  0.12549562  1
  In  In7  1  0.33894452  0.17473072  0.61801577  1
  In  In8  1  0.33748360  0.50570012  0.12231023  1
  In  In9  1  0.33221309  0.49405366  0.62275161  1
  In  In10  1  0.33232817  0.81089831  0.13062902  1
  In  In11  1  0.33641672  0.83609680  0.61342666  1
  In  In12  1  0.66675254  0.17116299  0.13473503  1
  In  In13  1  0.67592856  0.18112222  0.61636469  1
  In  In14  1  0.67674688  0.49039922  0.13676166  1
  In  In15  1  0.65357204  0.48926356  0.62109911  1
  In  In16  1  0.66602223  0.83138627  0.13089602  1
  In  In17  1  0.66729000  0.83424718  0.61334612  1
  In  In18  1  0.16434844  0.00103278  0.38310731  1
  In  In19  1  0.16954986  0.00967229  0.87258811  1
  In  In20  1  0.15646417  0.34514933  0.38092306  1
  In  In21  1  0.16359102  0.33782272  0.87960621  1
  In  In22  1  0.17513693  0.65875257  0.37663588  1
  In  In23  1  0.14988756  0.66648878  0.87072682  1
  In  In24  1  0.51127136  -0.00886820  0.38015175  1
  In  In25  1  0.49363056  -0.00302398  0.87705113  1
  In  In26  1  0.50545583  0.32721356  0.38402772  1
  In  In27  1  0.49968229  0.34243011  0.86142745  1
  In  In28  1  0.50053941  0.66553524  0.37349918  1
  In  In29  1  0.50856950  0.66480893  0.87941927  1
  In  In30  1  0.82816427  0.00937081  0.38059169  1
  In  In31  1  0.82848497  0.00255509  0.87978924  1
  In  In32  1  0.82804928  0.32517714  0.37013171  1
  In  In33  1  0.83581127  0.33761439  0.86628187  1
  In  In34  1  0.83403620  0.67904644  0.37286058  1
  In  In35  1  0.84009351  0.65496368  0.88595171  1
  In  In36  1  -0.00981046  0.17661949  0.38318425  1
  In  In37  1  -0.00214595  0.22631239  0.87876624  1
  In  In38  1  0.02441684  0.49341097  0.37124813  1
  In  In39  1  -0.00174352  0.49784972  0.87979143  1
  In  In40  1  -0.00345162  0.83230268  0.38397250  1
  In  In41  1  -0.00292616  0.81782402  0.87395797  1
  In  In42  1  0.33052368  0.17165006  0.38552513  1
  In  In43  1  0.31817019  0.17692881  0.88127648  1
  In  In44  1  0.32231454  0.51327958  0.37737012  1
  In  In45  1  0.32168384  0.46367542  0.88164711  1
  In  In46  1  0.33640440  0.82493649  0.37642037  1
  In  In47  1  0.34110109  0.84234291  0.87738301  1
  In  In48  1  0.66926041  0.16717864  0.37672740  1
  In  In49  1  0.66589520  0.17267995  0.86855516  1
  In  In50  1  0.65824800  0.48724762  0.36710041  1
  In  In51  1  0.67255353  0.50020323  0.87696706  1
  In  In52  1  0.66622273  0.83356156  0.37142864  1
  In  In53  1  0.67206825  0.82605055  0.88707836  1
  In  In54  1  0.15744826  0.00053458  0.12706289  1
  In  In55  1  0.17301641  0.00780957  0.61555260  1
  In  In56  1  0.16622894  0.32647919  0.11351599  1
  In  In57  1  0.16663106  0.33657718  0.62455760  1
  In  In58  1  0.18386660  0.66017372  0.13800965  1
  In  In59  1  0.15769715  0.65247584  0.61710278  1
  In  In60  1  0.51765736  0.00261954  0.13125177  1
  In  In61  1  0.50002091  0.00016623  0.61459953  1
  In  In62  1  0.50377828  0.34450874  0.12453800  1
  In  In63  1  0.50177956  0.33453785  0.62436971  1
  In  In64  1  0.49094246  0.67134834  0.13305200  1
  In  In65  1  0.49452156  0.66086662  0.61334641  1
  In  In66  1  0.83334668  -0.00971067  0.12400628  1
  In  In67  1  0.83125451  -0.00116014  0.61749774  1
  In  In68  1  0.82865350  0.34098985  0.12272610  1
  In  In69  1  0.84080260  0.32122712  0.64008650  1
  In  In70  1  0.82669487  0.65272786  0.12197488  1
  In  In71  1  0.83192601  0.67603598  0.62196992  1
  In  In72  1  0.66417141  0.00493520  0.75130386  1
  In  In73  1  0.50032884  0.16531492  0.00048150  1
  In  In74  1  0.49779112  0.50243827  -0.00031470  1
  In  In75  1  0.67208286  0.65827009  0.75162465  1
  In  In76  1  -0.00228322  0.66110294  0.25161807  1
  In  In77  1  0.32857392  0.65721923  0.74227362  1
  In  In78  1  0.83334981  0.49991634  0.49721388  1
  In  In79  1  0.00383921  0.00873592  0.74514931  1
  In  In80  1  0.34018831  -0.00546243  0.26496305  1
  In  In81  1  0.16391104  0.82903986  0.00557801  1
  In  In82  1  0.83907727  0.17170453  -0.00635777  1
  In  In83  1  -0.00196997  0.00176829  0.24420346  1
  In  In84  1  0.33408362  0.00584820  0.75106872  1
  In  In85  1  0.33546901  0.33772388  0.24782511  1
  Cu  Cu86  1  0.16203326  0.49646067  0.75189557  1
  Cu  Cu87  1  0.33357172  0.33739990  0.50275354  1
  Cu  Cu88  1  0.66398566  0.66926733  0.49561843  1
  Cu  Cu89  1  -0.00050558  0.00305805  -0.00067516  1
  Cu  Cu90  1  -0.00158898  0.00126586  0.50296610  1
  Cu  Cu91  1  0.67080892  -0.00849437  0.00528467  1
  Cu  Cu92  1  0.16400245  0.16925943  0.25022330  1
  Cu  Cu93  1  0.50390255  0.82468554  0.74717640  1
  Cu  Cu94  1  0.49911046  0.50283216  0.25142253  1
  Cu  Cu95  1  0.83711796  0.50196139  0.75600025  1
  Cu  Cu96  1  0.66654116  0.33125014  0.49751294  1
  Cu  Cu97  1  0.00373543  0.66353350  0.49622302  1
  Cu  Cu98  1  0.66399891  -0.00219145  0.49535162  1
  Cu  Cu99  1  -0.00624465  0.66616003  0.00186578  1
  Cu  Cu100  1  0.00219402  0.33595350  0.50484321  1
  Cu  Cu101  1  0.16030388  0.82843586  0.74338850  1
  Cu  Cu102  1  0.66176824  0.67133836  0.00851004  1
  Cu  Cu103  1  0.34392850  -0.00829687  0.00382139  1
  Cu  Cu104  1  0.83699399  0.49701177  0.24570581  1
  Cu  Cu105  1  0.83496011  0.17341911  0.25478604  1
  Cu  Cu106  1  0.51151086  0.17250595  0.25586046  1
  Cu  Cu107  1  0.33548455  0.66755149  0.00089687  1
  Cu  Cu108  1  0.83994917  0.82959646  0.74761211  1
  Cu  Cu109  1  0.16267483  0.18230322  0.75217334  1
  Cu  Cu110  1  0.32964237  -0.00088239  0.49458799  1
  Cu  Cu111  1  0.82721541  0.83554841  0.24950756  1
  Cu  Cu112  1  0.50124204  0.83125426  0.25427802  1
  Cu  Cu113  1  0.33575141  0.66871399  0.49724705  1
  Cu  Cu114  1  0.49670963  0.17603585  0.74305645  1
  Se  Se115  1  0.08974463  0.08049337  0.05007213  1
  Se  Se116  1  0.08245732  0.08832991  0.55258516  1
  Se  Se117  1  0.09837089  0.42321809  0.04519931  1
  Se  Se118  1  0.08623861  0.42237080  0.55367867  1
  Se  Se119  1  0.07685066  0.73804696  0.06639052  1
  Se  Se120  1  0.08523693  0.74850507  0.55183719  1
  Se  Se121  1  0.41290411  0.07798267  0.06701740  1
  Se  Se122  1  0.41203894  0.08195801  0.55087785  1
  Se  Se123  1  0.40529945  0.40497021  0.05317853  1
  Se  Se124  1  0.42118866  0.41906669  0.55379760  1
  Se  Se125  1  0.41878895  0.74912524  0.05384536  1
  Se  Se126  1  0.42160258  0.75389840  0.54741887  1
  Se  Se127  1  0.74697019  0.08374247  0.05866301  1
  Se  Se128  1  0.74460206  0.08067508  0.55260642  1
  Se  Se129  1  0.74236397  0.42007533  0.05528598  1
  Se  Se130  1  0.75114148  0.40665604  0.55927079  1
  Se  Se131  1  0.75050386  0.75081000  0.06063025  1
  Se  Se132  1  0.75165969  0.74987327  0.54762894  1
  Se  Se133  1  0.25055596  0.24378313  0.04525112  1
  Se  Se134  1  0.24720852  0.25317710  0.55387781  1
  Se  Se135  1  0.25124582  0.58848887  0.05550601  1
  Se  Se136  1  0.25629108  0.58322559  0.55372507  1
  Se  Se137  1  0.25852249  0.91814644  0.06517905  1
  Se  Se138  1  0.24680888  0.91555982  0.54897755  1
  Se  Se139  1  0.59134157  0.25579337  0.05857933  1
  Se  Se140  1  0.57880837  0.24979950  0.55102784  1
  Se  Se141  1  0.58411693  0.58588752  0.06694681  1
  Se  Se142  1  0.58736415  0.58208017  0.55045417  1
  Se  Se143  1  0.58347170  0.91369867  0.05854505  1
  Se  Se144  1  0.57920056  0.91324791  0.54765992  1
  Se  Se145  1  0.92626911  0.25982890  0.05600395  1
  Se  Se146  1  0.91316870  0.25614870  0.55598984  1
  Se  Se147  1  0.91023954  0.57742794  0.05027590  1
  Se  Se148  1  0.92456983  0.58482839  0.56038542  1
  Se  Se149  1  0.91596809  0.91819443  0.04916434  1
  Se  Se150  1  0.91405586  0.91364856  0.55218476  1
  Se  Se151  1  0.08401340  0.25184612  0.44849872  1
  Se  Se152  1  0.10887112  0.23101652  0.94769825  1
  Se  Se153  1  0.08901659  0.57904441  0.44704301  1
  Se  Se154  1  0.07980974  0.58781876  0.94682365  1
  Se  Se155  1  0.08053725  0.91695747  0.44950077  1
  Se  Se156  1  0.07979407  0.91924770  0.93828032  1
  Se  Se157  1  0.41744054  0.25050021  0.45238600  1
  Se  Se158  1  0.41773517  0.25897794  0.93925076  1
  Se  Se159  1  0.41785097  0.58345820  0.44401175  1
  Se  Se160  1  0.40302172  0.58398219  0.93480708  1
  Se  Se161  1  0.41440699  0.91625169  0.44246667  1
  Se  Se162  1  0.42733633  0.90966085  0.95152350  1
  Se  Se163  1  0.75406502  0.24859867  0.44700297  1
  Se  Se164  1  0.74131336  0.25852025  0.94001660  1
  Se  Se165  1  0.74319355  0.58716114  0.43526190  1
  Se  Se166  1  0.73988213  0.58785183  0.95014109  1
  Se  Se167  1  0.74926885  0.91490594  0.44260171  1
  Se  Se168  1  0.75705444  0.91396796  0.94980893  1
  Se  Se169  1  0.24385678  0.08806882  0.44983302  1
  Se  Se170  1  0.26131234  0.07037922  0.94599962  1
  Se  Se171  1  0.25170095  0.41853224  0.44549676  1
  Se  Se172  1  0.22185850  0.43140008  0.95715424  1
  Se  Se173  1  0.24767470  0.74973928  0.44616991  1
  Se  Se174  1  0.25392183  0.74642748  0.93803636  1
  Se  Se175  1  0.58250212  0.08703916  0.44568463  1
  Se  Se176  1  0.59544840  0.07341004  0.94139460  1
  Se  Se177  1  0.58436765  0.42024532  0.44897930  1
  Se  Se178  1  0.58528883  0.40925686  0.94148024  1
  Se  Se179  1  0.58168305  0.75292287  0.44122092  1
  Se  Se180  1  0.57819952  0.75089829  0.95195254  1
  Se  Se181  1  0.91471136  0.08588950  0.44996669  1
  Se  Se182  1  0.93286020  0.08622838  0.93219287  1
  Se  Se183  1  0.92519409  0.41189954  0.43754220  1
  Se  Se184  1  0.91558239  0.40726410  0.94191408  1
  Se  Se185  1  0.91366838  0.74706818  0.45067312  1
  Se  Se186  1  0.91268297  0.75364723  0.95039636  1
  Se  Se187  1  0.24727184  0.24680320  0.30933034  1
  Se  Se188  1  0.24982347  0.26003870  0.80645765  1
  Se  Se189  1  0.23975006  0.57557984  0.29956614  1
  Se  Se190  1  0.24373374  0.57625834  0.81219044  1
  Se  Se191  1  0.23755774  0.90845795  0.31231266  1
  Se  Se192  1  0.24050160  0.90663162  0.80447030  1
  Se  Se193  1  0.59076171  0.25852026  0.30896971  1
  Se  Se194  1  0.58332042  0.25179752  0.79950536  1
  Se  Se195  1  0.58552291  0.58470386  0.30347198  1
  Se  Se196  1  0.57342276  0.57256052  0.80642743  1
  Se  Se197  1  0.58550925  0.91934507  0.30132858  1
  Se  Se198  1  0.57979734  0.90508601  0.81009196  1
  Se  Se199  1  0.92463087  0.25451620  0.30277938  1
  Se  Se200  1  0.90591590  0.24421356  0.79721112  1
  Se  Se201  1  0.91073602  0.57062891  0.31525114  1
  Se  Se202  1  0.91920465  0.58582253  0.80875191  1
  Se  Se203  1  0.91117037  0.91322589  0.30875910  1
  Se  Se204  1  0.91407957  0.91550539  0.80752041  1
  Se  Se205  1  0.08358580  0.08902136  0.30993013  1
  Se  Se206  1  0.08271873  0.10024871  0.81169936  1
  Se  Se207  1  0.08729649  0.40809203  0.29641875  1
  Se  Se208  1  0.07926253  0.41565252  0.80810079  1
  Se  Se209  1  0.08244056  0.75183558  0.31350685  1
  Se  Se210  1  0.07643503  0.74812569  0.79664385  1
  Se  Se211  1  0.42717639  0.09593938  0.31534300  1
  Se  Se212  1  0.42360631  0.09751460  0.81080014  1
  Se  Se213  1  0.42219853  0.42145670  0.31429101  1
  Se  Se214  1  0.40792383  0.42266112  0.80016519  1
  Se  Se215  1  0.41527859  0.74661288  0.30306491  1
  Se  Se216  1  0.41939778  0.74984750  0.80678311  1
  Se  Se217  1  0.75260438  0.08633787  0.30485806  1
  Se  Se218  1  0.76285615  0.09238057  0.80395884  1
  Se  Se219  1  0.75306177  0.41460107  0.30166204  1
  Se  Se220  1  0.74570220  0.42044104  0.80212596  1
  Se  Se221  1  0.74674585  0.74807265  0.30087144  1
  Se  Se222  1  0.75891697  0.75280559  0.81101705  1
  Se  Se223  1  0.24778780  0.08261277  0.19831869  1
  Se  Se224  1  0.24132270  0.09596431  0.69434887  1
  Se  Se225  1  0.24477073  0.41945381  0.18491593  1
  Se  Se226  1  0.24782630  0.41962832  0.69524113  1
  Se  Se227  1  0.24756537  0.75254682  0.20739121  1
  Se  Se228  1  0.24577776  0.75528725  0.68363673  1
  Se  Se229  1  0.59136170  0.08371701  0.20466805  1
  Se  Se230  1  0.57482366  0.08952257  0.68719844  1
  Se  Se231  1  0.58137522  0.41431542  0.20163897  1
  Se  Se232  1  0.58834493  0.40783444  0.69658654  1
  Se  Se233  1  0.58313578  0.74739717  0.19902000  1
  Se  Se234  1  0.58412433  0.74845664  0.68677168  1
  Se  Se235  1  0.90944683  0.09615617  0.18606762  1
  Se  Se236  1  0.90705257  0.09038147  0.68685819  1
  Se  Se237  1  0.91992637  0.41667640  0.19048982  1
  Se  Se238  1  0.91902877  0.41538731  0.70231337  1
  Se  Se239  1  0.90979663  0.75566386  0.19062420  1
  Se  Se240  1  0.91992492  0.74363727  0.69571429  1
  Se  Se241  1  0.08810759  0.25150473  0.19150036  1
  Se  Se242  1  0.07819832  0.25801965  0.69419649  1
  Se  Se243  1  0.08033021  0.57302851  0.18662028  1
  Se  Se244  1  0.08309692  0.58455063  0.69802061  1
  Se  Se245  1  0.09320190  0.90207622  0.19741864  1
  Se  Se246  1  0.08859199  0.91536478  0.68353492  1
  Se  Se247  1  0.42703500  0.24082486  0.19086099  1
  Se  Se248  1  0.40917287  0.25672030  0.69295764  1
  Se  Se249  1  0.41100002  0.58228819  0.19944477  1
  Se  Se250  1  0.42997202  0.57330249  0.69083736  1
  Se  Se251  1  0.42184392  0.91233479  0.19215298  1
  Se  Se252  1  0.42373402  0.91061206  0.69201200  1
  Se  Se253  1  0.75418654  0.25592269  0.19662254  1
  Se  Se254  1  0.73810126  0.25173792  0.69959360  1
  Se  Se255  1  0.74994086  0.58602283  0.20247756  1
  Se  Se256  1  0.75905349  0.57174536  0.68606907  1
  Se  Se257  1  0.74694879  0.92287416  0.19732160  1
  Se  Se258  1  0.75314988  0.90767714  0.69241927  1
