# generated using pymatgen
data_In86Cu29Se144
_symmetry_space_group_name_H-M   'P 1'
_cell_length_a   17.58091210
_cell_length_b   17.58132246
_cell_length_c   23.45008082
_cell_angle_alpha   90.00867601
_cell_angle_beta   90.00289887
_cell_angle_gamma   89.99587997
_symmetry_Int_Tables_number   1
_chemical_formula_structural   In86Cu29Se144
_chemical_formula_sum   'In86 Cu29 Se144'
_cell_volume   7248.31867458
_cell_formula_units_Z   1
loop_
 _symmetry_equiv_pos_site_id
 _symmetry_equiv_pos_as_xyz
  1  'x, y, z'
loop_
 _atom_site_type_symbol
 _atom_site_label
 _atom_site_symmetry_multiplicity
 _atom_site_fract_x
 _atom_site_fract_y
 _atom_site_fract_z
 _atom_site_occupancy
  In  In0  1  -0.01374143  0.16300211  0.12839648  1
  In  In1  1  0.00302617  0.16419549  0.61913655  1
  In  In2  1  0.01689468  0.50652509  0.12614880  1
  In  In3  1  -0.00447370  0.50462933  0.63087098  1
  In  In4  1  -0.00157585  0.83856228  0.12651582  1
  In  In5  1  0.00928372  0.83329160  0.62491005  1
  In  In6  1  0.33328338  0.16868235  0.13302027  1
  In  In7  1  0.34110512  0.17553293  0.61471677  1
  In  In8  1  0.33990996  0.48669812  0.12408078  1
  In  In9  1  0.34545874  0.49463138  0.63519052  1
  In  In10  1  0.34080869  0.84459036  0.10701183  1
  In  In11  1  0.31814287  0.81758697  0.60688398  1
  In  In12  1  0.67822482  0.17013213  0.13635751  1
  In  In13  1  0.66040127  0.16106379  0.61186270  1
  In  In14  1  0.65159560  0.51775663  0.13616101  1
  In  In15  1  0.65082856  0.51315041  0.62459288  1
  In  In16  1  0.65427811  0.81679089  0.12160455  1
  In  In17  1  0.66202418  0.82477109  0.61581677  1
  In  In18  1  0.16525554  0.00078635  0.37323692  1
  In  In19  1  0.16166116  -0.00154922  0.87476129  1
  In  In20  1  0.16695351  0.31953047  0.37692091  1
  In  In21  1  0.17437960  0.33793314  0.85979014  1
  In  In22  1  0.16976300  0.69080277  0.38401620  1
  In  In23  1  0.17766130  0.67669719  0.86635743  1
  In  In24  1  0.49445831  0.00341965  0.37523373  1
  In  In25  1  0.48445573  -0.02429286  0.87285217  1
  In  In26  1  0.49661800  0.33318306  0.37229794  1
  In  In27  1  0.48855726  0.34694154  0.88388014  1
  In  In28  1  0.49684871  0.65821129  0.38462741  1
  In  In29  1  0.49091767  0.66445949  0.88044629  1
  In  In30  1  0.84553806  -0.01602598  0.38254113  1
  In  In31  1  0.83814608  -0.01673507  0.87709871  1
  In  In32  1  0.81970854  0.33470715  0.37655697  1
  In  In33  1  0.83988385  0.32077150  0.87106941  1
  In  In34  1  0.84231788  0.68176963  0.36689504  1
  In  In35  1  0.84523783  0.66992183  0.87368265  1
  In  In36  1  0.01234318  0.15108524  0.38587058  1
  In  In37  1  0.00911636  0.16502312  0.86111461  1
  In  In38  1  -0.00426617  0.50835796  0.37548249  1
  In  In39  1  0.01175699  0.50943984  0.85968012  1
  In  In40  1  -0.00240695  0.83217389  0.37414240  1
  In  In41  1  0.00212746  0.83364424  0.87414767  1
  In  In42  1  0.33103701  0.16717061  0.37225800  1
  In  In43  1  0.32287142  0.16296711  0.87141266  1
  In  In44  1  0.35572247  0.51125322  0.37862842  1
  In  In45  1  0.34184025  0.49917211  0.86657418  1
  In  In46  1  0.32193738  0.83322404  0.38719171  1
  In  In47  1  0.34450161  0.81105044  0.90405031  1
  In  In48  1  0.65463408  0.17514184  0.38173657  1
  In  In49  1  0.66880270  0.17000907  0.87547752  1
  In  In50  1  0.65955108  0.49098590  0.36834568  1
  In  In51  1  0.65138675  0.49575456  0.87808035  1
  In  In52  1  0.66760794  0.83043447  0.37339092  1
  In  In53  1  0.66530313  0.82721706  0.88130433  1
  In  In54  1  0.18532898  -0.01810796  0.14078461  1
  In  In55  1  0.15672363  -0.01186146  0.61795649  1
  In  In56  1  0.17862131  0.34346986  0.12451643  1
  In  In57  1  0.17859445  0.33064947  0.62589074  1
  In  In58  1  0.15129017  0.67265822  0.13038102  1
  In  In59  1  0.15916461  0.67668255  0.63203329  1
  In  In60  1  0.49087755  -0.01806932  0.13236419  1
  In  In61  1  0.48920887  -0.00590969  0.61427687  1
  In  In62  1  0.48848227  0.34609074  0.13436108  1
  In  In63  1  0.49492332  0.33251207  0.62142366  1
  In  In64  1  0.49861059  0.67887301  0.11985601  1
  In  In65  1  0.47546547  0.65030726  0.59687142  1
  In  In66  1  0.84506893  0.00008657  0.13167152  1
  In  In67  1  0.84343555  0.00832123  0.61630052  1
  In  In68  1  0.83136232  0.32275984  0.12932453  1
  In  In69  1  0.84399044  0.33243867  0.62284468  1
  In  In70  1  0.82250208  0.67760740  0.13252820  1
  In  In71  1  0.84201316  0.68038458  0.61932375  1
  In  In72  1  0.17020861  0.15602289  0.00580701  1
  In  In73  1  0.16788498  0.50202568  0.50179107  1
  In  In74  1  0.66429170  0.66798577  0.75201647  1
  In  In75  1  0.67668899  0.00432291  0.74703688  1
  In  In76  1  0.18516708  0.51400523  -0.01478920  1
  In  In77  1  0.66933081  0.33526151  0.74341503  1
  In  In78  1  0.83309059  0.16277318  0.00167878  1
  In  In79  1  0.50803210  0.15620789  0.00130991  1
  In  In80  1  0.00064950  0.33320125  0.24778584  1
  In  In81  1  0.66894524  0.00151637  0.25732326  1
  In  In82  1  0.32987675  0.67160543  0.25491411  1
  In  In83  1  0.83141391  0.50202885  -0.00084127  1
  In  In84  1  0.82627605  0.50147518  0.50636010  1
  In  In85  1  0.32328258  -0.00415054  0.75013261  1
  Cu  Cu86  1  0.01186118  0.33971620  -0.01197003  1
  Cu  Cu87  1  0.49103213  0.82701758  0.75167368  1
  Cu  Cu88  1  0.66909957  -0.00054839  0.49207310  1
  Cu  Cu89  1  -0.00562119  0.67732957  0.00253591  1
  Cu  Cu90  1  0.66130768  0.66843847  0.00542386  1
  Cu  Cu91  1  0.00253742  -0.00743453  0.00183055  1
  Cu  Cu92  1  0.83540968  0.16946474  0.25970335  1
  Cu  Cu93  1  0.83450474  0.83442775  0.25131157  1
  Cu  Cu94  1  0.65761147  0.33421631  0.49616498  1
  Cu  Cu95  1  0.17202129  0.50273083  0.25155498  1
  Cu  Cu96  1  0.33034937  0.00761560  0.49453497  1
  Cu  Cu97  1  -0.00248408  0.32789148  0.50172080  1
  Cu  Cu98  1  0.83389644  0.50205944  0.74886829  1
  Cu  Cu99  1  0.33493646  0.33403035  0.49807424  1
  Cu  Cu100  1  0.84953696  0.16641197  0.74357579  1
  Cu  Cu101  1  0.16522116  0.16681480  0.74139751  1
  Cu  Cu102  1  0.66915835  0.66482715  0.49248994  1
  Cu  Cu103  1  0.16292217  0.83531838  0.25387747  1
  Cu  Cu104  1  0.16737704  0.16424662  0.25312504  1
  Cu  Cu105  1  0.49870344  0.17119227  0.25524915  1
  Cu  Cu106  1  0.49841771  0.17223031  0.74478475  1
  Cu  Cu107  1  0.16713705  0.49963355  0.74367281  1
  Cu  Cu108  1  0.83151292  0.50471693  0.25303541  1
  Cu  Cu109  1  0.84723384  0.84026662  0.74383024  1
  Cu  Cu110  1  0.65826302  0.34284498  0.01113209  1
  Cu  Cu111  1  0.66230096  -0.01196631  0.00215731  1
  Cu  Cu112  1  0.50054235  0.50073131  0.25307155  1
  Cu  Cu113  1  0.17097514  0.83275823  0.75115147  1
  Cu  Cu114  1  0.00182718  -0.00657186  0.49929525  1
  Se  Se115  1  0.07455701  0.07434139  0.06633945  1
  Se  Se116  1  0.08507193  0.08129850  0.54965374  1
  Se  Se117  1  0.08846159  0.41794878  0.05029720  1
  Se  Se118  1  0.07444783  0.41185499  0.56085978  1
  Se  Se119  1  0.08107649  0.75622311  0.05580481  1
  Se  Se120  1  0.09935250  0.76197260  0.55438787  1
  Se  Se121  1  0.41245937  0.07763892  0.06400918  1
  Se  Se122  1  0.41880083  0.08761417  0.54709298  1
  Se  Se123  1  0.41936687  0.41066285  0.05106390  1
  Se  Se124  1  0.41362118  0.41865648  0.55392347  1
  Se  Se125  1  0.40607373  0.74067111  0.04809536  1
  Se  Se126  1  0.44548745  0.78274683  0.55825466  1
  Se  Se127  1  0.74023831  0.07235037  0.06094613  1
  Se  Se128  1  0.75092746  0.08210367  0.54892259  1
  Se  Se129  1  0.74644198  0.41734119  0.06839261  1
  Se  Se130  1  0.73428555  0.40818568  0.56473361  1
  Se  Se131  1  0.75124235  0.75077396  0.05254648  1
  Se  Se132  1  0.75086300  0.74670265  0.54847365  1
  Se  Se133  1  0.26025609  0.25644942  0.05609692  1
  Se  Se134  1  0.24798920  0.25146987  0.54817772  1
  Se  Se135  1  0.24959459  0.58599776  0.07009336  1
  Se  Se136  1  0.24931794  0.58110997  0.57241198  1
  Se  Se137  1  0.23805413  0.91946874  0.05109866  1
  Se  Se138  1  0.25009785  0.92164405  0.54796592  1
  Se  Se139  1  0.58876405  0.24984826  0.06736870  1
  Se  Se140  1  0.57518013  0.24957494  0.55114510  1
  Se  Se141  1  0.57737236  0.58346754  0.05524268  1
  Se  Se142  1  0.58272970  0.57870038  0.54105125  1
  Se  Se143  1  0.57751449  0.91222218  0.05867507  1
  Se  Se144  1  0.58874482  0.92197975  0.55281115  1
  Se  Se145  1  0.92913555  0.26323316  0.05154970  1
  Se  Se146  1  0.91183320  0.24361479  0.55136441  1
  Se  Se147  1  0.92161614  0.58904814  0.06197200  1
  Se  Se148  1  0.92816989  0.59150626  0.55274060  1
  Se  Se149  1  0.91125372  0.91739186  0.05516528  1
  Se  Se150  1  0.91977632  0.91126973  0.55518826  1
  Se  Se151  1  0.08531397  0.24751907  0.45079364  1
  Se  Se152  1  0.08838892  0.24943880  0.93579252  1
  Se  Se153  1  0.07794675  0.59329718  0.44370058  1
  Se  Se154  1  0.07236015  0.59445019  0.94052804  1
  Se  Se155  1  0.08361282  0.91512269  0.44123090  1
  Se  Se156  1  0.08551857  0.91393834  0.94546803  1
  Se  Se157  1  0.41475803  0.25014818  0.44168938  1
  Se  Se158  1  0.41304856  0.24190503  0.94203636  1
  Se  Se159  1  0.40591966  0.59464870  0.45940755  1
  Se  Se160  1  0.40480818  0.57980213  0.94454134  1
  Se  Se161  1  0.41469588  0.92079360  0.44583879  1
  Se  Se162  1  0.41729800  0.91763822  0.95742453  1
  Se  Se163  1  0.74740102  0.25119866  0.44935940  1
  Se  Se164  1  0.73978683  0.26468151  0.94903510  1
  Se  Se165  1  0.74989316  0.58349889  0.43302010  1
  Se  Se166  1  0.73979437  0.59250558  0.93813471  1
  Se  Se167  1  0.75013365  0.90915522  0.44515763  1
  Se  Se168  1  0.75030824  0.91204552  0.94701749  1
  Se  Se169  1  0.24452332  0.08868611  0.44165114  1
  Se  Se170  1  0.26113960  0.06796538  0.94485399  1
  Se  Se171  1  0.25594775  0.41480675  0.43678921  1
  Se  Se172  1  0.25928123  0.40226857  0.93758260  1
  Se  Se173  1  0.26142051  0.73913602  0.46033121  1
  Se  Se174  1  0.23760725  0.73748697  0.95480199  1
  Se  Se175  1  0.57926123  0.08208038  0.44573036  1
  Se  Se176  1  0.59203572  0.06562817  0.93333692  1
  Se  Se177  1  0.57734264  0.41872922  0.44281879  1
  Se  Se178  1  0.57602832  0.42152670  0.95439703  1
  Se  Se179  1  0.58435370  0.75027371  0.44391382  1
  Se  Se180  1  0.57916230  0.74730967  0.94636359  1
  Se  Se181  1  0.91496126  0.07980298  0.44995019  1
  Se  Se182  1  0.92883863  0.08137679  0.93994184  1
  Se  Se183  1  0.92010421  0.41117658  0.44354898  1
  Se  Se184  1  0.92391547  0.41675972  0.93368940  1
  Se  Se185  1  0.91176807  0.75487987  0.44467207  1
  Se  Se186  1  0.91255914  0.75793867  0.94592196  1
  Se  Se187  1  0.24966896  0.25258474  0.30120781  1
  Se  Se188  1  0.25271621  0.24414305  0.79627618  1
  Se  Se189  1  0.24313093  0.58098163  0.31909836  1
  Se  Se190  1  0.24780381  0.57796050  0.80329619  1
  Se  Se191  1  0.24989660  0.91226393  0.30934401  1
  Se  Se192  1  0.25220396  0.90162287  0.81831851  1
  Se  Se193  1  0.58627118  0.25429333  0.30366793  1
  Se  Se194  1  0.57877209  0.24814034  0.80818934  1
  Se  Se195  1  0.57937850  0.58652598  0.30793596  1
  Se  Se196  1  0.57111602  0.57557720  0.80568017  1
  Se  Se197  1  0.57256583  0.90986138  0.30619496  1
  Se  Se198  1  0.58302808  0.90741264  0.80264024  1
  Se  Se199  1  0.92083382  0.24888696  0.31799798  1
  Se  Se200  1  0.92649140  0.25492753  0.79742759  1
  Se  Se201  1  0.91891440  0.58586560  0.30246211  1
  Se  Se202  1  0.91684508  0.58950268  0.79876734  1
  Se  Se203  1  0.92014492  0.91823722  0.30126705  1
  Se  Se204  1  0.92532422  0.92275631  0.80172269  1
  Se  Se205  1  0.08000843  0.08258712  0.30244286  1
  Se  Se206  1  0.09122793  0.07727870  0.79678821  1
  Se  Se207  1  0.08858319  0.42173683  0.31055712  1
  Se  Se208  1  0.08186023  0.41298439  0.79482412  1
  Se  Se209  1  0.08278900  0.74730501  0.30537439  1
  Se  Se210  1  0.08203102  0.75030808  0.80270287  1
  Se  Se211  1  0.41486161  0.08403174  0.30336863  1
  Se  Se212  1  0.42546495  0.08495799  0.80678054  1
  Se  Se213  1  0.41330781  0.41899407  0.30400676  1
  Se  Se214  1  0.41394154  0.40340890  0.80116970  1
  Se  Se215  1  0.41837590  0.75513264  0.31852465  1
  Se  Se216  1  0.41075280  0.75313612  0.81385379  1
  Se  Se217  1  0.75672617  0.08801077  0.32062866  1
  Se  Se218  1  0.76727765  0.09430861  0.80921896  1
  Se  Se219  1  0.75050022  0.41495612  0.30026827  1
  Se  Se220  1  0.75620071  0.42403501  0.81184554  1
  Se  Se221  1  0.74644304  0.75079689  0.29953837  1
  Se  Se222  1  0.76116533  0.76330089  0.80474505  1
  Se  Se223  1  0.25514822  0.08250911  0.20191779  1
  Se  Se224  1  0.24774327  0.08677188  0.68109581  1
  Se  Se225  1  0.25438713  0.41799715  0.20032464  1
  Se  Se226  1  0.25366888  0.41375144  0.69757572  1
  Se  Se227  1  0.24430629  0.75943065  0.19118944  1
  Se  Se228  1  0.25641063  0.75366337  0.69556854  1
  Se  Se229  1  0.57545974  0.08844732  0.19262423  1
  Se  Se230  1  0.57456145  0.08544096  0.68887791  1
  Se  Se231  1  0.58555100  0.41594423  0.19991669  1
  Se  Se232  1  0.57190630  0.42687489  0.69468810  1
  Se  Se233  1  0.57719323  0.74660744  0.19782029  1
  Se  Se234  1  0.57519614  0.75302706  0.68996367  1
  Se  Se235  1  0.91591493  0.08516970  0.20562256  1
  Se  Se236  1  0.92663390  0.07746878  0.69198188  1
  Se  Se237  1  0.91152531  0.42772882  0.18826769  1
  Se  Se238  1  0.91522658  0.41525610  0.69677713  1
  Se  Se239  1  0.91842261  0.75182267  0.19587774  1
  Se  Se240  1  0.92475721  0.74847709  0.69460400  1
  Se  Se241  1  0.09201379  0.24403113  0.18647414  1
  Se  Se242  1  0.08373054  0.25083937  0.68794627  1
  Se  Se243  1  0.08228333  0.58536851  0.20483355  1
  Se  Se244  1  0.08028462  0.58596690  0.69767882  1
  Se  Se245  1  0.07827751  0.91908633  0.20054849  1
  Se  Se246  1  0.08728946  0.91617230  0.69879199  1
  Se  Se247  1  0.41441990  0.25354479  0.20059403  1
  Se  Se248  1  0.41263556  0.25323394  0.69339449  1
  Se  Se249  1  0.41868726  0.58045569  0.19282912  1
  Se  Se250  1  0.42473015  0.59528114  0.69007952  1
  Se  Se251  1  0.40184958  0.90440445  0.19609159  1
  Se  Se252  1  0.41547451  0.90943367  0.68977443  1
  Se  Se253  1  0.75294838  0.25450212  0.20784228  1
  Se  Se254  1  0.75544002  0.23665868  0.68692884  1
  Se  Se255  1  0.74733993  0.58915914  0.20090694  1
  Se  Se256  1  0.75712010  0.58137448  0.68718140  1
  Se  Se257  1  0.75028879  0.91168040  0.18999000  1
  Se  Se258  1  0.75703985  0.91041943  0.68447305  1
