# generated using pymatgen
data_In86Cu29Se144
_symmetry_space_group_name_H-M   'P 1'
_cell_length_a   17.69068206
_cell_length_b   17.67656234
_cell_length_c   23.51245830
_cell_angle_alpha   90.00022343
_cell_angle_beta   89.98874964
_cell_angle_gamma   89.99234997
_symmetry_Int_Tables_number   1
_chemical_formula_structural   In86Cu29Se144
_chemical_formula_sum   'In86 Cu29 Se144'
_cell_volume   7352.59107263
_cell_formula_units_Z   1
loop_
 _symmetry_equiv_pos_site_id
 _symmetry_equiv_pos_as_xyz
  1  'x, y, z'
loop_
 _atom_site_type_symbol
 _atom_site_label
 _atom_site_symmetry_multiplicity
 _atom_site_fract_x
 _atom_site_fract_y
 _atom_site_fract_z
 _atom_site_occupancy
  In  In0  1  -0.01337412  0.16676972  0.12595648  1
  In  In1  1  -0.00838352  0.14513243  0.63094680  1
  In  In2  1  0.00700487  0.50428604  0.12486656  1
  In  In3  1  0.01375308  0.50822363  0.61644239  1
  In  In4  1  0.00246648  0.82287847  0.13771262  1
  In  In5  1  0.00913679  0.82191432  0.62488080  1
  In  In6  1  0.33700870  0.14343416  0.11233979  1
  In  In7  1  0.34027276  0.15729423  0.63617629  1
  In  In8  1  0.32833483  0.50002603  0.12145358  1
  In  In9  1  0.32767315  0.51062631  0.63214337  1
  In  In10  1  0.28560823  0.79165270  0.06354970  1
  In  In11  1  0.33342616  0.83698901  0.63395300  1
  In  In12  1  0.66008294  0.16043703  0.11764660  1
  In  In13  1  0.70741182  0.13195340  0.67578817  1
  In  In14  1  0.64867795  0.50199079  0.11970689  1
  In  In15  1  0.67446818  0.48923417  0.63028396  1
  In  In16  1  0.66144781  0.83976443  0.12201885  1
  In  In17  1  0.69999011  0.79277634  0.66718776  1
  In  In18  1  0.14946689  -0.00665795  0.37581241  1
  In  In19  1  0.16028684  -0.00750060  0.87769313  1
  In  In20  1  0.17733389  0.33757479  0.37994522  1
  In  In21  1  0.17974610  0.33627340  0.87876656  1
  In  In22  1  0.17111790  0.66932784  0.37264400  1
  In  In23  1  0.16799696  0.67436680  0.88219044  1
  In  In24  1  0.50320243  0.00600395  0.37523491  1
  In  In25  1  0.50532311  0.00681879  0.86820351  1
  In  In26  1  0.49945294  0.32612583  0.36716821  1
  In  In27  1  0.50048246  0.33787329  0.87963742  1
  In  In28  1  0.49633393  0.67867107  0.36862388  1
  In  In29  1  0.49299677  0.67354586  0.87308488  1
  In  In30  1  0.84124568  -0.02050320  0.38703693  1
  In  In31  1  0.83249429  0.01487736  0.85812417  1
  In  In32  1  0.83767913  0.35080680  0.37306158  1
  In  In33  1  0.81776032  0.33194524  0.86536094  1
  In  In34  1  0.84309664  0.66179231  0.38477817  1
  In  In35  1  0.84088374  0.68847574  0.85019754  1
  In  In36  1  -0.00118124  0.14842894  0.37324621  1
  In  In37  1  -0.00151765  0.14690236  0.87695975  1
  In  In38  1  -0.00704592  0.51070449  0.38093177  1
  In  In39  1  0.00026241  0.51729145  0.87404164  1
  In  In40  1  0.00668516  0.82667082  0.37708259  1
  In  In41  1  0.01048137  0.85302374  0.87074351  1
  In  In42  1  0.33607252  0.16920930  0.37446390  1
  In  In43  1  0.33691730  0.17609976  0.87530735  1
  In  In44  1  0.32044955  0.50616840  0.37513030  1
  In  In45  1  0.33618395  0.51018497  0.88412271  1
  In  In46  1  0.33704261  0.81694637  0.36878818  1
  In  In47  1  0.33614718  0.83278718  0.87743814  1
  In  In48  1  0.65634371  0.16582368  0.37155476  1
  In  In49  1  0.66146932  0.17404635  0.87117737  1
  In  In50  1  0.68206290  0.50737554  0.37424169  1
  In  In51  1  0.65648668  0.50249179  0.86845739  1
  In  In52  1  0.66855502  0.84601346  0.38481832  1
  In  In53  1  0.65339812  0.83659654  0.85200326  1
  In  In54  1  0.16365480  -0.01013768  0.12163178  1
  In  In55  1  0.18166681  -0.01540382  0.63432411  1
  In  In56  1  0.15417126  0.33993805  0.11903632  1
  In  In57  1  0.16843035  0.34585630  0.62863188  1
  In  In58  1  0.16214192  0.66263185  0.13059660  1
  In  In59  1  0.16821385  0.66535637  0.62321401  1
  In  In60  1  0.44182753  -0.05681367  0.06025594  1
  In  In61  1  0.53440354  -0.04274324  0.67340791  1
  In  In62  1  0.50245540  0.33653756  0.11898152  1
  In  In63  1  0.50786200  0.32432694  0.63637256  1
  In  In64  1  0.45735898  0.62991430  0.06584566  1
  In  In65  1  0.50521221  0.66731802  0.64031632  1
  In  In66  1  0.82489542  0.00858762  0.12543242  1
  In  In67  1  0.87643225  -0.04621124  0.68325107  1
  In  In68  1  0.82640675  0.31199910  0.12409648  1
  In  In69  1  0.82007092  0.33318692  0.62449774  1
  In  In70  1  0.83399219  0.67971140  0.12774101  1
  In  In71  1  0.84506166  0.66278983  0.62205620  1
  In  In72  1  0.66358083  0.00598725  0.24833238  1
  In  In73  1  0.66708155  0.67023720  0.24727552  1
  In  In74  1  0.50182264  0.49861330  0.50631626  1
  In  In75  1  0.16600881  0.16856449  -0.00088639  1
  In  In76  1  0.33122384  -0.01575663  0.22779584  1
  In  In77  1  0.16623148  0.16661774  0.49666598  1
  In  In78  1  -0.00429097  0.33366542  0.24966587  1
  In  In79  1  0.82374945  0.17179302  0.50980447  1
  In  In80  1  0.33361631  0.33189115  0.25318596  1
  In  In81  1  0.82475880  0.50301284  -0.01186081  1
  In  In82  1  0.50196524  0.16338277  0.52268135  1
  In  In83  1  0.50013605  0.83717423  0.51320995  1
  In  In84  1  0.00533673  0.33134966  0.74737292  1
  In  In85  1  0.83667455  0.84987596  -0.00787960  1
  Cu  Cu86  1  0.32685656  0.66432796  0.50098714  1
  Cu  Cu87  1  0.83015637  0.49640287  0.25213940  1
  Cu  Cu88  1  0.49483965  0.17447541  0.75208151  1
  Cu  Cu89  1  0.67557361  -0.00022534  0.51350367  1
  Cu  Cu90  1  0.49554219  0.82950957  0.23985192  1
  Cu  Cu91  1  0.66765472  0.33956541  0.49972283  1
  Cu  Cu92  1  -0.00211004  0.33628932  0.50107792  1
  Cu  Cu93  1  0.33695082  0.33786595  -0.00280320  1
  Cu  Cu94  1  0.33328934  0.33388762  0.50397133  1
  Cu  Cu95  1  0.66993194  0.67889546  -0.01620272  1
  Cu  Cu96  1  -0.00302159  0.67058055  -0.00081783  1
  Cu  Cu97  1  0.83925466  0.83126290  0.25932436  1
  Cu  Cu98  1  -0.00130007  -0.01213222  0.51142039  1
  Cu  Cu99  1  0.17485247  0.83001043  0.24157388  1
  Cu  Cu100  1  0.67062247  0.33340567  -0.00546783  1
  Cu  Cu101  1  0.67033187  0.00666210  -0.00956127  1
  Cu  Cu102  1  -0.00872899  0.33326133  0.00046712  1
  Cu  Cu103  1  0.33048354  -0.01000905  0.50438374  1
  Cu  Cu104  1  0.67462296  0.67358423  0.50816061  1
  Cu  Cu105  1  0.17420108  0.50777938  0.75373489  1
  Cu  Cu106  1  0.16967485  0.82336147  0.75319645  1
  Cu  Cu107  1  0.16725624  0.16122846  0.75610217  1
  Cu  Cu108  1  0.82577158  0.16177681  0.24814310  1
  Cu  Cu109  1  0.49376601  0.50085834  0.75612457  1
  Cu  Cu110  1  0.49836535  0.16114205  0.24243930  1
  Cu  Cu111  1  0.00664139  0.66847859  0.49786460  1
  Cu  Cu112  1  0.16327558  0.50750296  0.25339884  1
  Cu  Cu113  1  0.49680853  0.50706434  0.23603835  1
  Cu  Cu114  1  0.83739422  0.50187749  0.74701736  1
  Se  Se115  1  0.07518735  0.08131573  0.05927897  1
  Se  Se116  1  0.08540854  0.07286209  0.56173086  1
  Se  Se117  1  0.07385001  0.41964318  0.04913061  1
  Se  Se118  1  0.08906110  0.41343948  0.55104558  1
  Se  Se119  1  0.07587728  0.74613326  0.06120834  1
  Se  Se120  1  0.09171407  0.74883563  0.55071332  1
  Se  Se121  1  0.44558171  0.09228355  0.05422708  1
  Se  Se122  1  0.41071902  0.06411063  0.56620446  1
  Se  Se123  1  0.41672208  0.42001358  0.05430377  1
  Se  Se124  1  0.41366852  0.40946455  0.56618345  1
  Se  Se125  1  0.43324954  0.77487560  0.06065792  1
  Se  Se126  1  0.41127556  0.73695309  0.56306799  1
  Se  Se127  1  0.75151168  0.08517943  0.04977602  1
  Se  Se128  1  0.75226896  0.07907698  0.57414866  1
  Se  Se129  1  0.74726481  0.41306543  0.05852593  1
  Se  Se130  1  0.75313918  0.42135528  0.55072244  1
  Se  Se131  1  0.74835843  0.75053186  0.05110641  1
  Se  Se132  1  0.75097639  0.75413803  0.56701308  1
  Se  Se133  1  0.25769099  0.25862665  0.06074461  1
  Se  Se134  1  0.25595591  0.24901734  0.56205593  1
  Se  Se135  1  0.23260717  0.57356589  0.06026500  1
  Se  Se136  1  0.24846680  0.57734470  0.55376067  1
  Se  Se137  1  0.27096276  0.93980302  0.05694125  1
  Se  Se138  1  0.25033672  0.90502101  0.55644039  1
  Se  Se139  1  0.58651342  0.25485514  0.05177176  1
  Se  Se140  1  0.60055167  0.25694994  0.56435278  1
  Se  Se141  1  0.59746958  0.59131954  0.04210328  1
  Se  Se142  1  0.59052218  0.59203890  0.56361685  1
  Se  Se143  1  0.59466032  0.92494964  0.04991594  1
  Se  Se144  1  0.58907286  0.92350796  0.56993187  1
  Se  Se145  1  0.91236978  0.24550086  0.05037331  1
  Se  Se146  1  0.92730543  0.25447067  0.56460441  1
  Se  Se147  1  0.91258853  0.58911312  0.05603047  1
  Se  Se148  1  0.92347980  0.58230937  0.54868439  1
  Se  Se149  1  0.91939662  0.91686756  0.06960466  1
  Se  Se150  1  0.91718364  0.92228874  0.57770585  1
  Se  Se151  1  0.07143712  0.25551364  0.43734123  1
  Se  Se152  1  0.07404654  0.25667155  0.93758069  1
  Se  Se153  1  0.08902628  0.58573522  0.44186659  1
  Se  Se154  1  0.08213480  0.58776825  0.94799458  1
  Se  Se155  1  0.08122932  0.91271065  0.45112783  1
  Se  Se156  1  0.07675554  0.92273808  0.95222468  1
  Se  Se157  1  0.41695936  0.25361537  0.44705753  1
  Se  Se158  1  0.41897652  0.25195167  0.94776921  1
  Se  Se159  1  0.41581903  0.59052554  0.44171505  1
  Se  Se160  1  0.41544268  0.59916990  0.95211332  1
  Se  Se161  1  0.41433753  0.91872326  0.43932308  1
  Se  Se162  1  0.42046901  0.92613177  0.93701543  1
  Se  Se163  1  0.74321785  0.25707638  0.43680631  1
  Se  Se164  1  0.75154638  0.25002944  0.94166804  1
  Se  Se165  1  0.74989031  0.58689036  0.45086008  1
  Se  Se166  1  0.75318143  0.60279320  0.92415845  1
  Se  Se167  1  0.75324343  0.91209907  0.45977633  1
  Se  Se168  1  0.74088221  0.92336578  0.92672139  1
  Se  Se169  1  0.25894676  0.07245658  0.44049464  1
  Se  Se170  1  0.25492077  0.08092480  0.94016619  1
  Se  Se171  1  0.25473943  0.41923765  0.45018243  1
  Se  Se172  1  0.25091589  0.42248249  0.94957388  1
  Se  Se173  1  0.25329088  0.75110611  0.44388852  1
  Se  Se174  1  0.25021612  0.75946750  0.95238513  1
  Se  Se175  1  0.59341019  0.07614276  0.45072171  1
  Se  Se176  1  0.58302004  0.08948199  0.94095645  1
  Se  Se177  1  0.58537278  0.41226527  0.43697032  1
  Se  Se178  1  0.58851331  0.42173861  0.94549816  1
  Se  Se179  1  0.58763349  0.74424446  0.44605217  1
  Se  Se180  1  0.58605884  0.76088890  0.93247934  1
  Se  Se181  1  0.92116357  0.07611984  0.45412517  1
  Se  Se182  1  0.90994037  0.07099959  0.94167228  1
  Se  Se183  1  0.91566497  0.42086880  0.44873971  1
  Se  Se184  1  0.91931649  0.41204895  0.93303464  1
  Se  Se185  1  0.91887538  0.75357870  0.44905578  1
  Se  Se186  1  0.92021828  0.74936152  0.93647857  1
  Se  Se187  1  0.23818943  0.23976274  0.30736345  1
  Se  Se188  1  0.24650382  0.25036007  0.80538235  1
  Se  Se189  1  0.25435677  0.58902941  0.29976951  1
  Se  Se190  1  0.25019065  0.58879303  0.81444839  1
  Se  Se191  1  0.24948692  0.91083601  0.30689630  1
  Se  Se192  1  0.24409747  0.91022855  0.81064689  1
  Se  Se193  1  0.57985389  0.24447802  0.29776483  1
  Se  Se194  1  0.57727406  0.25872742  0.80454366  1
  Se  Se195  1  0.57609192  0.57677395  0.30757476  1
  Se  Se196  1  0.57696744  0.59034201  0.80343470  1
  Se  Se197  1  0.57373074  0.90562776  0.30675901  1
  Se  Se198  1  0.59333498  0.94455888  0.79099222  1
  Se  Se199  1  0.90599213  0.24084463  0.31092577  1
  Se  Se200  1  0.91916981  0.24648337  0.81134802  1
  Se  Se201  1  0.90961242  0.58093888  0.30619054  1
  Se  Se202  1  0.92122787  0.58619566  0.79737930  1
  Se  Se203  1  0.92294414  0.91508169  0.31035813  1
  Se  Se204  1  0.90744554  0.91003508  0.80205120  1
  Se  Se205  1  0.09136020  0.08615622  0.30460269  1
  Se  Se206  1  0.08314570  0.07633810  0.80438627  1
  Se  Se207  1  0.08728020  0.42134560  0.31210720  1
  Se  Se208  1  0.09064908  0.42433819  0.81029674  1
  Se  Se209  1  0.09234778  0.75443359  0.30344765  1
  Se  Se210  1  0.08247216  0.75105313  0.81143851  1
  Se  Se211  1  0.41626738  0.08243785  0.30294799  1
  Se  Se212  1  0.41463624  0.09100342  0.80564548  1
  Se  Se213  1  0.42325170  0.43129421  0.30650214  1
  Se  Se214  1  0.41361389  0.42296864  0.81518200  1
  Se  Se215  1  0.41444492  0.74437451  0.29190594  1
  Se  Se216  1  0.42368030  0.76565356  0.80355276  1
  Se  Se217  1  0.75853094  0.08002098  0.31804858  1
  Se  Se218  1  0.74064379  0.09577988  0.79633823  1
  Se  Se219  1  0.74415136  0.41412112  0.30190355  1
  Se  Se220  1  0.74837946  0.42702590  0.80080779  1
  Se  Se221  1  0.75122138  0.75587211  0.31665803  1
  Se  Se222  1  0.74190727  0.75496046  0.78593585  1
  Se  Se223  1  0.24122063  0.09110927  0.18824591  1
  Se  Se224  1  0.25096514  0.07899190  0.70131569  1
  Se  Se225  1  0.23751380  0.41953773  0.19539314  1
  Se  Se226  1  0.25166047  0.41956578  0.70020530  1
  Se  Se227  1  0.25434899  0.76494302  0.17288565  1
  Se  Se228  1  0.25035258  0.74424105  0.69460367  1
  Se  Se229  1  0.57043956  0.07637073  0.18258869  1
  Se  Se230  1  0.56142804  0.10528874  0.67722489  1
  Se  Se231  1  0.58063432  0.41617007  0.19358515  1
  Se  Se232  1  0.57851693  0.42345972  0.69806477  1
  Se  Se233  1  0.57771466  0.74805365  0.18281186  1
  Se  Se234  1  0.55932746  0.77807683  0.69810662  1
  Se  Se235  1  0.91191430  0.08100901  0.19734645  1
  Se  Se236  1  0.90561933  0.09460438  0.70866999  1
  Se  Se237  1  0.90522586  0.41883118  0.18566251  1
  Se  Se238  1  0.91851634  0.42232398  0.68568200  1
  Se  Se239  1  0.91543617  0.74239432  0.20577288  1
  Se  Se240  1  0.93126527  0.73555003  0.69279249  1
  Se  Se241  1  0.08640638  0.24586059  0.19023616  1
  Se  Se242  1  0.09259484  0.23642961  0.68704089  1
  Se  Se243  1  0.07459313  0.58505853  0.20119900  1
  Se  Se244  1  0.08889225  0.58035407  0.69417790  1
  Se  Se245  1  0.08613144  0.91590509  0.19759830  1
  Se  Se246  1  0.08887054  0.90720478  0.69680779  1
  Se  Se247  1  0.41527205  0.24399127  0.18640499  1
  Se  Se248  1  0.40718922  0.25785540  0.69951444  1
  Se  Se249  1  0.42648140  0.58725420  0.17276838  1
  Se  Se250  1  0.41427750  0.58553572  0.70119682  1
  Se  Se251  1  0.43882235  0.91911746  0.17582885  1
  Se  Se252  1  0.40385359  0.91490311  0.71127180  1
  Se  Se253  1  0.74031716  0.23874694  0.19406998  1
  Se  Se254  1  0.75022482  0.26675676  0.70506235  1
  Se  Se255  1  0.75386544  0.57508879  0.18658073  1
  Se  Se256  1  0.75475893  0.58253687  0.69049163  1
  Se  Se257  1  0.75702995  0.90724036  0.19740059  1
  Se  Se258  1  0.73158776  0.93303794  0.69194391  1
