# generated using pymatgen
data_In86Cu29Se144
_symmetry_space_group_name_H-M   'P 1'
_cell_length_a   17.57736032
_cell_length_b   17.57919700
_cell_length_c   23.44480241
_cell_angle_alpha   90.02213364
_cell_angle_beta   89.98100556
_cell_angle_gamma   90.01432408
_symmetry_Int_Tables_number   1
_chemical_formula_structural   In86Cu29Se144
_chemical_formula_sum   'In86 Cu29 Se144'
_cell_volume   7244.34617974
_cell_formula_units_Z   1
loop_
 _symmetry_equiv_pos_site_id
 _symmetry_equiv_pos_as_xyz
  1  'x, y, z'
loop_
 _atom_site_type_symbol
 _atom_site_label
 _atom_site_symmetry_multiplicity
 _atom_site_fract_x
 _atom_site_fract_y
 _atom_site_fract_z
 _atom_site_occupancy
  In  In0  1  0.00415237  0.16894146  0.12830587  1
  In  In1  1  0.01272674  0.16701066  0.62514185  1
  In  In2  1  -0.00622856  0.49306051  0.11735983  1
  In  In3  1  -0.00353201  0.50522356  0.63502483  1
  In  In4  1  0.01070297  0.84427213  0.11848468  1
  In  In5  1  -0.00591573  0.82656825  0.62741946  1
  In  In6  1  0.30971115  0.16650282  0.12193892  1
  In  In7  1  0.34094221  0.17285034  0.61760038  1
  In  In8  1  0.33367318  0.50997667  0.11994689  1
  In  In9  1  0.33311604  0.50232364  0.63414418  1
  In  In10  1  0.33072926  0.83179111  0.12598641  1
  In  In11  1  0.33252930  0.82987863  0.62455768  1
  In  In12  1  0.68361480  0.16629592  0.12679555  1
  In  In13  1  0.65539624  0.16646984  0.61985916  1
  In  In14  1  0.66951160  0.48656482  0.12656039  1
  In  In15  1  0.68311293  0.50193185  0.62462998  1
  In  In16  1  0.66436189  0.82998532  0.11625488  1
  In  In17  1  0.65350152  0.82292089  0.61589173  1
  In  In18  1  0.17758610  0.01196022  0.35984477  1
  In  In19  1  0.16397526  0.00469407  0.88759705  1
  In  In20  1  0.15110957  0.33325738  0.36740385  1
  In  In21  1  0.16825129  0.33800740  0.88271869  1
  In  In22  1  0.17370826  0.66100216  0.36427167  1
  In  In23  1  0.16588904  0.66555591  0.87623766  1
  In  In24  1  0.48118685  0.00917486  0.39180028  1
  In  In25  1  0.48583081  -0.00720062  0.87286814  1
  In  In26  1  0.49204934  0.31393579  0.37446618  1
  In  In27  1  0.49717760  0.34118390  0.86990092  1
  In  In28  1  0.49617182  0.68145485  0.38023181  1
  In  In29  1  0.50493324  0.68196613  0.86155666  1
  In  In30  1  0.82856686  -0.01245567  0.37374894  1
  In  In31  1  0.83591296  -0.00174743  0.88350946  1
  In  In32  1  0.84301929  0.34138800  0.36884271  1
  In  In33  1  0.84283259  0.32466073  0.88229131  1
  In  In34  1  0.82714675  0.67665443  0.38458291  1
  In  In35  1  0.83582149  0.66164041  0.87877517  1
  In  In36  1  0.00993392  0.17612811  0.36876895  1
  In  In37  1  -0.00401504  0.17502557  0.87908711  1
  In  In38  1  -0.00241315  0.49350441  0.36951820  1
  In  In39  1  0.00154580  0.49721843  0.87946840  1
  In  In40  1  -0.01291787  0.83053190  0.37042263  1
  In  In41  1  0.01162222  0.82429388  0.88510284  1
  In  In42  1  0.33507455  0.15048647  0.38396981  1
  In  In43  1  0.32200425  0.16511769  0.87787629  1
  In  In44  1  0.31953933  0.50845881  0.36667817  1
  In  In45  1  0.32122272  0.49331672  0.87147764  1
  In  In46  1  0.33929807  0.84593694  0.35801024  1
  In  In47  1  0.34078685  0.82456208  0.88213502  1
  In  In48  1  0.65109038  0.16284038  0.37447173  1
  In  In49  1  0.66995335  0.17652837  0.87460272  1
  In  In50  1  0.68331243  0.50131171  0.37708828  1
  In  In51  1  0.65951650  0.51331649  0.87551455  1
  In  In52  1  0.65499091  0.85497166  0.39781606  1
  In  In53  1  0.67259218  0.82699867  0.87930240  1
  In  In54  1  0.16268647  -0.00337896  0.13129231  1
  In  In55  1  0.16564730  0.00567044  0.61552514  1
  In  In56  1  0.16376132  0.32183843  0.11292789  1
  In  In57  1  0.17240413  0.33028976  0.63306665  1
  In  In58  1  0.17743933  0.67531939  0.11495851  1
  In  In59  1  0.16974133  0.66412187  0.63742173  1
  In  In60  1  0.50216390  -0.01690575  0.12493680  1
  In  In61  1  0.49755290  -0.00116753  0.61358185  1
  In  In62  1  0.50502010  0.34285984  0.12901784  1
  In  In63  1  0.49365824  0.31822993  0.62786914  1
  In  In64  1  0.48331256  0.66931992  0.12318682  1
  In  In65  1  0.49369968  0.68390780  0.64068391  1
  In  In66  1  0.84545986  0.01160521  0.11864431  1
  In  In67  1  0.83839027  -0.01015715  0.61934633  1
  In  In68  1  0.84126747  0.33423830  0.12679366  1
  In  In69  1  0.83004348  0.34962378  0.62549707  1
  In  In70  1  0.84065201  0.66898456  0.11372220  1
  In  In71  1  0.83491114  0.66453919  0.63223301  1
  In  In72  1  0.49758116  0.50431562  -0.00351266  1
  In  In73  1  0.00602843  0.67010446  0.24355340  1
  In  In74  1  0.50456727  0.49589661  0.50676972  1
  In  In75  1  0.66184467  -0.00762433  0.74080057  1
  In  In76  1  0.16923636  0.83680285  0.49388851  1
  In  In77  1  0.83184109  0.16542820  0.49877839  1
  In  In78  1  0.66142836  0.34005041  0.74857021  1
  In  In79  1  0.50079449  0.16185897  -0.00639309  1
  In  In80  1  0.66616024  0.00139485  0.25473001  1
  In  In81  1  0.33115926  0.33347605  0.24433930  1
  In  In82  1  0.66831737  0.66796060  0.25820753  1
  In  In83  1  0.33299643  0.00166330  0.74594229  1
  In  In84  1  0.00057106  -0.00352948  0.74387285  1
  In  In85  1  0.16153160  0.49655997  0.49038388  1
  Cu  Cu86  1  0.66552488  0.33177934  0.50153190  1
  Cu  Cu87  1  -0.00731120  0.66516318  0.50572655  1
  Cu  Cu88  1  0.32714774  0.31930203  0.50073758  1
  Cu  Cu89  1  0.00260551  0.00088018  0.49700168  1
  Cu  Cu90  1  0.82965285  0.17009792  0.75453348  1
  Cu  Cu91  1  0.66769317  0.66434307  -0.00332304  1
  Cu  Cu92  1  0.66911189  -0.00670703  0.00229401  1
  Cu  Cu93  1  0.00135706  0.66155057  -0.00113502  1
  Cu  Cu94  1  0.00021787  0.32894538  0.00123717  1
  Cu  Cu95  1  0.83687135  0.49964288  0.75493686  1
  Cu  Cu96  1  0.67357924  0.66847235  0.50629384  1
  Cu  Cu97  1  0.33241465  0.67212725  -0.00413598  1
  Cu  Cu98  1  -0.00101151  0.00299999  0.00633795  1
  Cu  Cu99  1  0.84161890  0.17672028  0.24751502  1
  Cu  Cu100  1  -0.00208385  0.33815265  0.49636885  1
  Cu  Cu101  1  0.82948005  0.83985303  0.25021853  1
  Cu  Cu102  1  0.67886015  0.32904648  0.00386005  1
  Cu  Cu103  1  0.50414155  0.49975589  0.24764189  1
  Cu  Cu104  1  0.17219511  0.82933621  0.75765931  1
  Cu  Cu105  1  0.83847193  0.82092801  0.75562992  1
  Cu  Cu106  1  0.16419233  0.17746714  0.75387253  1
  Cu  Cu107  1  0.49516555  0.16223858  0.25377295  1
  Cu  Cu108  1  0.83655983  0.50086698  0.24784099  1
  Cu  Cu109  1  0.49542690  0.50654976  0.75141306  1
  Cu  Cu110  1  0.33502498  0.66586525  0.50426294  1
  Cu  Cu111  1  0.16317771  0.49977637  0.75849784  1
  Cu  Cu112  1  0.33010529  -0.00216596  0.00439302  1
  Cu  Cu113  1  0.49068602  0.83016219  0.25170602  1
  Cu  Cu114  1  0.16549718  0.16593216  0.24711220  1
  Se  Se115  1  0.08540682  0.08330471  0.06004315  1
  Se  Se116  1  0.08282386  0.08812204  0.54781086  1
  Se  Se117  1  0.08416462  0.41589705  0.05022856  1
  Se  Se118  1  0.07844209  0.41456954  0.56057421  1
  Se  Se119  1  0.08139663  0.74960049  0.05142316  1
  Se  Se120  1  0.08559088  0.74112026  0.55912171  1
  Se  Se121  1  0.41478613  0.07825754  0.06213415  1
  Se  Se122  1  0.41108697  0.08200185  0.55040491  1
  Se  Se123  1  0.41333121  0.40905251  0.05613110  1
  Se  Se124  1  0.40241737  0.40876491  0.55816704  1
  Se  Se125  1  0.41523988  0.75503790  0.05061797  1
  Se  Se126  1  0.41821168  0.74730719  0.55744688  1
  Se  Se127  1  0.75029817  0.08289256  0.05108987  1
  Se  Se128  1  0.74315821  0.07482169  0.55829751  1
  Se  Se129  1  0.75744690  0.41723503  0.05571005  1
  Se  Se130  1  0.75072331  0.41870647  0.54796623  1
  Se  Se131  1  0.75040810  0.74930154  0.04979143  1
  Se  Se132  1  0.75892681  0.74974752  0.56011151  1
  Se  Se133  1  0.25868324  0.25393266  0.04458504  1
  Se  Se134  1  0.23859659  0.24599341  0.55666543  1
  Se  Se135  1  0.25207307  0.58330046  0.04587125  1
  Se  Se136  1  0.24988385  0.58397858  0.55770583  1
  Se  Se137  1  0.24639305  0.91643935  0.05947479  1
  Se  Se138  1  0.26175496  0.92532014  0.55324477  1
  Se  Se139  1  0.58872770  0.25245997  0.05940543  1
  Se  Se140  1  0.57739725  0.25126493  0.55077885  1
  Se  Se141  1  0.58902780  0.58848408  0.06304743  1
  Se  Se142  1  0.58702835  0.59197300  0.56616518  1
  Se  Se143  1  0.57922302  0.91069065  0.04816414  1
  Se  Se144  1  0.59049448  0.92144450  0.55119006  1
  Se  Se145  1  0.91750056  0.24643917  0.05720432  1
  Se  Se146  1  0.92007001  0.25745774  0.55978992  1
  Se  Se147  1  0.91392376  0.57720346  0.04745328  1
  Se  Se148  1  0.91527359  0.57949136  0.56062665  1
  Se  Se149  1  0.91296571  0.91361831  0.05255550  1
  Se  Se150  1  0.92762948  0.91361389  0.55260159  1
  Se  Se151  1  0.08291933  0.25432040  0.44620015  1
  Se  Se152  1  0.08586038  0.24706342  0.94794549  1
  Se  Se153  1  0.07245355  0.59629808  0.43746171  1
  Se  Se154  1  0.08745119  0.58018892  0.94642766  1
  Se  Se155  1  0.07830544  0.92192756  0.43254513  1
  Se  Se156  1  0.08206506  0.91837078  0.95255627  1
  Se  Se157  1  0.41706062  0.23972063  0.45038595  1
  Se  Se158  1  0.41332274  0.25879808  0.94047582  1
  Se  Se159  1  0.41029893  0.58072064  0.44312159  1
  Se  Se160  1  0.41373912  0.59348362  0.93294262  1
  Se  Se161  1  0.41820394  0.89565746  0.44222027  1
  Se  Se162  1  0.41523388  0.91684590  0.95049831  1
  Se  Se163  1  0.74511417  0.25595223  0.43647773  1
  Se  Se164  1  0.75563595  0.24173131  0.94902421  1
  Se  Se165  1  0.75346249  0.58368806  0.45167847  1
  Se  Se166  1  0.75060929  0.57718654  0.94767900  1
  Se  Se167  1  0.76623020  0.91248913  0.45422520  1
  Se  Se168  1  0.75384262  0.91111680  0.94810962  1
  Se  Se169  1  0.23799204  0.07876646  0.44582527  1
  Se  Se170  1  0.24954373  0.08671064  0.95425032  1
  Se  Se171  1  0.25874597  0.40451401  0.43648646  1
  Se  Se172  1  0.25220055  0.42111483  0.95050441  1
  Se  Se173  1  0.25606113  0.73922900  0.43885329  1
  Se  Se174  1  0.24282688  0.75489588  0.94637320  1
  Se  Se175  1  0.59706322  0.06545633  0.44405233  1
  Se  Se176  1  0.59325834  0.07021841  0.93522572  1
  Se  Se177  1  0.58575620  0.40918744  0.43691715  1
  Se  Se178  1  0.59392948  0.40656829  0.94393956  1
  Se  Se179  1  0.58545958  0.74663939  0.45271757  1
  Se  Se180  1  0.58134967  0.74551724  0.94422818  1
  Se  Se181  1  0.92327460  0.08127014  0.43557822  1
  Se  Se182  1  0.91948572  0.08480475  0.94696316  1
  Se  Se183  1  0.91514599  0.42270841  0.44509910  1
  Se  Se184  1  0.91703629  0.41496141  0.94928220  1
  Se  Se185  1  0.91776129  0.75448977  0.45043915  1
  Se  Se186  1  0.91655044  0.74756229  0.94787661  1
  Se  Se187  1  0.24946864  0.24255661  0.31043569  1
  Se  Se188  1  0.24899099  0.25478425  0.80944983  1
  Se  Se189  1  0.24297878  0.57790841  0.29079192  1
  Se  Se190  1  0.25005254  0.58745197  0.80434302  1
  Se  Se191  1  0.24361182  0.91450820  0.29442663  1
  Se  Se192  1  0.24446417  0.91940573  0.81416355  1
  Se  Se193  1  0.58105118  0.24862164  0.30046958  1
  Se  Se194  1  0.57381220  0.24206940  0.80361577  1
  Se  Se195  1  0.57573671  0.57693261  0.31642580  1
  Se  Se196  1  0.58540837  0.58749156  0.79913329  1
  Se  Se197  1  0.57523447  0.90973041  0.31084456  1
  Se  Se198  1  0.57866990  0.90875930  0.80994521  1
  Se  Se199  1  0.92593311  0.25951859  0.30114618  1
  Se  Se200  1  0.91725797  0.25103973  0.80357059  1
  Se  Se201  1  0.90685066  0.59046727  0.30837254  1
  Se  Se202  1  0.92059821  0.58179009  0.80901042  1
  Se  Se203  1  0.91712962  0.92203859  0.29969632  1
  Se  Se204  1  0.91646751  0.91047151  0.81104843  1
  Se  Se205  1  0.07757716  0.08425283  0.29823511  1
  Se  Se206  1  0.08642102  0.08613013  0.80819865  1
  Se  Se207  1  0.09686497  0.43636697  0.30204898  1
  Se  Se208  1  0.08210357  0.41251250  0.80960844  1
  Se  Se209  1  0.09133075  0.76109783  0.30575927  1
  Se  Se210  1  0.08181822  0.74893090  0.80584169  1
  Se  Se211  1  0.41492937  0.07775948  0.30723331  1
  Se  Se212  1  0.42045743  0.09469077  0.80718034  1
  Se  Se213  1  0.42209615  0.42080631  0.30997257  1
  Se  Se214  1  0.41380603  0.41969908  0.80170852  1
  Se  Se215  1  0.41170865  0.73922149  0.30133502  1
  Se  Se216  1  0.40974713  0.75809797  0.79977425  1
  Se  Se217  1  0.76079648  0.09629604  0.30917176  1
  Se  Se218  1  0.75235920  0.08191017  0.80748376  1
  Se  Se219  1  0.75164246  0.41881482  0.30149680  1
  Se  Se220  1  0.75340553  0.41928535  0.81428019  1
  Se  Se221  1  0.74772173  0.76926480  0.31535608  1
  Se  Se222  1  0.75104199  0.74337209  0.80885215  1
  Se  Se223  1  0.25147634  0.08036910  0.19894081  1
  Se  Se224  1  0.23704389  0.09191309  0.69136770  1
  Se  Se225  1  0.24451874  0.41890271  0.18182796  1
  Se  Se226  1  0.24713934  0.42071802  0.70014932  1
  Se  Se227  1  0.26059015  0.73697563  0.19295491  1
  Se  Se228  1  0.25568612  0.75170747  0.69918526  1
  Se  Se229  1  0.57806833  0.08852690  0.18872559  1
  Se  Se230  1  0.56918497  0.08994078  0.69157226  1
  Se  Se231  1  0.58992335  0.41328012  0.20247880  1
  Se  Se232  1  0.57239151  0.42817202  0.68517933  1
  Se  Se233  1  0.57809347  0.75338363  0.19330271  1
  Se  Se234  1  0.59580356  0.75191951  0.70094636  1
  Se  Se235  1  0.91850241  0.08527756  0.19674343  1
  Se  Se236  1  0.90645765  0.09155251  0.68932197  1
  Se  Se237  1  0.92234808  0.41819384  0.19733012  1
  Se  Se238  1  0.91633602  0.41371916  0.70055114  1
  Se  Se239  1  0.90744394  0.75893522  0.18935885  1
  Se  Se240  1  0.92534831  0.74216158  0.70137682  1
  Se  Se241  1  0.08810368  0.25557075  0.19478047  1
  Se  Se242  1  0.07715548  0.25499670  0.69912477  1
  Se  Se243  1  0.08686024  0.58233171  0.17832512  1
  Se  Se244  1  0.08229283  0.58456953  0.70296070  1
  Se  Se245  1  0.07689156  0.91581339  0.19897374  1
  Se  Se246  1  0.09872717  0.90662701  0.68906489  1
  Se  Se247  1  0.42127663  0.23898213  0.18595501  1
  Se  Se248  1  0.40041313  0.25569843  0.69702272  1
  Se  Se249  1  0.41809459  0.57915268  0.19560390  1
  Se  Se250  1  0.41049435  0.59097310  0.70059997  1
  Se  Se251  1  0.41362116  0.91690370  0.19689763  1
  Se  Se252  1  0.42694471  0.91165735  0.69119356  1
  Se  Se253  1  0.75217497  0.25602392  0.19701406  1
  Se  Se254  1  0.75131101  0.24478354  0.68877290  1
  Se  Se255  1  0.75615196  0.58470655  0.19019781  1
  Se  Se256  1  0.75124402  0.58144840  0.70208899  1
  Se  Se257  1  0.75049698  0.91626722  0.18622599  1
  Se  Se258  1  0.76476704  0.90414048  0.69297129  1
