# generated using pymatgen
data_In86Cu29Se144
_symmetry_space_group_name_H-M   'P 1'
_cell_length_a   17.58977116
_cell_length_b   17.58498395
_cell_length_c   23.44902225
_cell_angle_alpha   89.99685383
_cell_angle_beta   90.02053819
_cell_angle_gamma   90.01479839
_symmetry_Int_Tables_number   1
_chemical_formula_structural   In86Cu29Se144
_chemical_formula_sum   'In86 Cu29 Se144'
_cell_volume   7253.15338221
_cell_formula_units_Z   1
loop_
 _symmetry_equiv_pos_site_id
 _symmetry_equiv_pos_as_xyz
  1  'x, y, z'
loop_
 _atom_site_type_symbol
 _atom_site_label
 _atom_site_symmetry_multiplicity
 _atom_site_fract_x
 _atom_site_fract_y
 _atom_site_fract_z
 _atom_site_occupancy
  In  In0  1  0.01308247  0.15344138  0.11831568  1
  In  In1  1  -0.01634910  0.16042330  0.62213070  1
  In  In2  1  0.00624988  0.51147679  0.11916142  1
  In  In3  1  -0.00698745  0.51691216  0.63010529  1
  In  In4  1  -0.01233995  0.83464564  0.11489964  1
  In  In5  1  -0.00417680  0.83272491  0.63277625  1
  In  In6  1  0.32383112  0.15469956  0.11005207  1
  In  In7  1  0.34055044  0.13770315  0.61690473  1
  In  In8  1  0.32742750  0.50974628  0.12300474  1
  In  In9  1  0.33348844  0.48985641  0.62447640  1
  In  In10  1  0.33770456  0.84781335  0.12111568  1
  In  In11  1  0.33905037  0.85573205  0.62329349  1
  In  In12  1  0.66160617  0.17491263  0.12711062  1
  In  In13  1  0.66647970  0.16543912  0.62835582  1
  In  In14  1  0.66011165  0.49246213  0.12263820  1
  In  In15  1  0.66925468  0.49892901  0.62373055  1
  In  In16  1  0.68603499  0.83657613  0.12161298  1
  In  In17  1  0.68143506  0.81759786  0.64999531  1
  In  In18  1  0.16450286  -0.01497131  0.37414237  1
  In  In19  1  0.17238248  -0.00790773  0.86084759  1
  In  In20  1  0.17065214  0.32732869  0.37134494  1
  In  In21  1  0.18203745  0.32886153  0.89508435  1
  In  In22  1  0.16399546  0.68393856  0.37468607  1
  In  In23  1  0.13777615  0.69758160  0.88392100  1
  In  In24  1  0.50845220  0.00564937  0.37326087  1
  In  In25  1  0.50745809  0.00661605  0.86366568  1
  In  In26  1  0.51385629  0.32001711  0.38558010  1
  In  In27  1  0.50087360  0.32034792  0.87853120  1
  In  In28  1  0.48618473  0.65945927  0.39033782  1
  In  In29  1  0.51309805  0.66619527  0.86866465  1
  In  In30  1  0.82514302  0.01011290  0.39040747  1
  In  In31  1  0.83227384  -0.00716848  0.86730826  1
  In  In32  1  0.81986337  0.34225533  0.37994416  1
  In  In33  1  0.83529681  0.34691208  0.87475359  1
  In  In34  1  0.83852290  0.66246191  0.37988404  1
  In  In35  1  0.83437303  0.67308994  0.86438905  1
  In  In36  1  0.00032891  0.14809905  0.37978396  1
  In  In37  1  0.01627768  0.15799601  0.87854149  1
  In  In38  1  -0.02004731  0.50815565  0.37302322  1
  In  In39  1  -0.01041933  0.50867955  0.88286387  1
  In  In40  1  0.00394270  0.83200988  0.38204130  1
  In  In41  1  -0.00107065  0.83383237  0.85477098  1
  In  In42  1  0.35017481  0.16446694  0.37687273  1
  In  In43  1  0.34434241  0.16158408  0.88410640  1
  In  In44  1  0.33804840  0.51480673  0.38361049  1
  In  In45  1  0.32977450  0.49319315  0.87942787  1
  In  In46  1  0.32137481  0.83071274  0.37995727  1
  In  In47  1  0.30940390  0.83762173  0.86869509  1
  In  In48  1  0.66615042  0.16247471  0.37736463  1
  In  In49  1  0.65583410  0.15905390  0.86877254  1
  In  In50  1  0.67151790  0.49569671  0.38178575  1
  In  In51  1  0.68436970  0.51209269  0.86208105  1
  In  In52  1  0.66286525  0.85124883  0.37981218  1
  In  In53  1  0.68170627  0.85132916  0.84626008  1
  In  In54  1  0.17012779  0.00526129  0.10810759  1
  In  In55  1  0.18269203  -0.02800244  0.64785776  1
  In  In56  1  0.17099002  0.33060529  0.11066429  1
  In  In57  1  0.17329387  0.33699556  0.62827159  1
  In  In58  1  0.15459466  0.66365476  0.11726271  1
  In  In59  1  0.14659251  0.67435498  0.63698224  1
  In  In60  1  0.49195096  0.00773199  0.12851620  1
  In  In61  1  0.49755152  0.00097387  0.63098050  1
  In  In62  1  0.51595909  0.33109896  0.12835835  1
  In  In63  1  0.51123810  0.33882126  0.61660180  1
  In  In64  1  0.50198373  0.65312801  0.12655010  1
  In  In65  1  0.51596324  0.67864137  0.62565665  1
  In  In66  1  0.83572057  -0.00671959  0.12429478  1
  In  In67  1  0.83341872  -0.00354832  0.63373499  1
  In  In68  1  0.81677600  0.33268294  0.12386684  1
  In  In69  1  0.81804252  0.32007831  0.61907881  1
  In  In70  1  0.84513447  0.67883276  0.11775472  1
  In  In71  1  0.83807846  0.67067472  0.62847351  1
  In  In72  1  0.66785937  0.67222695  0.25074169  1
  In  In73  1  0.33936194  0.33521864  0.24391317  1
  In  In74  1  0.16037735  0.15988962  0.50083008  1
  In  In75  1  0.33897829  0.32518176  0.75405372  1
  In  In76  1  0.50322038  0.83328411  -0.00504932  1
  In  In77  1  0.33059904  0.67553940  0.25785401  1
  In  In78  1  0.16302559  0.50543462  0.50441207  1
  In  In79  1  0.00163124  0.33311899  0.75658347  1
  In  In80  1  0.50397102  0.83944015  0.50711393  1
  In  In81  1  -0.00426100  -0.00678111  0.24339264  1
  In  In82  1  0.33165339  0.66710808  0.75009976  1
  In  In83  1  0.83390258  0.16449758  -0.00134827  1
  In  In84  1  0.50050994  0.49465356  0.00171160  1
  In  In85  1  -0.01088892  0.33410130  0.24782658  1
  Cu  Cu86  1  0.33962969  0.32906670  0.50020979  1
  Cu  Cu87  1  0.82755087  0.50825207  0.25159719  1
  Cu  Cu88  1  0.68469783  0.67213452  -0.00893505  1
  Cu  Cu89  1  0.32938159  0.66871458  -0.00218669  1
  Cu  Cu90  1  0.17302108  0.15930434  0.23679529  1
  Cu  Cu91  1  0.00006595  -0.00899439  0.51049893  1
  Cu  Cu92  1  0.16691950  0.83361320  0.24824607  1
  Cu  Cu93  1  0.83452123  0.83817639  0.24984421  1
  Cu  Cu94  1  -0.00502098  0.66982554  -0.00717723  1
  Cu  Cu95  1  0.15283695  0.50646207  0.24544807  1
  Cu  Cu96  1  0.83257144  0.49661973  0.74602485  1
  Cu  Cu97  1  0.66674498  0.33129314  0.50042529  1
  Cu  Cu98  1  -0.00569868  0.67485526  0.50686814  1
  Cu  Cu99  1  0.50771614  0.49682452  0.74350202  1
  Cu  Cu100  1  0.66546864  0.33575645  -0.00147936  1
  Cu  Cu101  1  0.16162593  0.50377229  0.76703359  1
  Cu  Cu102  1  0.82805995  0.16633917  0.75191615  1
  Cu  Cu103  1  0.50425191  0.49240864  0.26004601  1
  Cu  Cu104  1  0.16551430  0.16235534  0.74942966  1
  Cu  Cu105  1  0.82659750  0.17021874  0.25592207  1
  Cu  Cu106  1  0.50315151  0.16190797  0.25174497  1
  Cu  Cu107  1  0.50055247  0.17023088  0.74545401  1
  Cu  Cu108  1  0.67302072  0.66730734  0.50856114  1
  Cu  Cu109  1  -0.00323585  0.33864270  -0.00140360  1
  Cu  Cu110  1  0.33069909  -0.00337810  -0.00644552  1
  Cu  Cu111  1  -0.01163605  0.33969827  0.50055784  1
  Cu  Cu112  1  0.66496422  -0.00312327  -0.01088904  1
  Cu  Cu113  1  0.67004113  -0.00443946  0.50951090  1
  Cu  Cu114  1  0.50631083  0.84065596  0.25002282  1
  Se  Se115  1  0.07844219  0.07724181  0.04092034  1
  Se  Se116  1  0.08239732  0.07258906  0.56883621  1
  Se  Se117  1  0.08207647  0.41980153  0.05289396  1
  Se  Se118  1  0.07247174  0.41094130  0.56349143  1
  Se  Se119  1  0.07668969  0.75206417  0.05047114  1
  Se  Se120  1  0.08111648  0.75454544  0.55847373  1
  Se  Se121  1  0.41867940  0.07626260  0.04726669  1
  Se  Se122  1  0.42754290  0.06824511  0.54742288  1
  Se  Se123  1  0.41300999  0.41078293  0.06693900  1
  Se  Se124  1  0.41751453  0.41718135  0.55271485  1
  Se  Se125  1  0.41555742  0.73977783  0.06037905  1
  Se  Se126  1  0.41089980  0.74798484  0.56267293  1
  Se  Se127  1  0.73901604  0.07698976  0.05682338  1
  Se  Se128  1  0.75284159  0.08036350  0.56299461  1
  Se  Se129  1  0.74753254  0.42035693  0.05098199  1
  Se  Se130  1  0.75048758  0.41651176  0.55194909  1
  Se  Se131  1  0.76067459  0.75822343  0.04751608  1
  Se  Se132  1  0.74887407  0.75432726  0.56345691  1
  Se  Se133  1  0.24558721  0.24227997  0.04508378  1
  Se  Se134  1  0.25620430  0.25128653  0.55998403  1
  Se  Se135  1  0.24669129  0.58575252  0.05176713  1
  Se  Se136  1  0.24519089  0.58971453  0.57180073  1
  Se  Se137  1  0.25042446  0.91018589  0.04628338  1
  Se  Se138  1  0.24814141  0.92827125  0.55528640  1
  Se  Se139  1  0.58326109  0.25042688  0.05031358  1
  Se  Se140  1  0.58621340  0.24388075  0.55299935  1
  Se  Se141  1  0.59775177  0.59601224  0.05040475  1
  Se  Se142  1  0.58423943  0.58518601  0.55679808  1
  Se  Se143  1  0.58932410  0.92189956  0.05914487  1
  Se  Se144  1  0.59970623  0.91221253  0.57364489  1
  Se  Se145  1  0.92202475  0.25602129  0.06255849  1
  Se  Se146  1  0.91249653  0.24837287  0.55144588  1
  Se  Se147  1  0.91617807  0.58545332  0.05020368  1
  Se  Se148  1  0.91260939  0.58387373  0.55296102  1
  Se  Se149  1  0.91623282  0.92835195  0.04871228  1
  Se  Se150  1  0.91132312  0.91229576  0.56127698  1
  Se  Se151  1  0.07252157  0.25999874  0.44153440  1
  Se  Se152  1  0.07943321  0.25133486  0.94974597  1
  Se  Se153  1  0.07154890  0.59237440  0.44098926  1
  Se  Se154  1  0.08523479  0.58553905  0.94527145  1
  Se  Se155  1  0.08469491  0.91636342  0.45115946  1
  Se  Se156  1  0.09508950  0.89817830  0.92360726  1
  Se  Se157  1  0.42369359  0.24193633  0.45240021  1
  Se  Se158  1  0.40171250  0.26784238  0.94739981  1
  Se  Se159  1  0.41115177  0.58126634  0.46294654  1
  Se  Se160  1  0.41683211  0.59332379  0.94147393  1
  Se  Se161  1  0.41612699  0.91987651  0.43902592  1
  Se  Se162  1  0.41331973  0.91835350  0.93272615  1
  Se  Se163  1  0.74953105  0.24714243  0.44581300  1
  Se  Se164  1  0.74429410  0.25451138  0.93688081  1
  Se  Se165  1  0.74997042  0.58563866  0.44730923  1
  Se  Se166  1  0.76209618  0.58348113  0.93910948  1
  Se  Se167  1  0.75227158  0.91275922  0.45457847  1
  Se  Se168  1  0.74422198  0.91287334  0.93552759  1
  Se  Se169  1  0.25207255  0.07891606  0.43701383  1
  Se  Se170  1  0.24687699  0.07614615  0.93740310  1
  Se  Se171  1  0.25303361  0.40827448  0.44375917  1
  Se  Se172  1  0.25434182  0.42526211  0.95717144  1
  Se  Se173  1  0.25960101  0.73387331  0.44730930  1
  Se  Se174  1  0.24675396  0.75480970  0.94745629  1
  Se  Se175  1  0.59028143  0.07607839  0.44951509  1
  Se  Se176  1  0.57730826  0.08261176  0.94399427  1
  Se  Se177  1  0.58236481  0.41922190  0.44977703  1
  Se  Se178  1  0.59353460  0.41980721  0.93407104  1
  Se  Se179  1  0.59190202  0.74417317  0.44362646  1
  Se  Se180  1  0.59911612  0.75145469  0.93549395  1
  Se  Se181  1  0.92182367  0.08080947  0.45719655  1
  Se  Se182  1  0.91998053  0.07340190  0.93908720  1
  Se  Se183  1  0.90904928  0.42369255  0.44565000  1
  Se  Se184  1  0.90946833  0.42199829  0.95148098  1
  Se  Se185  1  0.91246433  0.75420293  0.44754762  1
  Se  Se186  1  0.92147767  0.75252503  0.93171697  1
  Se  Se187  1  0.24901362  0.23841815  0.30165977  1
  Se  Se188  1  0.24189127  0.24279621  0.81201644  1
  Se  Se189  1  0.23947069  0.57550678  0.30924165  1
  Se  Se190  1  0.24453887  0.58740964  0.82005679  1
  Se  Se191  1  0.25232133  0.91300689  0.30276761  1
  Se  Se192  1  0.26226356  0.92424101  0.78792267  1
  Se  Se193  1  0.58378821  0.24596912  0.30613580  1
  Se  Se194  1  0.58195471  0.25288772  0.80129853  1
  Se  Se195  1  0.57588666  0.58644624  0.31430658  1
  Se  Se196  1  0.58788875  0.58313923  0.79637582  1
  Se  Se197  1  0.59048418  0.92429915  0.30128754  1
  Se  Se198  1  0.56874159  0.91186555  0.79352351  1
  Se  Se199  1  0.91364831  0.24183266  0.31607202  1
  Se  Se200  1  0.91198444  0.23975456  0.81568582  1
  Se  Se201  1  0.91346115  0.59380952  0.29831412  1
  Se  Se202  1  0.91638969  0.57652620  0.80192077  1
  Se  Se203  1  0.90961992  0.91761874  0.31527686  1
  Se  Se204  1  0.89393164  0.90091922  0.79339446  1
  Se  Se205  1  0.09112886  0.08559619  0.30154731  1
  Se  Se206  1  0.07953235  0.07899459  0.79900641  1
  Se  Se207  1  0.08339753  0.42169400  0.30951386  1
  Se  Se208  1  0.09033833  0.41410409  0.82395530  1
  Se  Se209  1  0.07923784  0.75709876  0.30273374  1
  Se  Se210  1  0.08415698  0.74593250  0.78947812  1
  Se  Se211  1  0.41697580  0.07952028  0.30256215  1
  Se  Se212  1  0.41575989  0.09270095  0.80239507  1
  Se  Se213  1  0.41874559  0.41700782  0.31873081  1
  Se  Se214  1  0.42786708  0.42389200  0.80861275  1
  Se  Se215  1  0.43119519  0.75963627  0.31325389  1
  Se  Se216  1  0.41696947  0.75504530  0.81451734  1
  Se  Se217  1  0.75243132  0.07974429  0.30910101  1
  Se  Se218  1  0.74580162  0.08041429  0.80396470  1
  Se  Se219  1  0.74772225  0.42199155  0.30365728  1
  Se  Se220  1  0.75077704  0.40959850  0.79754499  1
  Se  Se221  1  0.75424575  0.76141153  0.31280149  1
  Se  Se222  1  0.73292177  0.73148982  0.79655831  1
  Se  Se223  1  0.25299954  0.07292692  0.18604211  1
  Se  Se224  1  0.25487144  0.08482057  0.69684782  1
  Se  Se225  1  0.23699679  0.42474550  0.19065980  1
  Se  Se226  1  0.24227530  0.42634324  0.70481124  1
  Se  Se227  1  0.24750718  0.75483495  0.18605814  1
  Se  Se228  1  0.24983398  0.75980968  0.68818904  1
  Se  Se229  1  0.58615281  0.08264124  0.19368969  1
  Se  Se230  1  0.58489249  0.08261157  0.69791922  1
  Se  Se231  1  0.58705377  0.41712667  0.20125461  1
  Se  Se232  1  0.58960285  0.41076001  0.69319775  1
  Se  Se233  1  0.57717297  0.75872497  0.18573232  1
  Se  Se234  1  0.57269446  0.75550322  0.70759668  1
  Se  Se235  1  0.90899975  0.09782131  0.19134335  1
  Se  Se236  1  0.91536391  0.08537508  0.70122483  1
  Se  Se237  1  0.90517892  0.42809089  0.18718898  1
  Se  Se238  1  0.91296122  0.41224562  0.68787242  1
  Se  Se239  1  0.91750589  0.75788119  0.19458778  1
  Se  Se240  1  0.93808781  0.72705978  0.69821489  1
  Se  Se241  1  0.08874037  0.24805424  0.18930257  1
  Se  Se242  1  0.08795077  0.24441410  0.68971921  1
  Se  Se243  1  0.07422409  0.59500971  0.19597494  1
  Se  Se244  1  0.08074534  0.57843859  0.70607484  1
  Se  Se245  1  0.09096830  0.91143882  0.18326294  1
  Se  Se246  1  0.06183964  0.93209108  0.69922303  1
  Se  Se247  1  0.42233535  0.23794054  0.18610418  1
  Se  Se248  1  0.41902256  0.24418672  0.68150084  1
  Se  Se249  1  0.42024850  0.57269105  0.20183360  1
  Se  Se250  1  0.42170622  0.57658222  0.68858273  1
  Se  Se251  1  0.41666366  0.91761021  0.19753746  1
  Se  Se252  1  0.42291179  0.91410807  0.70169364  1
  Se  Se253  1  0.74615743  0.25272555  0.19952959  1
  Se  Se254  1  0.74635003  0.25117251  0.69980629  1
  Se  Se255  1  0.75184438  0.58485277  0.18433621  1
  Se  Se256  1  0.75181204  0.58163625  0.69263506  1
  Se  Se257  1  0.75051321  0.92190585  0.19823106  1
  Se  Se258  1  0.77323519  0.90350655  0.70889240  1
