# generated using pymatgen
data_In86Cu29Se144
_symmetry_space_group_name_H-M   'P 1'
_cell_length_a   17.57328307
_cell_length_b   17.57314695
_cell_length_c   23.42272222
_cell_angle_alpha   89.97642974
_cell_angle_beta   90.00304056
_cell_angle_gamma   89.99183386
_symmetry_Int_Tables_number   1
_chemical_formula_structural   In86Cu29Se144
_chemical_formula_sum   'In86 Cu29 Se144'
_cell_volume   7233.35486331
_cell_formula_units_Z   1
loop_
 _symmetry_equiv_pos_site_id
 _symmetry_equiv_pos_as_xyz
  1  'x, y, z'
loop_
 _atom_site_type_symbol
 _atom_site_label
 _atom_site_symmetry_multiplicity
 _atom_site_fract_x
 _atom_site_fract_y
 _atom_site_fract_z
 _atom_site_occupancy
  In  In0  1  0.01142014  0.16293604  0.11971474  1
  In  In1  1  -0.00211974  0.16935145  0.63478942  1
  In  In2  1  -0.00046722  0.49433707  0.11160704  1
  In  In3  1  -0.00290513  0.51000627  0.63893770  1
  In  In4  1  -0.00415572  0.84570687  0.11225525  1
  In  In5  1  -0.00076525  0.83491900  0.63058526  1
  In  In6  1  0.34787135  0.18339796  0.09784559  1
  In  In7  1  0.32250924  0.15523821  0.62048199  1
  In  In8  1  0.31851225  0.50359993  0.11422508  1
  In  In9  1  0.33521510  0.50240545  0.63119217  1
  In  In10  1  0.33927018  0.82068265  0.11431054  1
  In  In11  1  0.33520553  0.84318658  0.63438120  1
  In  In12  1  0.65158825  0.17761817  0.11471878  1
  In  In13  1  0.66763637  0.16740779  0.63288858  1
  In  In14  1  0.67766190  0.48634629  0.10855646  1
  In  In15  1  0.67455737  0.49232425  0.63858137  1
  In  In16  1  0.66557111  0.83416997  0.11170444  1
  In  In17  1  0.66156328  0.83526114  0.63620749  1
  In  In18  1  0.16184682  0.00325750  0.39105578  1
  In  In19  1  0.17833550  0.01150284  0.86979885  1
  In  In20  1  0.17194857  0.32157182  0.37997143  1
  In  In21  1  0.16256305  0.33422554  0.88252320  1
  In  In22  1  0.18030264  0.66965405  0.38287621  1
  In  In23  1  0.16297932  0.65320455  0.85862530  1
  In  In24  1  0.50130449  -0.00070583  0.38890366  1
  In  In25  1  0.50030476  -0.00604738  0.86660121  1
  In  In26  1  0.48878572  0.33536777  0.37470670  1
  In  In27  1  0.49796754  0.31402689  0.88235213  1
  In  In28  1  0.50788434  0.66358852  0.38399692  1
  In  In29  1  0.51187790  0.68693718  0.85675916  1
  In  In30  1  0.83434533  0.00003562  0.39321276  1
  In  In31  1  0.81952852  -0.00338455  0.85432137  1
  In  In32  1  0.84314862  0.33126496  0.39906753  1
  In  In33  1  0.84424704  0.32939828  0.85771552  1
  In  In34  1  0.82934425  0.66479735  0.39602016  1
  In  In35  1  0.83677661  0.66566206  0.87162212  1
  In  In36  1  0.00661873  0.16857311  0.39534068  1
  In  In37  1  0.00146634  0.17673911  0.85610025  1
  In  In38  1  -0.00914474  0.48956133  0.38283299  1
  In  In39  1  0.00529391  0.49362912  0.86448462  1
  In  In40  1  -0.00526179  0.83821896  0.39452824  1
  In  In41  1  -0.00953412  0.82067073  0.86448279  1
  In  In42  1  0.32936801  0.16876168  0.38278601  1
  In  In43  1  0.34599030  0.14988762  0.89772381  1
  In  In44  1  0.34858280  0.49688392  0.37348139  1
  In  In45  1  0.30927483  0.49654209  0.87323440  1
  In  In46  1  0.33078475  0.83662225  0.39104321  1
  In  In47  1  0.35176299  0.84999961  0.85752962  1
  In  In48  1  0.66473256  0.17193210  0.38833237  1
  In  In49  1  0.66934259  0.15958440  0.85335181  1
  In  In50  1  0.67660783  0.50451052  0.38299989  1
  In  In51  1  0.67857230  0.50574863  0.86882703  1
  In  In52  1  0.66512999  0.83195182  0.39633154  1
  In  In53  1  0.66316978  0.84164281  0.86404008  1
  In  In54  1  0.16515039  0.00996057  0.11228110  1
  In  In55  1  0.16784626  -0.00011919  0.63506383  1
  In  In56  1  0.18150497  0.34496442  0.10354297  1
  In  In57  1  0.16363663  0.31988090  0.62381626  1
  In  In58  1  0.18122235  0.66336309  0.11381895  1
  In  In59  1  0.14746630  0.67515217  0.64459288  1
  In  In60  1  0.49430438  0.00167896  0.10596042  1
  In  In61  1  0.49579621  -0.00386842  0.63419064  1
  In  In62  1  0.50331811  0.31416581  0.11220158  1
  In  In63  1  0.51346543  0.33125080  0.63005629  1
  In  In64  1  0.49072430  0.67351738  0.11264713  1
  In  In65  1  0.48997496  0.68980674  0.64842091  1
  In  In66  1  0.84408781  -0.00160788  0.11184757  1
  In  In67  1  0.83767577  0.00425609  0.63348866  1
  In  In68  1  0.82124826  0.34262831  0.11503030  1
  In  In69  1  0.83349232  0.32889083  0.62944416  1
  In  In70  1  0.83042553  0.66338899  0.11042728  1
  In  In71  1  0.82982478  0.66951725  0.63207498  1
  In  In72  1  0.00016613  0.66683131  0.25040647  1
  In  In73  1  0.50902362  0.50343563  0.50374434  1
  In  In74  1  0.17093204  0.83161227  -0.00860483  1
  In  In75  1  0.16129557  0.50424354  0.50428147  1
  In  In76  1  -0.00106682  0.32812883  0.25634094  1
  In  In77  1  0.33508618  0.66579197  0.24735483  1
  In  In78  1  0.66691925  -0.00325979  0.25140879  1
  In  In79  1  0.83290816  0.16675255  -0.01032673  1
  In  In80  1  0.50243783  0.50993322  -0.01314194  1
  In  In81  1  0.66428071  0.33224399  0.24761136  1
  In  In82  1  0.66606070  0.66188225  0.25650980  1
  In  In83  1  0.33067721  0.32987018  0.76052910  1
  In  In84  1  0.33353312  0.00119413  0.24569215  1
  In  In85  1  0.00436366  0.00234896  0.25745097  1
  Cu  Cu86  1  0.67009076  0.32663928  0.51331135  1
  Cu  Cu87  1  0.66855511  0.67529681  -0.01542985  1
  Cu  Cu88  1  0.17632584  0.17441379  0.24978857  1
  Cu  Cu89  1  0.50066695  0.82952003  0.25064168  1
  Cu  Cu90  1  0.33820925  0.32690778  0.50208584  1
  Cu  Cu91  1  0.32978506  0.68016380  0.51567586  1
  Cu  Cu92  1  0.83229350  0.82897815  0.25024051  1
  Cu  Cu93  1  0.83439462  0.83125065  0.74809451  1
  Cu  Cu94  1  0.83008841  0.49744491  0.25098357  1
  Cu  Cu95  1  -0.00325708  0.67030166  0.51391678  1
  Cu  Cu96  1  0.83679481  0.50026649  0.75047606  1
  Cu  Cu97  1  0.16220813  0.83862561  0.25674408  1
  Cu  Cu98  1  0.49164721  0.16610998  0.24145483  1
  Cu  Cu99  1  0.16739621  0.49252139  0.24029546  1
  Cu  Cu100  1  0.16571959  0.83492079  0.75183907  1
  Cu  Cu101  1  0.33547066  0.67436809  -0.01708352  1
  Cu  Cu102  1  0.49251027  0.48504406  0.24560856  1
  Cu  Cu103  1  0.17034394  0.16460386  0.75200434  1
  Cu  Cu104  1  -0.01264183  -0.01099328  -0.01751305  1
  Cu  Cu105  1  0.50196347  0.50044208  0.75459954  1
  Cu  Cu106  1  0.65895448  0.67013895  0.51749204  1
  Cu  Cu107  1  0.66434071  0.00041686  -0.01551402  1
  Cu  Cu108  1  0.33589514  -0.00135316  0.51004026  1
  Cu  Cu109  1  0.00282548  0.00065563  0.51600896  1
  Cu  Cu110  1  -0.00439351  0.33336379  -0.01269849  1
  Cu  Cu111  1  0.66851134  0.00004584  0.51581831  1
  Cu  Cu112  1  0.00177083  0.66069464  -0.01428009  1
  Cu  Cu113  1  0.49318603  0.16462913  0.75064181  1
  Cu  Cu114  1  0.83207113  0.16428281  0.25337113  1
  Se  Se115  1  0.06399692  0.06893040  0.04461242  1
  Se  Se116  1  0.08537640  0.08627653  0.56750914  1
  Se  Se117  1  0.08190828  0.41632713  0.04161969  1
  Se  Se118  1  0.07549162  0.41736599  0.56613215  1
  Se  Se119  1  0.07644019  0.74114489  0.05322857  1
  Se  Se120  1  0.08529450  0.75139729  0.56184216  1
  Se  Se121  1  0.42833689  0.09298472  0.03746121  1
  Se  Se122  1  0.42244329  0.08242278  0.55960005  1
  Se  Se123  1  0.42346680  0.42511127  0.05940531  1
  Se  Se124  1  0.41517338  0.41062414  0.56032943  1
  Se  Se125  1  0.42078133  0.75412694  0.03679863  1
  Se  Se126  1  0.42022803  0.75773533  0.56480685  1
  Se  Se127  1  0.73911723  0.07814756  0.05383046  1
  Se  Se128  1  0.75253635  0.08543775  0.56367450  1
  Se  Se129  1  0.75922490  0.41793982  0.03439101  1
  Se  Se130  1  0.74867985  0.41791719  0.56108806  1
  Se  Se131  1  0.75194674  0.75336957  0.04616640  1
  Se  Se132  1  0.74642694  0.75470418  0.56486034  1
  Se  Se133  1  0.21451334  0.21590400  0.05914824  1
  Se  Se134  1  0.24938589  0.24710168  0.55179656  1
  Se  Se135  1  0.25308895  0.58786139  0.03664811  1
  Se  Se136  1  0.24880741  0.59277694  0.56764897  1
  Se  Se137  1  0.25996852  0.92110659  0.05413661  1
  Se  Se138  1  0.24872613  0.91828996  0.56238673  1
  Se  Se139  1  0.59833282  0.26417339  0.03742923  1
  Se  Se140  1  0.58007425  0.24289929  0.55767071  1
  Se  Se141  1  0.59598198  0.59555840  0.05372169  1
  Se  Se142  1  0.58067319  0.58777881  0.57677867  1
  Se  Se143  1  0.58463425  0.91822018  0.04482647  1
  Se  Se144  1  0.58134250  0.91568607  0.56312639  1
  Se  Se145  1  0.92258712  0.25545649  0.05680304  1
  Se  Se146  1  0.91606313  0.24565017  0.56203746  1
  Se  Se147  1  0.91869491  0.58171695  0.04675481  1
  Se  Se148  1  0.91552082  0.58459336  0.56465954  1
  Se  Se149  1  0.90587964  0.90809157  0.03800314  1
  Se  Se150  1  0.91406540  0.91740423  0.56296772  1
  Se  Se151  1  0.07712861  0.27033577  0.45277818  1
  Se  Se152  1  0.07401982  0.24067283  0.94000073  1
  Se  Se153  1  0.07075715  0.59676445  0.44176447  1
  Se  Se154  1  0.08673738  0.57806732  0.93615126  1
  Se  Se155  1  0.08488506  0.91647444  0.45891762  1
  Se  Se156  1  0.07966174  0.91542121  0.92900217  1
  Se  Se157  1  0.42344372  0.24657510  0.44716340  1
  Se  Se158  1  0.39597553  0.26738198  0.95302617  1
  Se  Se159  1  0.40442944  0.59360751  0.45215368  1
  Se  Se160  1  0.41521677  0.59469495  0.92257956  1
  Se  Se161  1  0.41989819  0.91439106  0.45569231  1
  Se  Se162  1  0.42102089  0.91532781  0.94049461  1
  Se  Se163  1  0.75385043  0.24395689  0.45771154  1
  Se  Se164  1  0.74770736  0.25138089  0.92588489  1
  Se  Se165  1  0.74059653  0.58498276  0.46165839  1
  Se  Se166  1  0.75401140  0.58521547  0.94367835  1
  Se  Se167  1  0.75127152  0.91578474  0.45948014  1
  Se  Se168  1  0.75221037  0.91939009  0.93470314  1
  Se  Se169  1  0.25395787  0.08274862  0.45294538  1
  Se  Se170  1  0.24110196  0.07914338  0.95489121  1
  Se  Se171  1  0.26145464  0.41740374  0.44497692  1
  Se  Se172  1  0.25775248  0.40453960  0.94943197  1
  Se  Se173  1  0.24390068  0.75623207  0.45768830  1
  Se  Se174  1  0.25309295  0.75018669  0.92212496  1
  Se  Se175  1  0.58852833  0.08033987  0.45360862  1
  Se  Se176  1  0.58839446  0.08587498  0.92845338  1
  Se  Se177  1  0.59360073  0.40407729  0.44388988  1
  Se  Se178  1  0.59080021  0.41432562  0.93385582  1
  Se  Se179  1  0.57577362  0.74798194  0.45796104  1
  Se  Se180  1  0.58248249  0.75956261  0.93756462  1
  Se  Se181  1  0.92090541  0.08254732  0.45784001  1
  Se  Se182  1  0.91584441  0.07878688  0.92483171  1
  Se  Se183  1  0.90362675  0.43614824  0.45969701  1
  Se  Se184  1  0.91466400  0.41404149  0.93234817  1
  Se  Se185  1  0.91067293  0.75354720  0.45936416  1
  Se  Se186  1  0.91591764  0.75042081  0.94401557  1
  Se  Se187  1  0.25933234  0.25296165  0.30653650  1
  Se  Se188  1  0.24903507  0.23487930  0.82018194  1
  Se  Se189  1  0.24271934  0.57339400  0.30597752  1
  Se  Se190  1  0.25856346  0.58164928  0.79293248  1
  Se  Se191  1  0.24463187  0.91689981  0.31482025  1
  Se  Se192  1  0.25018248  0.92315634  0.79882107  1
  Se  Se193  1  0.57629509  0.23867541  0.30638686  1
  Se  Se194  1  0.57577688  0.25264811  0.80024319  1
  Se  Se195  1  0.57118400  0.56362805  0.30943432  1
  Se  Se196  1  0.59002901  0.58494339  0.80144554  1
  Se  Se197  1  0.57955812  0.90550264  0.31408201  1
  Se  Se198  1  0.58887946  0.92725334  0.79309296  1
  Se  Se199  1  0.90826732  0.24077332  0.31799038  1
  Se  Se200  1  0.89963264  0.22980064  0.78526427  1
  Se  Se201  1  0.90569763  0.58090559  0.31223260  1
  Se  Se202  1  0.92066460  0.58458865  0.80288982  1
  Se  Se203  1  0.90889011  0.91047743  0.31319494  1
  Se  Se204  1  0.92042374  0.91690197  0.79808222  1
  Se  Se205  1  0.09430817  0.09816924  0.31317888  1
  Se  Se206  1  0.08325328  0.07798868  0.80022106  1
  Se  Se207  1  0.09057971  0.42428893  0.31099207  1
  Se  Se208  1  0.08443891  0.39907616  0.80297239  1
  Se  Se209  1  0.08573306  0.75655272  0.31650367  1
  Se  Se210  1  0.08070455  0.74561781  0.79755588  1
  Se  Se211  1  0.42477207  0.08412648  0.30998182  1
  Se  Se212  1  0.41023199  0.08848138  0.80969836  1
  Se  Se213  1  0.40760653  0.40608007  0.29841462  1
  Se  Se214  1  0.42370516  0.42149784  0.81716134  1
  Se  Se215  1  0.42094222  0.75331736  0.31435927  1
  Se  Se216  1  0.41229113  0.74986065  0.79084389  1
  Se  Se217  1  0.75456088  0.08585519  0.31505025  1
  Se  Se218  1  0.76804528  0.09953012  0.78372924  1
  Se  Se219  1  0.75721536  0.41297272  0.31354269  1
  Se  Se220  1  0.75056525  0.41524974  0.79923021  1
  Se  Se221  1  0.75511700  0.75441088  0.31614725  1
  Se  Se222  1  0.75265157  0.75089533  0.80532510  1
  Se  Se223  1  0.24606443  0.09097068  0.18552329  1
  Se  Se224  1  0.25684893  0.08142611  0.70202573  1
  Se  Se225  1  0.25246362  0.41278966  0.18707337  1
  Se  Se226  1  0.24563481  0.41299182  0.69117436  1
  Se  Se227  1  0.24055388  0.76165345  0.19182764  1
  Se  Se228  1  0.25058310  0.75274581  0.69865221  1
  Se  Se229  1  0.57567385  0.08386625  0.18635149  1
  Se  Se230  1  0.58040149  0.08399448  0.69966695  1
  Se  Se231  1  0.57969420  0.42067045  0.18203508  1
  Se  Se232  1  0.58359358  0.41357224  0.70432202  1
  Se  Se233  1  0.58029498  0.75096578  0.18917557  1
  Se  Se234  1  0.59334158  0.74937075  0.71143045  1
  Se  Se235  1  0.91196165  0.08782664  0.19107136  1
  Se  Se236  1  0.90495276  0.09848175  0.70600793  1
  Se  Se237  1  0.91128287  0.41948659  0.19038535  1
  Se  Se238  1  0.91743053  0.41343271  0.69876408  1
  Se  Se239  1  0.91323003  0.75669931  0.18596281  1
  Se  Se240  1  0.92077194  0.74664581  0.69920330  1
  Se  Se241  1  0.09065167  0.25055656  0.18961655  1
  Se  Se242  1  0.08669106  0.25116054  0.70291752  1
  Se  Se243  1  0.09021240  0.57922030  0.18419478  1
  Se  Se244  1  0.09433067  0.56970570  0.70914272  1
  Se  Se245  1  0.08859922  0.91414844  0.18889210  1
  Se  Se246  1  0.07939595  0.91862458  0.70077123  1
  Se  Se247  1  0.41263708  0.24896888  0.18539372  1
  Se  Se248  1  0.41405114  0.24580248  0.68909075  1
  Se  Se249  1  0.42455563  0.57616249  0.18533928  1
  Se  Se250  1  0.41697295  0.58048711  0.70105601  1
  Se  Se251  1  0.42426190  0.90731361  0.18654023  1
  Se  Se252  1  0.42540816  0.90918031  0.70730025  1
  Se  Se253  1  0.75686153  0.24046335  0.18712225  1
  Se  Se254  1  0.72994299  0.27080350  0.69641817  1
  Se  Se255  1  0.75242067  0.57577721  0.18835150  1
  Se  Se256  1  0.74952599  0.58669014  0.70304917  1
  Se  Se257  1  0.75903107  0.91223901  0.18687665  1
  Se  Se258  1  0.75209063  0.91928034  0.69918686  1
