# generated using pymatgen
data_In86Cu29Se144
_symmetry_space_group_name_H-M   'P 1'
_cell_length_a   17.58210037
_cell_length_b   17.58443429
_cell_length_c   23.44044955
_cell_angle_alpha   89.98192202
_cell_angle_beta   89.98885321
_cell_angle_gamma   90.02735754
_symmetry_Int_Tables_number   1
_chemical_formula_structural   In86Cu29Se144
_chemical_formula_sum   'In86 Cu29 Se144'
_cell_volume   7247.11266903
_cell_formula_units_Z   1
loop_
 _symmetry_equiv_pos_site_id
 _symmetry_equiv_pos_as_xyz
  1  'x, y, z'
loop_
 _atom_site_type_symbol
 _atom_site_label
 _atom_site_symmetry_multiplicity
 _atom_site_fract_x
 _atom_site_fract_y
 _atom_site_fract_z
 _atom_site_occupancy
  In  In0  1  0.01063724  0.15689207  0.13618072  1
  In  In1  1  0.00567886  0.17817436  0.61712609  1
  In  In2  1  -0.01618082  0.50665301  0.12230989  1
  In  In3  1  0.00207116  0.49345740  0.63553994  1
  In  In4  1  0.00908921  0.83222948  0.11533710  1
  In  In5  1  -0.00916611  0.82314411  0.61878440  1
  In  In6  1  0.32662269  0.15634898  0.12435085  1
  In  In7  1  0.32868215  0.15868257  0.60380345  1
  In  In8  1  0.34562992  0.50334953  0.12952639  1
  In  In9  1  0.31908235  0.50861370  0.61896261  1
  In  In10  1  0.33141790  0.83802283  0.13192392  1
  In  In11  1  0.32628836  0.82936408  0.61415716  1
  In  In12  1  0.66539292  0.18195950  0.12736395  1
  In  In13  1  0.67482225  0.17153451  0.61290445  1
  In  In14  1  0.67516711  0.49334639  0.12748334  1
  In  In15  1  0.66735294  0.49914535  0.64197396  1
  In  In16  1  0.65845463  0.82080950  0.12130453  1
  In  In17  1  0.67488742  0.81572396  0.62516509  1
  In  In18  1  0.16934792  0.00240022  0.37578718  1
  In  In19  1  0.16428107  -0.00246117  0.88153560  1
  In  In20  1  0.15620521  0.33784488  0.37792163  1
  In  In21  1  0.14903506  0.33441399  0.87650996  1
  In  In22  1  0.18091136  0.66547083  0.38764806  1
  In  In23  1  0.16485598  0.67904347  0.87716793  1
  In  In24  1  0.49542818  0.02176287  0.36779927  1
  In  In25  1  0.49670279  0.00076332  0.88751882  1
  In  In26  1  0.50537280  0.31601540  0.36803654  1
  In  In27  1  0.50629275  0.32660199  0.87531817  1
  In  In28  1  0.50502594  0.67277038  0.36937881  1
  In  In29  1  0.51400813  0.66284368  0.87788143  1
  In  In30  1  0.84573281  -0.00922902  0.37873652  1
  In  In31  1  0.82294557  -0.00678375  0.87920252  1
  In  In32  1  0.82469367  0.32818679  0.36919459  1
  In  In33  1  0.84134391  0.35056441  0.85786131  1
  In  In34  1  0.83227714  0.67752765  0.37802348  1
  In  In35  1  0.83505608  0.66668192  0.87418218  1
  In  In36  1  0.00058751  0.16696690  0.37681966  1
  In  In37  1  -0.00633432  0.18042995  0.87555210  1
  In  In38  1  0.01212083  0.50212676  0.37568955  1
  In  In39  1  -0.01233542  0.49561509  0.86636922  1
  In  In40  1  -0.00009376  0.84170994  0.37678112  1
  In  In41  1  0.00678058  0.82010297  0.88550021  1
  In  In42  1  0.34320943  0.15108584  0.38692715  1
  In  In43  1  0.33715856  0.16034768  0.87963872  1
  In  In44  1  0.32513922  0.50382251  0.37765430  1
  In  In45  1  0.33698428  0.49911928  0.87639584  1
  In  In46  1  0.32385133  0.82847043  0.37096126  1
  In  In47  1  0.32701365  0.83745990  0.88675657  1
  In  In48  1  0.66075709  0.17744428  0.37866012  1
  In  In49  1  0.65788911  0.16763227  0.87668203  1
  In  In50  1  0.67181174  0.50234410  0.36995633  1
  In  In51  1  0.69125426  0.52687446  0.84488291  1
  In  In52  1  0.67610566  0.82940977  0.37501727  1
  In  In53  1  0.68196679  0.81851006  0.89021061  1
  In  In54  1  0.16465461  -0.00218512  0.13076178  1
  In  In55  1  0.16737595  -0.00212577  0.60926506  1
  In  In56  1  0.17103161  0.31571135  0.12754846  1
  In  In57  1  0.15957714  0.32857132  0.61761273  1
  In  In58  1  0.16178665  0.69001167  0.12490042  1
  In  In59  1  0.16028629  0.65451032  0.60988593  1
  In  In60  1  0.49238133  -0.00713123  0.12538629  1
  In  In61  1  0.48897799  0.00050209  0.61549793  1
  In  In62  1  0.51465673  0.33564587  0.12397873  1
  In  In63  1  0.51180749  0.32879632  0.62395795  1
  In  In64  1  0.49159985  0.67436584  0.13523289  1
  In  In65  1  0.51006851  0.66767018  0.63213194  1
  In  In66  1  0.84963350  -0.00124682  0.13010702  1
  In  In67  1  0.82939527  -0.00345356  0.61276676  1
  In  In68  1  0.82883236  0.33963709  0.12914575  1
  In  In69  1  0.83797097  0.33499341  0.63332258  1
  In  In70  1  0.83237279  0.65266645  0.11400651  1
  In  In71  1  0.82883984  0.66901941  0.63587919  1
  In  In72  1  0.16146190  0.49988733  -0.00020577  1
  In  In73  1  0.00020376  0.66888440  0.24732340  1
  In  In74  1  0.34008495  0.33185051  0.75293969  1
  In  In75  1  0.33421878  0.33120521  0.25195999  1
  In  In76  1  0.33800744  0.66594121  0.74576702  1
  In  In77  1  0.83484148  0.50330851  0.50951431  1
  In  In78  1  0.50081232  0.50001906  0.50847336  1
  In  In79  1  0.66182262  -0.00130850  0.75339991  1
  In  In80  1  0.50667244  0.49790688  -0.00263597  1
  In  In81  1  0.32954483  -0.00328277  0.73325122  1
  In  In82  1  0.66711576  0.00644611  0.25032046  1
  In  In83  1  -0.00281037  0.00175846  0.74385499  1
  In  In84  1  0.50112327  0.83434896  0.49706298  1
  In  In85  1  0.83314497  0.16216284  0.00303000  1
  Cu  Cu86  1  0.16087113  0.83071163  0.75085639  1
  Cu  Cu87  1  0.33391751  0.31842355  -0.00017549  1
  Cu  Cu88  1  0.67527699  0.33589149  -0.00101627  1
  Cu  Cu89  1  0.50828526  0.82879493  0.75624128  1
  Cu  Cu90  1  -0.00540025  0.33863116  0.50355842  1
  Cu  Cu91  1  0.00601636  -0.00423124  0.00608692  1
  Cu  Cu92  1  0.16391102  0.16528300  0.25578059  1
  Cu  Cu93  1  0.66499732  0.33039402  0.49754980  1
  Cu  Cu94  1  0.83172911  0.82956673  0.25173615  1
  Cu  Cu95  1  0.33079806  0.67662684  0.00902741  1
  Cu  Cu96  1  0.15740249  0.17629712  0.74630142  1
  Cu  Cu97  1  0.49531752  0.83702199  0.25003430  1
  Cu  Cu98  1  0.50476340  0.50527534  0.25028921  1
  Cu  Cu99  1  0.83897474  0.16841603  0.25278987  1
  Cu  Cu100  1  0.83618688  0.82847179  0.75350305  1
  Cu  Cu101  1  -0.00197334  0.32913203  -0.00113336  1
  Cu  Cu102  1  0.49766941  0.16325950  0.74699194  1
  Cu  Cu103  1  0.16671689  0.83647218  0.25058972  1
  Cu  Cu104  1  0.66821730  -0.00150329  0.49127368  1
  Cu  Cu105  1  0.00509605  0.67427922  0.49859608  1
  Cu  Cu106  1  0.32811423  0.33450851  0.49141050  1
  Cu  Cu107  1  0.32946527  -0.00169631  0.00739968  1
  Cu  Cu108  1  0.66009080  -0.00169502  0.00556339  1
  Cu  Cu109  1  0.66767760  0.66282071  -0.00242816  1
  Cu  Cu110  1  0.83261821  0.49877376  0.24678388  1
  Cu  Cu111  1  0.16556201  0.50298974  0.25628465  1
  Cu  Cu112  1  0.83150567  0.17611446  0.74397425  1
  Cu  Cu113  1  0.16153711  0.50117951  0.74866169  1
  Cu  Cu114  1  0.00149981  0.00155875  0.49576406  1
  Se  Se115  1  0.08544572  0.08301456  0.05847932  1
  Se  Se116  1  0.08120467  0.08771600  0.55030080  1
  Se  Se117  1  0.07861263  0.40607773  0.06250115  1
  Se  Se118  1  0.07893022  0.42283604  0.55611983  1
  Se  Se119  1  0.06912538  0.73219636  0.04787461  1
  Se  Se120  1  0.09008152  0.75931090  0.55129145  1
  Se  Se121  1  0.41754667  0.08266863  0.05547986  1
  Se  Se122  1  0.42295449  0.08400002  0.54168412  1
  Se  Se123  1  0.41023995  0.40708296  0.05591809  1
  Se  Se124  1  0.40486512  0.40547558  0.56166859  1
  Se  Se125  1  0.41700390  0.75584418  0.06193973  1
  Se  Se126  1  0.41835884  0.73594607  0.55847535  1
  Se  Se127  1  0.74330640  0.07546702  0.06683075  1
  Se  Se128  1  0.75135180  0.08314361  0.54528540  1
  Se  Se129  1  0.75693173  0.41994133  0.05250329  1
  Se  Se130  1  0.73819765  0.41129801  0.56152526  1
  Se  Se131  1  0.74870540  0.74628450  0.05340983  1
  Se  Se132  1  0.76697583  0.75125307  0.55639908  1
  Se  Se133  1  0.24677346  0.24011519  0.05232738  1
  Se  Se134  1  0.24391190  0.25231256  0.54674849  1
  Se  Se135  1  0.25408764  0.58623075  0.06302568  1
  Se  Se136  1  0.25600882  0.58890942  0.54234192  1
  Se  Se137  1  0.24597091  0.91438038  0.06032189  1
  Se  Se138  1  0.27777614  0.93874196  0.55257013  1
  Se  Se139  1  0.58774526  0.25351007  0.04907761  1
  Se  Se140  1  0.57871996  0.24583769  0.54777078  1
  Se  Se141  1  0.58588751  0.58915729  0.06380821  1
  Se  Se142  1  0.59918328  0.58738543  0.56250401  1
  Se  Se143  1  0.57851331  0.91254777  0.05761410  1
  Se  Se144  1  0.59638618  0.91973665  0.56066444  1
  Se  Se145  1  0.92310910  0.24946889  0.06459542  1
  Se  Se146  1  0.90909717  0.25611968  0.55573506  1
  Se  Se147  1  0.91975014  0.58144787  0.04289975  1
  Se  Se148  1  0.92937283  0.59374020  0.56322443  1
  Se  Se149  1  0.91542520  0.91565561  0.05403816  1
  Se  Se150  1  0.92009028  0.91634443  0.55056025  1
  Se  Se151  1  0.07639802  0.25480962  0.44830272  1
  Se  Se152  1  0.08380343  0.24400680  0.94970138  1
  Se  Se153  1  0.08475722  0.58501988  0.44805352  1
  Se  Se154  1  0.07595837  0.58398088  0.93489666  1
  Se  Se155  1  0.08745973  0.91689982  0.44594684  1
  Se  Se156  1  0.08673433  0.91174646  0.94941088  1
  Se  Se157  1  0.41888668  0.25398460  0.44416930  1
  Se  Se158  1  0.42273681  0.24502765  0.94401013  1
  Se  Se159  1  0.41958858  0.58811631  0.44075900  1
  Se  Se160  1  0.40735077  0.59421289  0.94698688  1
  Se  Se161  1  0.41874174  0.92076914  0.43149402  1
  Se  Se162  1  0.41444899  0.91559765  0.95334166  1
  Se  Se163  1  0.75385195  0.24997608  0.44713389  1
  Se  Se164  1  0.75391773  0.25344490  0.93759622  1
  Se  Se165  1  0.74586697  0.58860715  0.44498574  1
  Se  Se166  1  0.74534778  0.58030218  0.93894183  1
  Se  Se167  1  0.75407619  0.91234064  0.44488482  1
  Se  Se168  1  0.74955273  0.91804453  0.95578653  1
  Se  Se169  1  0.23602571  0.09431010  0.44719120  1
  Se  Se170  1  0.25123873  0.07991069  0.94631174  1
  Se  Se171  1  0.24309064  0.42075132  0.44488145  1
  Se  Se172  1  0.25695308  0.40562139  0.94208877  1
  Se  Se173  1  0.25384639  0.75879229  0.45257222  1
  Se  Se174  1  0.24378035  0.75224744  0.95273629  1
  Se  Se175  1  0.58342954  0.08423505  0.44361735  1
  Se  Se176  1  0.58428361  0.08559955  0.95032034  1
  Se  Se177  1  0.58572914  0.41394152  0.43942232  1
  Se  Se178  1  0.59752249  0.41547900  0.93603552  1
  Se  Se179  1  0.59552741  0.74044956  0.44602840  1
  Se  Se180  1  0.57890439  0.74998221  0.95232923  1
  Se  Se181  1  0.91511613  0.08563664  0.44628339  1
  Se  Se182  1  0.92592219  0.07269250  0.94134102  1
  Se  Se183  1  0.91671083  0.41722074  0.44006600  1
  Se  Se184  1  0.91731509  0.41037911  0.94204554  1
  Se  Se185  1  0.91959093  0.75410678  0.44506164  1
  Se  Se186  1  0.89468085  0.76714239  0.94227884  1
  Se  Se187  1  0.24517262  0.24654679  0.31498439  1
  Se  Se188  1  0.24367548  0.24352597  0.81076192  1
  Se  Se189  1  0.24844734  0.58786654  0.30643608  1
  Se  Se190  1  0.24375242  0.57789549  0.80946897  1
  Se  Se191  1  0.24979156  0.92022491  0.30353820  1
  Se  Se192  1  0.24519354  0.91266218  0.80511968  1
  Se  Se193  1  0.59242909  0.24813247  0.29709569  1
  Se  Se194  1  0.58077345  0.24363960  0.80109553  1
  Se  Se195  1  0.58908377  0.58782379  0.30348894  1
  Se  Se196  1  0.57343453  0.58716210  0.79714939  1
  Se  Se197  1  0.57906145  0.91361219  0.31161383  1
  Se  Se198  1  0.58086849  0.90953223  0.82010600  1
  Se  Se199  1  0.92096912  0.25324427  0.30627163  1
  Se  Se200  1  0.92018336  0.25287568  0.79761012  1
  Se  Se201  1  0.91041717  0.57854617  0.31008739  1
  Se  Se202  1  0.90828655  0.58206527  0.80120759  1
  Se  Se203  1  0.91796053  0.91334298  0.30068614  1
  Se  Se204  1  0.91403710  0.91428190  0.81094083  1
  Se  Se205  1  0.07932752  0.08040813  0.30712980  1
  Se  Se206  1  0.08676597  0.08907120  0.80799555  1
  Se  Se207  1  0.07967162  0.41621974  0.30124031  1
  Se  Se208  1  0.08020930  0.41519408  0.80133464  1
  Se  Se209  1  0.09055547  0.75164320  0.31167641  1
  Se  Se210  1  0.07857047  0.74853309  0.80372874  1
  Se  Se211  1  0.41002121  0.09533036  0.29838303  1
  Se  Se212  1  0.41937696  0.07803273  0.80368143  1
  Se  Se213  1  0.42470933  0.42449404  0.31180149  1
  Se  Se214  1  0.42968001  0.42687451  0.80837641  1
  Se  Se215  1  0.41486711  0.75078856  0.30399935  1
  Se  Se216  1  0.41698497  0.75745892  0.81429610  1
  Se  Se217  1  0.75900010  0.08800175  0.31435509  1
  Se  Se218  1  0.75860479  0.09274106  0.80695106  1
  Se  Se219  1  0.74796741  0.41608505  0.30051423  1
  Se  Se220  1  0.72082312  0.39368719  0.80574722  1
  Se  Se221  1  0.74812860  0.74463259  0.30123434  1
  Se  Se222  1  0.74617605  0.75087925  0.80565187  1
  Se  Se223  1  0.24615275  0.08345444  0.19959006  1
  Se  Se224  1  0.23640283  0.09626916  0.68528907  1
  Se  Se225  1  0.24358827  0.42363289  0.19124641  1
  Se  Se226  1  0.24511931  0.41903605  0.69273427  1
  Se  Se227  1  0.25033702  0.74944082  0.20027731  1
  Se  Se228  1  0.24218629  0.75295126  0.68878242  1
  Se  Se229  1  0.57627424  0.09112813  0.18936683  1
  Se  Se230  1  0.57767472  0.08393241  0.68549023  1
  Se  Se231  1  0.58540763  0.41911317  0.19735430  1
  Se  Se232  1  0.57416746  0.41374548  0.69801686  1
  Se  Se233  1  0.58255879  0.75230308  0.20157525  1
  Se  Se234  1  0.59201072  0.74785884  0.70214793  1
  Se  Se235  1  0.92127111  0.08000517  0.20421168  1
  Se  Se236  1  0.90649394  0.09081852  0.68411412  1
  Se  Se237  1  0.91997234  0.41742410  0.19616405  1
  Se  Se238  1  0.90364967  0.42934059  0.70123486  1
  Se  Se239  1  0.90886906  0.75309976  0.18569782  1
  Se  Se240  1  0.92246466  0.74989122  0.69951497  1
  Se  Se241  1  0.08364235  0.25221603  0.20262731  1
  Se  Se242  1  0.07568344  0.25996145  0.69423808  1
  Se  Se243  1  0.09083692  0.57814421  0.18702892  1
  Se  Se244  1  0.08760846  0.58988737  0.69306851  1
  Se  Se245  1  0.07761162  0.91022083  0.19450027  1
  Se  Se246  1  0.09077435  0.91332811  0.68616987  1
  Se  Se247  1  0.42040456  0.24873828  0.18537238  1
  Se  Se248  1  0.41254633  0.23540738  0.68532093  1
  Se  Se249  1  0.41344447  0.58647243  0.20409680  1
  Se  Se250  1  0.42227918  0.56847696  0.68903271  1
  Se  Se251  1  0.41118407  0.92329784  0.20221357  1
  Se  Se252  1  0.42871624  0.89870306  0.68872395  1
  Se  Se253  1  0.75455158  0.25007284  0.19879952  1
  Se  Se254  1  0.74053216  0.25125394  0.69174721  1
  Se  Se255  1  0.75282464  0.58545704  0.19327014  1
  Se  Se256  1  0.76020174  0.57576140  0.70393145  1
  Se  Se257  1  0.75232989  0.91103816  0.19020352  1
  Se  Se258  1  0.75813979  0.91361451  0.69446414  1
