# generated using pymatgen
data_In86Cu29Se144
_symmetry_space_group_name_H-M   'P 1'
_cell_length_a   17.57718353
_cell_length_b   17.57590553
_cell_length_c   23.44525579
_cell_angle_alpha   90.01922955
_cell_angle_beta   89.99380709
_cell_angle_gamma   90.00786096
_symmetry_Int_Tables_number   1
_chemical_formula_structural   In86Cu29Se144
_chemical_formula_sum   'In86 Cu29 Se144'
_cell_volume   7243.05763735
_cell_formula_units_Z   1
loop_
 _symmetry_equiv_pos_site_id
 _symmetry_equiv_pos_as_xyz
  1  'x, y, z'
loop_
 _atom_site_type_symbol
 _atom_site_label
 _atom_site_symmetry_multiplicity
 _atom_site_fract_x
 _atom_site_fract_y
 _atom_site_fract_z
 _atom_site_occupancy
  In  In0  1  0.00182205  0.18718619  0.12618792  1
  In  In1  1  0.00978109  0.17471483  0.61055310  1
  In  In2  1  -0.00044370  0.49925982  0.12028510  1
  In  In3  1  -0.00557351  0.50647711  0.63268955  1
  In  In4  1  -0.00534701  0.81512839  0.12535830  1
  In  In5  1  -0.00128048  0.82722276  0.62931742  1
  In  In6  1  0.33160689  0.16795616  0.13837514  1
  In  In7  1  0.34142786  0.17472426  0.61635827  1
  In  In8  1  0.33323239  0.50089995  0.12395477  1
  In  In9  1  0.33141657  0.50370552  0.63482930  1
  In  In10  1  0.34454373  0.81944433  0.13069266  1
  In  In11  1  0.33394854  0.81913762  0.62633589  1
  In  In12  1  0.67121169  0.16371152  0.13201831  1
  In  In13  1  0.66230521  0.16718648  0.61319009  1
  In  In14  1  0.65745652  0.48977906  0.11339247  1
  In  In15  1  0.67912359  0.49861449  0.62483982  1
  In  In16  1  0.65769147  0.84471701  0.12943244  1
  In  In17  1  0.65729738  0.83104770  0.62217675  1
  In  In18  1  0.17951563  -0.00298494  0.37688917  1
  In  In19  1  0.16304946  -0.00646366  0.87532701  1
  In  In20  1  0.16008283  0.32511161  0.36846694  1
  In  In21  1  0.17916812  0.34855245  0.86929420  1
  In  In22  1  0.16679799  0.66475858  0.36575135  1
  In  In23  1  0.15761994  0.65823738  0.86719829  1
  In  In24  1  0.50279927  -0.00029520  0.37432108  1
  In  In25  1  0.48870712  -0.00079188  0.87694074  1
  In  In26  1  0.49175184  0.32327958  0.36692056  1
  In  In27  1  0.50216462  0.34698019  0.87598807  1
  In  In28  1  0.49961611  0.67873055  0.37689403  1
  In  In29  1  0.50078466  0.66580598  0.87831965  1
  In  In30  1  0.83480983  0.01864210  0.37457030  1
  In  In31  1  0.83606037  0.01109701  0.87523957  1
  In  In32  1  0.83492969  0.33344516  0.37194335  1
  In  In33  1  0.83499547  0.32704019  0.88072505  1
  In  In34  1  0.82773485  0.64393596  0.37631444  1
  In  In35  1  0.83045558  0.65503570  0.87139597  1
  In  In36  1  -0.01551510  0.17649387  0.38847963  1
  In  In37  1  -0.01837508  0.17145285  0.87706817  1
  In  In38  1  -0.00512734  0.48964075  0.36602388  1
  In  In39  1  0.00499674  0.50037267  0.87411117  1
  In  In40  1  0.01073467  0.82743501  0.37242387  1
  In  In41  1  0.00609128  0.80908553  0.87415631  1
  In  In42  1  0.33834352  0.16608588  0.37643703  1
  In  In43  1  0.32121342  0.16609816  0.87101412  1
  In  In44  1  0.33366581  0.49824202  0.36222192  1
  In  In45  1  0.33582280  0.50467937  0.88196290  1
  In  In46  1  0.34095628  0.84305770  0.36682088  1
  In  In47  1  0.34436485  0.83385297  0.87749902  1
  In  In48  1  0.66833811  0.16859501  0.37100744  1
  In  In49  1  0.67174366  0.18997966  0.87699144  1
  In  In50  1  0.68666515  0.50153272  0.37436817  1
  In  In51  1  0.65053301  0.50364542  0.88715195  1
  In  In52  1  0.64575666  0.82745833  0.37845079  1
  In  In53  1  0.66803244  0.81849682  0.87261600  1
  In  In54  1  0.16909490  0.01242400  0.13103801  1
  In  In55  1  0.15635921  0.01162428  0.61997147  1
  In  In56  1  0.15778828  0.34658094  0.13344414  1
  In  In57  1  0.17199991  0.32582035  0.62973830  1
  In  In58  1  0.17519031  0.65332106  0.12088253  1
  In  In59  1  0.17136530  0.67156490  0.64122035  1
  In  In60  1  0.50167605  -0.00537491  0.13160640  1
  In  In61  1  0.50478766  0.00490450  0.61540386  1
  In  In62  1  0.49596280  0.33712382  0.13369836  1
  In  In63  1  0.49490461  0.32378685  0.62645020  1
  In  In64  1  0.47769759  0.65279475  0.10636011  1
  In  In65  1  0.49387304  0.67213134  0.63078773  1
  In  In66  1  0.81490614  0.00119861  0.13217478  1
  In  In67  1  0.83013715  0.00521732  0.61721464  1
  In  In68  1  0.83561125  0.33984053  0.12283383  1
  In  In69  1  0.83858875  0.34373882  0.61828367  1
  In  In70  1  0.84148588  0.65576163  0.12734735  1
  In  In71  1  0.83868778  0.65841545  0.63091716  1
  In  In72  1  0.50448153  0.17393338  0.00197837  1
  In  In73  1  0.83583130  0.83582572  0.50276320  1
  In  In74  1  0.16414289  0.17407858  0.00394067  1
  In  In75  1  0.00333940  0.00258785  0.25757422  1
  In  In76  1  0.66060389  0.66826790  0.25277713  1
  In  In77  1  0.66597934  0.00147221  0.73522118  1
  In  In78  1  0.16712906  0.49799182  0.50467462  1
  In  In79  1  0.16819837  0.82502878  -0.00092621  1
  In  In80  1  0.17147968  0.83729944  0.50344706  1
  In  In81  1  0.00002414  -0.00375055  0.74484524  1
  In  In82  1  0.82650934  0.83016346  -0.00325918  1
  In  In83  1  0.50491184  0.49642456  0.50183634  1
  In  In84  1  0.66193610  0.34150840  0.75222954  1
  In  In85  1  0.33196971  -0.00141454  0.75228473  1
  Cu  Cu86  1  0.16577852  0.49477562  0.75444486  1
  Cu  Cu87  1  0.66845762  0.33010523  0.49445356  1
  Cu  Cu88  1  0.33975806  0.67314237  0.50071092  1
  Cu  Cu89  1  0.49380932  0.83174194  0.25008918  1
  Cu  Cu90  1  0.83177447  0.17584988  0.74697022  1
  Cu  Cu91  1  0.84053996  0.82302661  0.75199989  1
  Cu  Cu92  1  0.17391095  0.16854962  0.25594025  1
  Cu  Cu93  1  -0.00427300  0.65723599  0.50275598  1
  Cu  Cu94  1  0.66257140  0.67210960  -0.00011335  1
  Cu  Cu95  1  0.50402770  0.16228102  0.25296862  1
  Cu  Cu96  1  0.82965041  0.82924603  0.24686864  1
  Cu  Cu97  1  0.16051172  0.17378757  0.74771877  1
  Cu  Cu98  1  0.16367754  0.82655292  0.24709626  1
  Cu  Cu99  1  0.66881512  0.00409661  0.49504074  1
  Cu  Cu100  1  0.33647623  -0.00645123  0.00615151  1
  Cu  Cu101  1  0.34139250  0.00149355  0.49398171  1
  Cu  Cu102  1  0.50248388  0.50031531  0.24227780  1
  Cu  Cu103  1  0.32799127  0.32661597  0.49782475  1
  Cu  Cu104  1  0.33598028  0.34139310  0.00299576  1
  Cu  Cu105  1  -0.00734456  0.33743903  0.49579917  1
  Cu  Cu106  1  -0.01419522  -0.00125184  0.00088207  1
  Cu  Cu107  1  0.49547129  0.50713397  0.75750216  1
  Cu  Cu108  1  0.83839637  0.49332475  0.24618585  1
  Cu  Cu109  1  0.83598807  0.49842554  0.75183964  1
  Cu  Cu110  1  0.00060117  0.34090140  -0.00022012  1
  Cu  Cu111  1  0.16881656  0.50166370  0.24327404  1
  Cu  Cu112  1  0.66223239  0.00485020  0.00661927  1
  Cu  Cu113  1  0.50382834  0.83149241  0.75092067  1
  Cu  Cu114  1  0.83762860  0.17494398  0.25055764  1
  Se  Se115  1  0.07079837  0.07749234  0.05909238  1
  Se  Se116  1  0.08256855  0.08320696  0.54382991  1
  Se  Se117  1  0.08913617  0.41883070  0.05253660  1
  Se  Se118  1  0.07413432  0.40978519  0.56197600  1
  Se  Se119  1  0.07402583  0.73413798  0.05363246  1
  Se  Se120  1  0.08137309  0.73757694  0.55854309  1
  Se  Se121  1  0.41046248  0.08462150  0.06159303  1
  Se  Se122  1  0.42101497  0.08790805  0.54905459  1
  Se  Se123  1  0.42319897  0.41706677  0.05802842  1
  Se  Se124  1  0.40303089  0.41338192  0.55791156  1
  Se  Se125  1  0.41601949  0.75967477  0.04683236  1
  Se  Se126  1  0.42376780  0.75490083  0.55307887  1
  Se  Se127  1  0.75001603  0.08530812  0.05609616  1
  Se  Se128  1  0.75198434  0.08799884  0.54760921  1
  Se  Se129  1  0.78067871  0.45058642  0.05908569  1
  Se  Se130  1  0.74775714  0.41638623  0.54886913  1
  Se  Se131  1  0.74175387  0.74560271  0.06596947  1
  Se  Se132  1  0.74977329  0.74333577  0.56126994  1
  Se  Se133  1  0.25732548  0.25866655  0.06407333  1
  Se  Se134  1  0.24286015  0.24652898  0.55206586  1
  Se  Se135  1  0.26572184  0.58858429  0.05006224  1
  Se  Se136  1  0.25584743  0.59585629  0.56021965  1
  Se  Se137  1  0.24882168  0.92023147  0.06416579  1
  Se  Se138  1  0.26400756  0.92757158  0.56251021  1
  Se  Se139  1  0.59189312  0.25862925  0.06502336  1
  Se  Se140  1  0.57903853  0.25650112  0.55043768  1
  Se  Se141  1  0.58100534  0.58122493  0.04814996  1
  Se  Se142  1  0.58702124  0.58820586  0.56381067  1
  Se  Se143  1  0.57799495  0.91887860  0.05413543  1
  Se  Se144  1  0.58851118  0.91943486  0.55031979  1
  Se  Se145  1  0.91789472  0.25523631  0.05221183  1
  Se  Se146  1  0.91126258  0.25135481  0.55021368  1
  Se  Se147  1  0.89884312  0.56520429  0.05234310  1
  Se  Se148  1  0.91262394  0.57585637  0.55587267  1
  Se  Se149  1  0.91327864  0.91801739  0.06500720  1
  Se  Se150  1  0.93273817  0.92414114  0.55879064  1
  Se  Se151  1  0.08333499  0.25590470  0.44724699  1
  Se  Se152  1  0.07913673  0.25813376  0.93760048  1
  Se  Se153  1  0.07996306  0.58476282  0.43970665  1
  Se  Se154  1  0.08712605  0.58085382  0.94412363  1
  Se  Se155  1  0.07787135  0.92230139  0.44273513  1
  Se  Se156  1  0.06762548  0.91903185  0.94351410  1
  Se  Se157  1  0.42013650  0.25031709  0.44688212  1
  Se  Se158  1  0.40474202  0.25326592  0.94109050  1
  Se  Se159  1  0.40854630  0.58266380  0.44117677  1
  Se  Se160  1  0.43745438  0.56829687  0.94648628  1
  Se  Se161  1  0.42109561  0.91252419  0.44359931  1
  Se  Se162  1  0.42082522  0.91505556  0.95138663  1
  Se  Se163  1  0.75362302  0.24852846  0.44100981  1
  Se  Se164  1  0.75347323  0.25048091  0.95356887  1
  Se  Se165  1  0.74349708  0.58509430  0.45346728  1
  Se  Se166  1  0.74427038  0.58848930  0.94599076  1
  Se  Se167  1  0.74660268  0.91915529  0.43611393  1
  Se  Se168  1  0.73898754  0.92718078  0.93897789  1
  Se  Se169  1  0.25324114  0.08443722  0.44639104  1
  Se  Se170  1  0.25316400  0.07244046  0.94712612  1
  Se  Se171  1  0.25457338  0.41330990  0.43849197  1
  Se  Se172  1  0.24886157  0.42033365  0.94970801  1
  Se  Se173  1  0.25490021  0.74643964  0.43860361  1
  Se  Se174  1  0.25566903  0.74067826  0.93588607  1
  Se  Se175  1  0.58479981  0.08651397  0.44100680  1
  Se  Se176  1  0.58996387  0.08217840  0.93751642  1
  Se  Se177  1  0.58791577  0.41036249  0.43402486  1
  Se  Se178  1  0.59987712  0.39230098  0.94902552  1
  Se  Se179  1  0.58393364  0.74085639  0.45279024  1
  Se  Se180  1  0.58057054  0.75656536  0.94717220  1
  Se  Se181  1  0.91860502  0.07646936  0.45194799  1
  Se  Se182  1  0.90803314  0.08931536  0.95148151  1
  Se  Se183  1  0.91231797  0.42235997  0.44251990  1
  Se  Se184  1  0.91769583  0.41881862  0.94216796  1
  Se  Se185  1  0.92247788  0.74192123  0.44072195  1
  Se  Se186  1  0.91960024  0.73569899  0.94648923  1
  Se  Se187  1  0.25941619  0.25322700  0.30636007  1
  Se  Se188  1  0.24818026  0.25193040  0.80128056  1
  Se  Se189  1  0.25193482  0.58566556  0.29773094  1
  Se  Se190  1  0.25201779  0.57708623  0.80638441  1
  Se  Se191  1  0.24427750  0.91267624  0.30038152  1
  Se  Se192  1  0.24202522  0.90528501  0.80861574  1
  Se  Se193  1  0.58741086  0.25166525  0.30084087  1
  Se  Se194  1  0.57086614  0.24514613  0.80551315  1
  Se  Se195  1  0.57494209  0.57377416  0.31368122  1
  Se  Se196  1  0.58634422  0.58463910  0.80762288  1
  Se  Se197  1  0.58083306  0.91222048  0.30281467  1
  Se  Se198  1  0.58248809  0.91770461  0.80786044  1
  Se  Se199  1  0.92472992  0.25239305  0.30483986  1
  Se  Se200  1  0.91456351  0.25590269  0.80191923  1
  Se  Se201  1  0.91603985  0.58173406  0.30103197  1
  Se  Se202  1  0.92169529  0.58268932  0.80295952  1
  Se  Se203  1  0.90820617  0.90862329  0.31131027  1
  Se  Se204  1  0.91221456  0.90942226  0.81252094  1
  Se  Se205  1  0.08965712  0.09362096  0.31769535  1
  Se  Se206  1  0.08476536  0.09087782  0.81017644  1
  Se  Se207  1  0.08862039  0.41774254  0.30022287  1
  Se  Se208  1  0.07850920  0.41031580  0.80264743  1
  Se  Se209  1  0.07848316  0.74333824  0.29798471  1
  Se  Se210  1  0.09057139  0.75288910  0.79758175  1
  Se  Se211  1  0.41751664  0.08094839  0.30606093  1
  Se  Se212  1  0.42395932  0.09466509  0.80551780  1
  Se  Se213  1  0.42027991  0.41586787  0.29798767  1
  Se  Se214  1  0.41335890  0.41982705  0.80747579  1
  Se  Se215  1  0.41277554  0.74471962  0.30245625  1
  Se  Se216  1  0.42168944  0.75080854  0.80661238  1
  Se  Se217  1  0.75305199  0.08757386  0.29942297  1
  Se  Se218  1  0.75019528  0.09225563  0.80333755  1
  Se  Se219  1  0.75201084  0.41411704  0.30029965  1
  Se  Se220  1  0.75286360  0.42504707  0.81460122  1
  Se  Se221  1  0.75401476  0.75346417  0.31507805  1
  Se  Se222  1  0.75165382  0.74346587  0.80258555  1
  Se  Se223  1  0.25348478  0.07897852  0.20579048  1
  Se  Se224  1  0.24278911  0.09017326  0.69134892  1
  Se  Se225  1  0.25743229  0.41580627  0.19673843  1
  Se  Se226  1  0.24860152  0.41471908  0.69728215  1
  Se  Se227  1  0.24650936  0.74550547  0.19179160  1
  Se  Se228  1  0.26147912  0.74943706  0.70452848  1
  Se  Se229  1  0.58583453  0.07931791  0.19726537  1
  Se  Se230  1  0.57145573  0.09947688  0.69007247  1
  Se  Se231  1  0.59183617  0.41699894  0.19625150  1
  Se  Se232  1  0.57077034  0.42941207  0.68959577  1
  Se  Se233  1  0.56955276  0.74839447  0.18724111  1
  Se  Se234  1  0.58774234  0.74882523  0.69763212  1
  Se  Se235  1  0.91635405  0.08846574  0.19085488  1
  Se  Se236  1  0.91127067  0.09187951  0.68859944  1
  Se  Se237  1  0.92597308  0.41285347  0.19390304  1
  Se  Se238  1  0.91549339  0.41318789  0.69712530  1
  Se  Se239  1  0.91392511  0.74253497  0.20001712  1
  Se  Se240  1  0.92441384  0.74132694  0.69865520  1
  Se  Se241  1  0.08946999  0.24928036  0.20097392  1
  Se  Se242  1  0.07348941  0.25069231  0.69285417  1
  Se  Se243  1  0.08262325  0.58234626  0.18975593  1
  Se  Se244  1  0.08549796  0.58074866  0.69969266  1
  Se  Se245  1  0.08304136  0.90981256  0.18862857  1
  Se  Se246  1  0.09861179  0.90855578  0.69098294  1
  Se  Se247  1  0.41980568  0.24880145  0.20225943  1
  Se  Se248  1  0.40245030  0.25751917  0.69482965  1
  Se  Se249  1  0.41758956  0.58593944  0.19351744  1
  Se  Se250  1  0.41330831  0.58941080  0.70056019  1
  Se  Se251  1  0.41034521  0.91794081  0.19790690  1
  Se  Se252  1  0.42791623  0.91544819  0.68990409  1
  Se  Se253  1  0.75553880  0.25474928  0.19320856  1
  Se  Se254  1  0.74725335  0.25065930  0.68676820  1
  Se  Se255  1  0.74820068  0.57574603  0.19355864  1
  Se  Se256  1  0.74995104  0.58074934  0.69995760  1
  Se  Se257  1  0.74207592  0.91591646  0.20390176  1
  Se  Se258  1  0.76547363  0.90510995  0.68887485  1
