# generated using pymatgen
data_In86Cu29Se144
_symmetry_space_group_name_H-M   'P 1'
_cell_length_a   17.57229232
_cell_length_b   17.57769916
_cell_length_c   23.42537665
_cell_angle_alpha   90.00706288
_cell_angle_beta   89.98928604
_cell_angle_gamma   90.03412351
_symmetry_Int_Tables_number   1
_chemical_formula_structural   In86Cu29Se144
_chemical_formula_sum   'In86 Cu29 Se144'
_cell_volume   7235.63983779
_cell_formula_units_Z   1
loop_
 _symmetry_equiv_pos_site_id
 _symmetry_equiv_pos_as_xyz
  1  'x, y, z'
loop_
 _atom_site_type_symbol
 _atom_site_label
 _atom_site_symmetry_multiplicity
 _atom_site_fract_x
 _atom_site_fract_y
 _atom_site_fract_z
 _atom_site_occupancy
  In  In0  1  -0.00137729  0.17078033  0.12326670  1
  In  In1  1  0.00119829  0.18095884  0.62669948  1
  In  In2  1  -0.00750549  0.50633839  0.12440248  1
  In  In3  1  -0.00483179  0.49933185  0.63598998  1
  In  In4  1  -0.01225069  0.82917083  0.12097316  1
  In  In5  1  -0.02045055  0.83535605  0.63131098  1
  In  In6  1  0.34235567  0.17174112  0.12403242  1
  In  In7  1  0.34597029  0.15498130  0.62735418  1
  In  In8  1  0.33667013  0.49646178  0.12865005  1
  In  In9  1  0.35004589  0.49838767  0.62583793  1
  In  In10  1  0.33909152  0.82014011  0.12907688  1
  In  In11  1  0.33510839  0.83414780  0.63328086  1
  In  In12  1  0.67692635  0.18220000  0.11472625  1
  In  In13  1  0.65687681  0.15832167  0.62236458  1
  In  In14  1  0.65486293  0.49796198  0.11155804  1
  In  In15  1  0.66519856  0.51173253  0.62714137  1
  In  In16  1  0.66706130  0.82092588  0.09543158  1
  In  In17  1  0.67173264  0.83037556  0.63522749  1
  In  In18  1  0.16481159  0.00973697  0.37713630  1
  In  In19  1  0.18234102  -0.00014554  0.87401768  1
  In  In20  1  0.16602208  0.32234486  0.35713671  1
  In  In21  1  0.15212328  0.33250556  0.87584732  1
  In  In22  1  0.16233882  0.66190362  0.36848971  1
  In  In23  1  0.16391949  0.66225627  0.86902274  1
  In  In24  1  0.51370463  -0.00208756  0.37586640  1
  In  In25  1  0.50376276  -0.00258885  0.87777886  1
  In  In26  1  0.50293160  0.33358925  0.37142600  1
  In  In27  1  0.50716793  0.33381149  0.88478285  1
  In  In28  1  0.48409625  0.66658369  0.36943419  1
  In  In29  1  0.50089343  0.66998383  0.87968598  1
  In  In30  1  0.82622059  0.00248747  0.38232179  1
  In  In31  1  0.81788997  0.00239109  0.88660467  1
  In  In32  1  0.81752707  0.31300504  0.35020360  1
  In  In33  1  0.83526069  0.33163765  0.87995453  1
  In  In34  1  0.83917706  0.66238087  0.37392882  1
  In  In35  1  0.83413248  0.66688858  0.88387527  1
  In  In36  1  -0.00980857  0.16393323  0.36747095  1
  In  In37  1  -0.00983999  0.17884736  0.88324113  1
  In  In38  1  -0.00308488  0.49665619  0.36623793  1
  In  In39  1  -0.00548908  0.49841304  0.87628931  1
  In  In40  1  -0.00640428  0.82154820  0.37468301  1
  In  In41  1  -0.00507236  0.81854124  0.88035020  1
  In  In42  1  0.33092177  0.17847151  0.37416825  1
  In  In43  1  0.34877575  0.15574378  0.88422974  1
  In  In44  1  0.33863755  0.50289296  0.36736601  1
  In  In45  1  0.33378541  0.51364923  0.87443101  1
  In  In46  1  0.34620129  0.82073742  0.36935824  1
  In  In47  1  0.34658099  0.84399214  0.86830151  1
  In  In48  1  0.66310583  0.16844026  0.37489374  1
  In  In49  1  0.67321811  0.15294861  0.88853985  1
  In  In50  1  0.67010344  0.48736270  0.37147272  1
  In  In51  1  0.65976283  0.52871739  0.90199035  1
  In  In52  1  0.66898882  0.84418637  0.37400808  1
  In  In53  1  0.66231800  0.82678532  0.88460003  1
  In  In54  1  0.15928768  0.00807668  0.12060618  1
  In  In55  1  0.17895090  0.00727032  0.62923507  1
  In  In56  1  0.17333105  0.31894515  0.13913015  1
  In  In57  1  0.15654678  0.32549844  0.62582828  1
  In  In58  1  0.16577430  0.67031979  0.12996586  1
  In  In59  1  0.16680045  0.66361376  0.63350046  1
  In  In60  1  0.51153788  -0.00310773  0.10778906  1
  In  In61  1  0.49526122  0.00882381  0.63255576  1
  In  In62  1  0.49958720  0.33730395  0.12451042  1
  In  In63  1  0.50176423  0.33263006  0.61507161  1
  In  In64  1  0.49875396  0.65972604  0.11079669  1
  In  In65  1  0.50475757  0.66501499  0.63303860  1
  In  In66  1  0.82251382  0.00213545  0.11213065  1
  In  In67  1  0.82410604  -0.00666165  0.62375715  1
  In  In68  1  0.83107601  0.32922859  0.13074796  1
  In  In69  1  0.84348414  0.33301351  0.62673310  1
  In  In70  1  0.84472559  0.66872317  0.11366446  1
  In  In71  1  0.82013533  0.67414755  0.63898879  1
  In  In72  1  0.67514607  0.33769230  0.75723756  1
  In  In73  1  0.82877821  0.49475772  0.49899815  1
  In  In74  1  0.17126486  0.16852831  0.50255292  1
  In  In75  1  0.16674121  0.83640964  0.51196552  1
  In  In76  1  0.33459907  0.00064047  0.24632559  1
  In  In77  1  0.50218441  0.83538662  0.49748818  1
  In  In78  1  0.32781752  0.33404792  0.74653674  1
  In  In79  1  0.00076574  -0.00199325  0.75111777  1
  In  In80  1  0.16444020  0.83599844  0.00098974  1
  In  In81  1  0.16360188  0.49664648  -0.00261789  1
  In  In82  1  0.16709208  0.49881821  0.49003043  1
  In  In83  1  0.66322205  0.66677597  0.23318702  1
  In  In84  1  -0.00603012  -0.00180263  0.24019089  1
  In  In85  1  0.66718464  -0.00097048  0.24402771  1
  Cu  Cu86  1  -0.00189784  0.00874720  -0.00144349  1
  Cu  Cu87  1  0.00378603  0.32518380  0.00681949  1
  Cu  Cu88  1  0.83068095  0.82938967  0.24173603  1
  Cu  Cu89  1  0.83652070  0.49964025  0.24541644  1
  Cu  Cu90  1  0.50458184  0.17198764  0.24693425  1
  Cu  Cu91  1  0.66552697  0.33320045  0.00164458  1
  Cu  Cu92  1  0.82893717  0.82977158  0.76005042  1
  Cu  Cu93  1  0.50044396  0.50197829  0.24430925  1
  Cu  Cu94  1  0.50390352  0.50533973  0.75552496  1
  Cu  Cu95  1  0.16810576  0.50129980  0.24560874  1
  Cu  Cu96  1  0.50487096  0.15607828  0.75615492  1
  Cu  Cu97  1  0.67203397  0.00140345  0.50239330  1
  Cu  Cu98  1  0.17031110  0.82974380  0.75562502  1
  Cu  Cu99  1  0.33416373  0.66377527  0.49502227  1
  Cu  Cu100  1  0.83240430  0.50500296  0.76005295  1
  Cu  Cu101  1  -0.00677422  0.33246794  0.49629311  1
  Cu  Cu102  1  0.33522224  0.67153906  -0.00341066  1
  Cu  Cu103  1  0.66607251  0.32757408  0.49206164  1
  Cu  Cu104  1  0.34330745  0.33444826  0.49538031  1
  Cu  Cu105  1  -0.01635898  0.67184117  0.50278883  1
  Cu  Cu106  1  0.16557569  0.16917826  0.75071028  1
  Cu  Cu107  1  0.33385922  0.33537721  0.00811889  1
  Cu  Cu108  1  0.50576483  0.82897833  0.75570791  1
  Cu  Cu109  1  0.16100756  0.50397511  0.75525400  1
  Cu  Cu110  1  0.33514540  0.00169339  -0.00247150  1
  Cu  Cu111  1  0.16885142  0.82727727  0.25209155  1
  Cu  Cu112  1  -0.00695183  -0.00083691  0.50034492  1
  Cu  Cu113  1  0.66253438  0.67054415  0.50984984  1
  Cu  Cu114  1  0.83111522  0.16410965  0.75934910  1
  Se  Se115  1  0.08224546  0.09068269  0.05114627  1
  Se  Se116  1  0.07637579  0.07584286  0.56118993  1
  Se  Se117  1  0.08469875  0.40785080  0.06544649  1
  Se  Se118  1  0.07290500  0.41429535  0.55560986  1
  Se  Se119  1  0.07517189  0.74002049  0.05459092  1
  Se  Se120  1  0.07110512  0.74207427  0.56367866  1
  Se  Se121  1  0.41655139  0.08417084  0.05357693  1
  Se  Se122  1  0.42790792  0.08648674  0.55380522  1
  Se  Se123  1  0.41828630  0.42363732  0.05434349  1
  Se  Se124  1  0.42189985  0.42161281  0.54896511  1
  Se  Se125  1  0.41793732  0.75610628  0.04929207  1
  Se  Se126  1  0.41081025  0.74488395  0.55793343  1
  Se  Se127  1  0.73672147  0.08235496  0.04732844  1
  Se  Se128  1  0.75349955  0.08730348  0.55587592  1
  Se  Se129  1  0.75069900  0.41116900  0.05757032  1
  Se  Se130  1  0.73826715  0.40580272  0.56158404  1
  Se  Se131  1  0.77885850  0.75969633  0.04088537  1
  Se  Se132  1  0.74975810  0.75125204  0.56005680  1
  Se  Se133  1  0.24989647  0.25098103  0.05852440  1
  Se  Se134  1  0.26330987  0.26108609  0.56183683  1
  Se  Se135  1  0.25371695  0.59109119  0.05625158  1
  Se  Se136  1  0.25357552  0.58564258  0.55705192  1
  Se  Se137  1  0.25852690  0.92185808  0.06215242  1
  Se  Se138  1  0.26695785  0.92866275  0.55798145  1
  Se  Se139  1  0.57598850  0.25250220  0.05255924  1
  Se  Se140  1  0.58475368  0.24674362  0.55095452  1
  Se  Se141  1  0.60425871  0.60566056  0.04465609  1
  Se  Se142  1  0.57719149  0.58394094  0.55635261  1
  Se  Se143  1  0.60466850  0.93099014  0.03844421  1
  Se  Se144  1  0.59001196  0.92027206  0.56265998  1
  Se  Se145  1  0.90977470  0.24782689  0.05565526  1
  Se  Se146  1  0.91432515  0.24811147  0.55221414  1
  Se  Se147  1  0.90767925  0.56779383  0.04588493  1
  Se  Se148  1  0.91199334  0.58543719  0.56410941  1
  Se  Se149  1  0.92025598  0.92274353  0.05298884  1
  Se  Se150  1  0.91176106  0.91488169  0.55425368  1
  Se  Se151  1  0.08019405  0.25405542  0.43948069  1
  Se  Se152  1  0.08842593  0.24543408  0.95111823  1
  Se  Se153  1  0.06621669  0.59262320  0.44336525  1
  Se  Se154  1  0.07523573  0.59391061  0.94463070  1
  Se  Se155  1  0.07655234  0.91985765  0.44232719  1
  Se  Se156  1  0.07626192  0.92637340  0.93734067  1
  Se  Se157  1  0.42294977  0.24787024  0.44267594  1
  Se  Se158  1  0.41529763  0.25547382  0.94902249  1
  Se  Se159  1  0.41701421  0.57954248  0.44349476  1
  Se  Se160  1  0.41747571  0.58216723  0.94827301  1
  Se  Se161  1  0.40861256  0.92244866  0.43794999  1
  Se  Se162  1  0.41873881  0.91432889  0.94836417  1
  Se  Se163  1  0.75519626  0.25043568  0.43901552  1
  Se  Se164  1  0.75047783  0.25089399  0.94827151  1
  Se  Se165  1  0.73788153  0.59072798  0.44294304  1
  Se  Se166  1  0.78647842  0.56000397  0.95456993  1
  Se  Se167  1  0.75068732  0.91217483  0.45025709  1
  Se  Se168  1  0.72859347  0.92626403  0.95305151  1
  Se  Se169  1  0.26264846  0.07694296  0.44528402  1
  Se  Se170  1  0.24832278  0.08557691  0.94902187  1
  Se  Se171  1  0.25375418  0.40267833  0.43435170  1
  Se  Se172  1  0.25824291  0.40850503  0.93812521  1
  Se  Se173  1  0.24893941  0.74633552  0.44189106  1
  Se  Se174  1  0.25342691  0.75008027  0.93642923  1
  Se  Se175  1  0.58816607  0.08185507  0.44684319  1
  Se  Se176  1  0.55636370  0.10496750  0.94326492  1
  Se  Se177  1  0.58417397  0.41681309  0.44372291  1
  Se  Se178  1  0.58201448  0.42250502  0.95357629  1
  Se  Se179  1  0.58916983  0.74180721  0.43705213  1
  Se  Se180  1  0.59193503  0.73312277  0.95429485  1
  Se  Se181  1  0.91755498  0.08563223  0.44405644  1
  Se  Se182  1  0.90998419  0.08767863  0.94641220  1
  Se  Se183  1  0.91288719  0.40774542  0.43347352  1
  Se  Se184  1  0.92686610  0.40755267  0.94771084  1
  Se  Se185  1  0.90390180  0.75388532  0.44732750  1
  Se  Se186  1  0.90303493  0.76236442  0.95469400  1
  Se  Se187  1  0.25458327  0.24144935  0.29472301  1
  Se  Se188  1  0.24870382  0.24474968  0.81407331  1
  Se  Se189  1  0.25031208  0.58423851  0.30210984  1
  Se  Se190  1  0.25239611  0.58617016  0.80012161  1
  Se  Se191  1  0.24342806  0.91124219  0.31207929  1
  Se  Se192  1  0.25509977  0.91901961  0.79987647  1
  Se  Se193  1  0.58864426  0.25247302  0.30233949  1
  Se  Se194  1  0.58247586  0.24450635  0.81188559  1
  Se  Se195  1  0.58251140  0.58071813  0.30560183  1
  Se  Se196  1  0.58702946  0.58250869  0.81355221  1
  Se  Se197  1  0.57338192  0.90371263  0.29967198  1
  Se  Se198  1  0.58694143  0.91194688  0.81110544  1
  Se  Se199  1  0.93240581  0.25812669  0.29597086  1
  Se  Se200  1  0.91493489  0.25255951  0.80517441  1
  Se  Se201  1  0.91597991  0.58510018  0.30040271  1
  Se  Se202  1  0.91854172  0.58968096  0.80966412  1
  Se  Se203  1  0.90571658  0.91055993  0.30630128  1
  Se  Se204  1  0.91037945  0.91522945  0.81610400  1
  Se  Se205  1  0.08826690  0.08559087  0.30092464  1
  Se  Se206  1  0.08626491  0.08958114  0.81322707  1
  Se  Se207  1  0.08477336  0.41849055  0.29974805  1
  Se  Se208  1  0.07860748  0.41772888  0.80503417  1
  Se  Se209  1  0.07865859  0.74832694  0.30336355  1
  Se  Se210  1  0.08051136  0.75114314  0.80521397  1
  Se  Se211  1  0.42833263  0.08754697  0.30806076  1
  Se  Se212  1  0.41522279  0.07588602  0.80566033  1
  Se  Se213  1  0.42088755  0.41730447  0.30147304  1
  Se  Se214  1  0.42230661  0.41846111  0.80972431  1
  Se  Se215  1  0.42085175  0.74939710  0.29302682  1
  Se  Se216  1  0.41815065  0.74532878  0.80552088  1
  Se  Se217  1  0.75710220  0.08660905  0.30500654  1
  Se  Se218  1  0.74599611  0.08023114  0.80825573  1
  Se  Se219  1  0.74648293  0.41806294  0.29342742  1
  Se  Se220  1  0.74863347  0.43239286  0.82275608  1
  Se  Se221  1  0.74981453  0.75143424  0.30452192  1
  Se  Se222  1  0.74809435  0.74639115  0.81504164  1
  Se  Se223  1  0.24244926  0.09066232  0.19071031  1
  Se  Se224  1  0.25481539  0.08956182  0.70064870  1
  Se  Se225  1  0.25430360  0.41591271  0.19789926  1
  Se  Se226  1  0.23739125  0.42791515  0.68699306  1
  Se  Se227  1  0.25390434  0.74529075  0.19973177  1
  Se  Se228  1  0.25228356  0.74773003  0.69818516  1
  Se  Se229  1  0.57807242  0.08928286  0.18460170  1
  Se  Se230  1  0.59081860  0.07749599  0.70105084  1
  Se  Se231  1  0.58620769  0.42106197  0.19155732  1
  Se  Se232  1  0.57666278  0.41878330  0.69391393  1
  Se  Se233  1  0.57902067  0.76204802  0.17605389  1
  Se  Se234  1  0.58861474  0.74525434  0.70134390  1
  Se  Se235  1  0.89925466  0.08699173  0.18717362  1
  Se  Se236  1  0.91188400  0.09016095  0.69227336  1
  Se  Se237  1  0.92027479  0.41563985  0.19368811  1
  Se  Se238  1  0.90933038  0.41789724  0.70288141  1
  Se  Se239  1  0.91721798  0.74391702  0.19448782  1
  Se  Se240  1  0.91435370  0.74847713  0.70557676  1
  Se  Se241  1  0.07185915  0.24871240  0.19972557  1
  Se  Se242  1  0.07927022  0.25463419  0.70334959  1
  Se  Se243  1  0.08175570  0.58327554  0.19333402  1
  Se  Se244  1  0.07725003  0.58680730  0.70024285  1
  Se  Se245  1  0.09196126  0.90422634  0.18792412  1
  Se  Se246  1  0.09304107  0.90798978  0.68949666  1
  Se  Se247  1  0.41796053  0.25501587  0.19645321  1
  Se  Se248  1  0.43137115  0.24568143  0.69620709  1
  Se  Se249  1  0.42156853  0.58836819  0.18964534  1
  Se  Se250  1  0.41668711  0.58366224  0.70033552  1
  Se  Se251  1  0.42784945  0.91820234  0.18470322  1
  Se  Se252  1  0.42434210  0.91273794  0.69867619  1
  Se  Se253  1  0.74555222  0.24666177  0.19800454  1
  Se  Se254  1  0.75446430  0.24305666  0.69260294  1
  Se  Se255  1  0.75840163  0.57657758  0.18068177  1
  Se  Se256  1  0.74465289  0.58084395  0.70408173  1
  Se  Se257  1  0.74791886  0.90253871  0.18090319  1
  Se  Se258  1  0.75380458  0.91671037  0.70255495  1
