# generated using pymatgen
data_In86Cu29Se144
_symmetry_space_group_name_H-M   'P 1'
_cell_length_a   17.58144195
_cell_length_b   17.58635754
_cell_length_c   23.44419445
_cell_angle_alpha   90.00858814
_cell_angle_beta   89.98172335
_cell_angle_gamma   89.99799994
_symmetry_Int_Tables_number   1
_chemical_formula_structural   In86Cu29Se144
_chemical_formula_sum   'In86 Cu29 Se144'
_cell_volume   7248.79265297
_cell_formula_units_Z   1
loop_
 _symmetry_equiv_pos_site_id
 _symmetry_equiv_pos_as_xyz
  1  'x, y, z'
loop_
 _atom_site_type_symbol
 _atom_site_label
 _atom_site_symmetry_multiplicity
 _atom_site_fract_x
 _atom_site_fract_y
 _atom_site_fract_z
 _atom_site_occupancy
  In  In0  1  -0.00316351  0.14756260  0.12762773  1
  In  In1  1  0.00109520  0.17112174  0.61336495  1
  In  In2  1  -0.00321037  0.51436766  0.12289373  1
  In  In3  1  -0.00037542  0.50278775  0.63501080  1
  In  In4  1  -0.00282939  0.83613645  0.12434716  1
  In  In5  1  -0.00969801  0.83670327  0.62616933  1
  In  In6  1  0.32864351  0.16172283  0.12054954  1
  In  In7  1  0.33574872  0.16292221  0.61246579  1
  In  In8  1  0.35189014  0.50682308  0.12593189  1
  In  In9  1  0.34417950  0.49941901  0.62595127  1
  In  In10  1  0.31541392  0.84775811  0.14017543  1
  In  In11  1  0.32422094  0.82847529  0.62617301  1
  In  In12  1  0.64858210  0.18433180  0.14848167  1
  In  In13  1  0.66387197  0.16104693  0.62029914  1
  In  In14  1  0.65758971  0.48966631  0.10977959  1
  In  In15  1  0.67126957  0.51127715  0.62695703  1
  In  In16  1  0.68039786  0.83546928  0.12369543  1
  In  In17  1  0.67368925  0.82654762  0.63018538  1
  In  In18  1  0.17583549  0.00685000  0.35975953  1
  In  In19  1  0.16440076  -0.00128061  0.88555790  1
  In  In20  1  0.15782851  0.31770952  0.37735110  1
  In  In21  1  0.15021472  0.33454664  0.87663337  1
  In  In22  1  0.16490243  0.67756952  0.36422781  1
  In  In23  1  0.17585580  0.66746892  0.87610104  1
  In  In24  1  0.51620557  0.02847568  0.34829776  1
  In  In25  1  0.51804258  -0.00316278  0.87708393  1
  In  In26  1  0.51407814  0.31982377  0.37693200  1
  In  In27  1  0.50716396  0.33169820  0.89010979  1
  In  In28  1  0.49283391  0.66627799  0.37580394  1
  In  In29  1  0.49351694  0.65888004  0.87562335  1
  In  In30  1  0.83540933  0.00004707  0.37695755  1
  In  In31  1  0.81761615  0.00439296  0.87554764  1
  In  In32  1  0.82244152  0.33728254  0.37631892  1
  In  In33  1  0.84551283  0.32339581  0.87505810  1
  In  In34  1  0.84715105  0.66041761  0.37319702  1
  In  In35  1  0.83360488  0.66884986  0.87635088  1
  In  In36  1  0.01191545  0.16229609  0.38834250  1
  In  In37  1  -0.00626366  0.17879744  0.87507901  1
  In  In38  1  -0.01800985  0.51132467  0.36852747  1
  In  In39  1  -0.01192536  0.49178535  0.87122068  1
  In  In40  1  -0.00484740  0.82218880  0.36937778  1
  In  In41  1  0.00858428  0.82766178  0.88226574  1
  In  In42  1  0.34248315  0.16352378  0.37457020  1
  In  In43  1  0.33427065  0.16611860  0.88187470  1
  In  In44  1  0.34010871  0.51298566  0.37338294  1
  In  In45  1  0.33905647  0.51037604  0.88042387  1
  In  In46  1  0.32766011  0.83853857  0.35928361  1
  In  In47  1  0.33369360  0.81700076  0.88152655  1
  In  In48  1  0.66695492  0.16806858  0.37214235  1
  In  In49  1  0.67396588  0.15453882  0.87650351  1
  In  In50  1  0.66764440  0.48295644  0.36958161  1
  In  In51  1  0.65582829  0.50745377  0.88588099  1
  In  In52  1  0.66815910  0.84708324  0.37461630  1
  In  In53  1  0.67927733  0.84492632  0.87224432  1
  In  In54  1  0.16285747  -0.00317271  0.12279105  1
  In  In55  1  0.16018019  -0.00066948  0.62055596  1
  In  In56  1  0.17846022  0.32735876  0.12377723  1
  In  In57  1  0.16124332  0.32227714  0.61968730  1
  In  In58  1  0.14945582  0.68836497  0.14384123  1
  In  In59  1  0.16660130  0.66777646  0.63751587  1
  In  In60  1  0.48900797  0.01453516  0.13965707  1
  In  In61  1  0.50268749  0.01042895  0.62051524  1
  In  In62  1  0.51474858  0.34063922  0.11531270  1
  In  In63  1  0.50125664  0.33344677  0.61666170  1
  In  In64  1  0.49412561  0.65160765  0.12829707  1
  In  In65  1  0.50691663  0.65805694  0.63241977  1
  In  In66  1  0.83931143  -0.00393754  0.13193543  1
  In  In67  1  0.82644589  -0.00785731  0.61488321  1
  In  In68  1  0.81222736  0.33468821  0.12369598  1
  In  In69  1  0.84674613  0.32953387  0.62441508  1
  In  In70  1  0.83778609  0.67321890  0.11298756  1
  In  In71  1  0.83016268  0.67180296  0.63378357  1
  In  In72  1  0.33047413  0.33676642  0.74412350  1
  In  In73  1  0.82837154  0.16680527  0.00234594  1
  In  In74  1  0.33703150  -0.00389509  0.74305899  1
  In  In75  1  0.34349481  0.33746009  0.24569852  1
  In  In76  1  0.67163206  0.33446253  0.75175497  1
  In  In77  1  0.16483071  0.83744349  0.49370603  1
  In  In78  1  0.82948568  0.49475821  0.49737553  1
  In  In79  1  0.66905318  0.66315944  0.24292431  1
  In  In80  1  0.49550784  0.84143117  0.48893150  1
  In  In81  1  -0.00819446  0.33708558  0.25346995  1
  In  In82  1  0.16717630  0.49673403  0.49760404  1
  In  In83  1  -0.00393626  0.00043399  0.74509011  1
  In  In84  1  0.49955365  0.83371376  0.00399885  1
  In  In85  1  0.17182316  0.49972295  0.00197617  1
  Cu  Cu86  1  0.16391825  0.16153741  0.24707167  1
  Cu  Cu87  1  0.83631612  0.83000258  0.75098269  1
  Cu  Cu88  1  0.66661729  0.00345047  0.49288582  1
  Cu  Cu89  1  0.49744454  0.50460291  0.75429133  1
  Cu  Cu90  1  -0.00136129  0.00191482  0.49886356  1
  Cu  Cu91  1  0.33977934  0.66436280  0.50004032  1
  Cu  Cu92  1  0.16554616  0.50718285  0.25208933  1
  Cu  Cu93  1  0.00117963  0.32714466  -0.00053186  1
  Cu  Cu94  1  0.50708706  0.82835528  0.75666977  1
  Cu  Cu95  1  0.83021688  0.50529770  0.75359794  1
  Cu  Cu96  1  0.00000769  -0.00584173  0.00546662  1
  Cu  Cu97  1  0.83231873  0.16265834  0.25291293  1
  Cu  Cu98  1  0.33636555  0.00791989  0.48597386  1
  Cu  Cu99  1  0.66839974  0.67101855  0.00014579  1
  Cu  Cu100  1  -0.00302759  0.66837562  0.49869139  1
  Cu  Cu101  1  0.33281990  -0.00065660  0.00810026  1
  Cu  Cu102  1  -0.00028126  0.66844162  0.00026623  1
  Cu  Cu103  1  0.15790970  0.17274517  0.74724791  1
  Cu  Cu104  1  0.66882464  0.66620817  0.50795519  1
  Cu  Cu105  1  0.66191086  0.32501309  0.49749121  1
  Cu  Cu106  1  0.17271248  0.82312211  0.75805566  1
  Cu  Cu107  1  0.50650860  0.16044688  0.74764721  1
  Cu  Cu108  1  0.66727472  0.00789556  0.00655717  1
  Cu  Cu109  1  0.32919296  0.66865155  0.00673445  1
  Cu  Cu110  1  0.33693427  0.33254501  0.49755596  1
  Cu  Cu111  1  0.83634102  0.83277812  0.24852653  1
  Cu  Cu112  1  0.49854533  0.83349944  0.25118571  1
  Cu  Cu113  1  0.33631329  0.32502588  0.00409312  1
  Cu  Cu114  1  0.16056811  0.50104521  0.75755153  1
  Se  Se115  1  0.08303770  0.08365944  0.05231517  1
  Se  Se116  1  0.08741777  0.08261124  0.54984461  1
  Se  Se117  1  0.07853034  0.40911795  0.06128884  1
  Se  Se118  1  0.07232963  0.41577907  0.55847727  1
  Se  Se119  1  0.08210673  0.74909130  0.05669472  1
  Se  Se120  1  0.08193037  0.74393038  0.55893543  1
  Se  Se121  1  0.42109884  0.08211800  0.05525108  1
  Se  Se122  1  0.42148029  0.08243994  0.54549917  1
  Se  Se123  1  0.41491795  0.41560296  0.05315776  1
  Se  Se124  1  0.41627983  0.41854387  0.55160951  1
  Se  Se125  1  0.40930404  0.75023785  0.06682078  1
  Se  Se126  1  0.41650701  0.74971143  0.55861817  1
  Se  Se127  1  0.74447117  0.08478889  0.07102128  1
  Se  Se128  1  0.74929043  0.08404695  0.54946554  1
  Se  Se129  1  0.74977864  0.41323548  0.04471654  1
  Se  Se130  1  0.73910422  0.40659968  0.56099305  1
  Se  Se131  1  0.75261291  0.75831469  0.04681470  1
  Se  Se132  1  0.75481891  0.74913754  0.55709966  1
  Se  Se133  1  0.24543622  0.24311292  0.04938810  1
  Se  Se134  1  0.25153932  0.25114690  0.55049505  1
  Se  Se135  1  0.24869744  0.59009749  0.06854934  1
  Se  Se136  1  0.25256818  0.59139661  0.55970813  1
  Se  Se137  1  0.24827051  0.91215719  0.05449295  1
  Se  Se138  1  0.26265421  0.92749402  0.55187475  1
  Se  Se139  1  0.59153118  0.24129653  0.05758891  1
  Se  Se140  1  0.57832834  0.24258572  0.55227554  1
  Se  Se141  1  0.58025695  0.59095147  0.05077162  1
  Se  Se142  1  0.58221585  0.58145575  0.55541968  1
  Se  Se143  1  0.58464597  0.92622214  0.06506442  1
  Se  Se144  1  0.58939545  0.91927180  0.55514539  1
  Se  Se145  1  0.92188513  0.25283596  0.06507623  1
  Se  Se146  1  0.91360854  0.25152827  0.54722867  1
  Se  Se147  1  0.91467078  0.58024143  0.04584176  1
  Se  Se148  1  0.91859803  0.58673805  0.55934951  1
  Se  Se149  1  0.90965838  0.91549962  0.05472403  1
  Se  Se150  1  0.91855688  0.91247979  0.54957524  1
  Se  Se151  1  0.08167308  0.25550097  0.45664069  1
  Se  Se152  1  0.08496460  0.24296163  0.94847020  1
  Se  Se153  1  0.07867489  0.59135246  0.43812705  1
  Se  Se154  1  0.07766114  0.58298879  0.94004298  1
  Se  Se155  1  0.07651346  0.92512261  0.43391216  1
  Se  Se156  1  0.08642360  0.91207277  0.95272463  1
  Se  Se157  1  0.41988524  0.24785146  0.44463251  1
  Se  Se158  1  0.42072674  0.24269094  0.95042856  1
  Se  Se159  1  0.42384643  0.58006996  0.45055171  1
  Se  Se160  1  0.41629640  0.58734600  0.95481570  1
  Se  Se161  1  0.41359576  0.92964066  0.42368846  1
  Se  Se162  1  0.41043536  0.92441420  0.94026781  1
  Se  Se163  1  0.74954557  0.24736839  0.44490699  1
  Se  Se164  1  0.74086643  0.25849895  0.94162742  1
  Se  Se165  1  0.74207275  0.58880706  0.43902146  1
  Se  Se166  1  0.75133486  0.58650078  0.94676106  1
  Se  Se167  1  0.75331491  0.91541588  0.44820917  1
  Se  Se168  1  0.74784171  0.92295329  0.95174348  1
  Se  Se169  1  0.24488724  0.08730681  0.43767708  1
  Se  Se170  1  0.25225554  0.08180120  0.94882854  1
  Se  Se171  1  0.25779807  0.40940057  0.43490094  1
  Se  Se172  1  0.25862672  0.40545035  0.93968406  1
  Se  Se173  1  0.26070297  0.74494853  0.44039444  1
  Se  Se174  1  0.24428310  0.74978117  0.95357342  1
  Se  Se175  1  0.57988418  0.08275717  0.43931257  1
  Se  Se176  1  0.58426588  0.08635934  0.94929173  1
  Se  Se177  1  0.58450177  0.41519128  0.44586754  1
  Se  Se178  1  0.57635410  0.42532347  0.95482035  1
  Se  Se179  1  0.59327225  0.74413402  0.44138481  1
  Se  Se180  1  0.58806922  0.75089220  0.93766220  1
  Se  Se181  1  0.91312883  0.08562099  0.44825104  1
  Se  Se182  1  0.92197049  0.07581591  0.94209435  1
  Se  Se183  1  0.92768872  0.41054635  0.44083539  1
  Se  Se184  1  0.91742536  0.41036540  0.94741496  1
  Se  Se185  1  0.91323422  0.75052150  0.44614804  1
  Se  Se186  1  0.91538408  0.75202497  0.94698931  1
  Se  Se187  1  0.24496428  0.24789882  0.30236535  1
  Se  Se188  1  0.24448082  0.24575930  0.80796998  1
  Se  Se189  1  0.25169458  0.58661293  0.30502453  1
  Se  Se190  1  0.25225878  0.57850028  0.80699179  1
  Se  Se191  1  0.22449369  0.89753992  0.29607987  1
  Se  Se192  1  0.24990282  0.91296098  0.81226704  1
  Se  Se193  1  0.58668904  0.24764186  0.29964713  1
  Se  Se194  1  0.57639976  0.24603743  0.81005900  1
  Se  Se195  1  0.58151336  0.57995135  0.30944199  1
  Se  Se196  1  0.58445824  0.58466374  0.80696153  1
  Se  Se197  1  0.58723055  0.91605442  0.29917127  1
  Se  Se198  1  0.59005605  0.91919309  0.80120517  1
  Se  Se199  1  0.91321758  0.24098858  0.31575024  1
  Se  Se200  1  0.91332010  0.24400467  0.79885110  1
  Se  Se201  1  0.91157214  0.58695754  0.29193765  1
  Se  Se202  1  0.91708019  0.58728798  0.80559479  1
  Se  Se203  1  0.91522818  0.91508633  0.30651482  1
  Se  Se204  1  0.91370255  0.91285100  0.81261019  1
  Se  Se205  1  0.07596562  0.08890754  0.30457121  1
  Se  Se206  1  0.08876463  0.08518505  0.80883608  1
  Se  Se207  1  0.08937041  0.42459897  0.31299137  1
  Se  Se208  1  0.07592113  0.41204573  0.80231125  1
  Se  Se209  1  0.07856273  0.75037495  0.29588216  1
  Se  Se210  1  0.08406883  0.74495932  0.80946479  1
  Se  Se211  1  0.39996648  0.08088019  0.29470853  1
  Se  Se212  1  0.42229463  0.08478383  0.80827235  1
  Se  Se213  1  0.42769734  0.41897772  0.31393212  1
  Se  Se214  1  0.42215646  0.41620513  0.81175705  1
  Se  Se215  1  0.41798742  0.74768118  0.30319212  1
  Se  Se216  1  0.41765806  0.74909876  0.80657090  1
  Se  Se217  1  0.74992836  0.07879072  0.30696965  1
  Se  Se218  1  0.75485711  0.08904340  0.80038646  1
  Se  Se219  1  0.77043780  0.43145551  0.30239657  1
  Se  Se220  1  0.75399983  0.42441179  0.81657007  1
  Se  Se221  1  0.75373202  0.75311227  0.30944154  1
  Se  Se222  1  0.75021353  0.75044700  0.80551047  1
  Se  Se223  1  0.24748897  0.08194386  0.19152282  1
  Se  Se224  1  0.24205322  0.09225219  0.68975718  1
  Se  Se225  1  0.24415010  0.42824282  0.19111475  1
  Se  Se226  1  0.23557210  0.42641603  0.68759854  1
  Se  Se227  1  0.27244885  0.72768106  0.19459113  1
  Se  Se228  1  0.25902765  0.74523364  0.70268488  1
  Se  Se229  1  0.59611959  0.06912383  0.20284577  1
  Se  Se230  1  0.58848780  0.07753820  0.69489396  1
  Se  Se231  1  0.57591921  0.42975559  0.18981067  1
  Se  Se232  1  0.57496486  0.42256215  0.69291525  1
  Se  Se233  1  0.57663639  0.75787680  0.18608717  1
  Se  Se234  1  0.58731744  0.74634842  0.69754008  1
  Se  Se235  1  0.91844206  0.07829014  0.20441640  1
  Se  Se236  1  0.91114071  0.08572983  0.68123751  1
  Se  Se237  1  0.91001238  0.42114896  0.18523726  1
  Se  Se238  1  0.90993497  0.42064426  0.69809334  1
  Se  Se239  1  0.91236833  0.74860408  0.19067045  1
  Se  Se240  1  0.92355050  0.74906184  0.69913645  1
  Se  Se241  1  0.08468821  0.24781966  0.19103110  1
  Se  Se242  1  0.07493133  0.25105509  0.69170812  1
  Se  Se243  1  0.07592201  0.58374824  0.20004359  1
  Se  Se244  1  0.07983714  0.58740688  0.70306796  1
  Se  Se245  1  0.07888102  0.91925440  0.19234549  1
  Se  Se246  1  0.09663065  0.90453585  0.69507155  1
  Se  Se247  1  0.42409541  0.24778937  0.18192676  1
  Se  Se248  1  0.42255675  0.23981040  0.68957649  1
  Se  Se249  1  0.42011795  0.57902467  0.20602495  1
  Se  Se250  1  0.41240247  0.58523368  0.69983946  1
  Se  Se251  1  0.41241277  0.92024675  0.20330127  1
  Se  Se252  1  0.43090460  0.90365814  0.68776818  1
  Se  Se253  1  0.75298242  0.25547352  0.20626287  1
  Se  Se254  1  0.75418588  0.24468300  0.68864919  1
  Se  Se255  1  0.75114624  0.57943228  0.17532750  1
  Se  Se256  1  0.74607866  0.58843250  0.70162257  1
  Se  Se257  1  0.74988154  0.91652862  0.19974376  1
  Se  Se258  1  0.75653116  0.91459038  0.69470669  1
