# generated using pymatgen
data_In86Cu29Se144
_symmetry_space_group_name_H-M   'P 1'
_cell_length_a   17.58942158
_cell_length_b   17.59176008
_cell_length_c   23.43993575
_cell_angle_alpha   90.00249690
_cell_angle_beta   89.96711680
_cell_angle_gamma   89.98291738
_symmetry_Int_Tables_number   1
_chemical_formula_structural   In86Cu29Se144
_chemical_formula_sum   'In86 Cu29 Se144'
_cell_volume   7252.99164675
_cell_formula_units_Z   1
loop_
 _symmetry_equiv_pos_site_id
 _symmetry_equiv_pos_as_xyz
  1  'x, y, z'
loop_
 _atom_site_type_symbol
 _atom_site_label
 _atom_site_symmetry_multiplicity
 _atom_site_fract_x
 _atom_site_fract_y
 _atom_site_fract_z
 _atom_site_occupancy
  In  In0  1  0.01004745  0.17859127  0.12813846  1
  In  In1  1  0.00561353  0.15996973  0.62622209  1
  In  In2  1  0.01028538  0.48611294  0.14045534  1
  In  In3  1  0.00024476  0.49076893  0.61777836  1
  In  In4  1  -0.01255761  0.84018628  0.12462441  1
  In  In5  1  0.00093133  0.84385585  0.62628417  1
  In  In6  1  0.32286597  0.17557671  0.12464463  1
  In  In7  1  0.33636003  0.16382946  0.62465956  1
  In  In8  1  0.33534776  0.51189842  0.12940955  1
  In  In9  1  0.33853718  0.50327444  0.61261247  1
  In  In10  1  0.33596235  0.82131537  0.12513228  1
  In  In11  1  0.34331351  0.82509090  0.62676059  1
  In  In12  1  0.66630788  0.16113784  0.13844238  1
  In  In13  1  0.62524974  0.16066403  0.61103439  1
  In  In14  1  0.65971980  0.49868919  0.14036220  1
  In  In15  1  0.66648047  0.49769265  0.61128561  1
  In  In16  1  0.67093344  0.83141505  0.12077322  1
  In  In17  1  0.66442556  0.83135371  0.62291118  1
  In  In18  1  0.17909687  0.00831213  0.38234254  1
  In  In19  1  0.17493318  0.01128727  0.86446923  1
  In  In20  1  0.16475480  0.33529127  0.38656702  1
  In  In21  1  0.16918696  0.32949227  0.87686843  1
  In  In22  1  0.15866421  0.65822752  0.36647210  1
  In  In23  1  0.16994310  0.65443068  0.87396501  1
  In  In24  1  0.50525747  -0.00600078  0.39308789  1
  In  In25  1  0.48850770  -0.00570929  0.86375906  1
  In  In26  1  0.50862948  0.32632969  0.39218495  1
  In  In27  1  0.49486158  0.34942641  0.86984959  1
  In  In28  1  0.48250629  0.67172082  0.39114225  1
  In  In29  1  0.50902214  0.67111958  0.86211078  1
  In  In30  1  0.81402852  0.00160367  0.37590167  1
  In  In31  1  0.81742798  -0.01267543  0.86056272  1
  In  In32  1  0.84078825  0.34817365  0.36200125  1
  In  In33  1  0.82737745  0.32954551  0.87639689  1
  In  In34  1  0.84456994  0.65805276  0.38058301  1
  In  In35  1  0.83859823  0.67757226  0.87359202  1
  In  In36  1  0.00248811  0.17746904  0.36770773  1
  In  In37  1  0.01244050  0.17092471  0.87334416  1
  In  In38  1  0.00138512  0.50154077  0.37084413  1
  In  In39  1  0.00963650  0.51721389  0.87592563  1
  In  In40  1  0.00363248  0.81359235  0.37190614  1
  In  In41  1  -0.01301293  0.83355314  0.87508158  1
  In  In42  1  0.33166980  0.17405105  0.40225878  1
  In  In43  1  0.32297042  0.16212842  0.86571951  1
  In  In44  1  0.31370112  0.50388957  0.40318210  1
  In  In45  1  0.32935419  0.49279037  0.86212822  1
  In  In46  1  0.35528446  0.82813034  0.38589551  1
  In  In47  1  0.34357820  0.83964315  0.86754531  1
  In  In48  1  0.66342987  0.15687626  0.37056683  1
  In  In49  1  0.67611166  0.16209836  0.87101279  1
  In  In50  1  0.67597598  0.48860578  0.39228637  1
  In  In51  1  0.65039970  0.50001091  0.87028335  1
  In  In52  1  0.65183717  0.84678156  0.38036821  1
  In  In53  1  0.66463078  0.82973828  0.87253464  1
  In  In54  1  0.15855801  0.01247748  0.12027641  1
  In  In55  1  0.16283461  0.01023386  0.63107715  1
  In  In56  1  0.15896038  0.32815753  0.12372988  1
  In  In57  1  0.20607237  0.34927548  0.58458381  1
  In  In58  1  0.17974735  0.65598084  0.13146799  1
  In  In59  1  0.19052637  0.66209178  0.61798842  1
  In  In60  1  0.50902605  -0.00513038  0.12637815  1
  In  In61  1  0.50111325  -0.00409839  0.62993368  1
  In  In62  1  0.49487124  0.34315563  0.13686777  1
  In  In63  1  0.47653772  0.31354483  0.57883519  1
  In  In64  1  0.49584192  0.66519402  0.13074034  1
  In  In65  1  0.49212730  0.67582904  0.61816688  1
  In  In66  1  0.82878734  -0.01324175  0.12392514  1
  In  In67  1  0.83974040  -0.00888216  0.62785814  1
  In  In68  1  0.83251503  0.33574965  0.14550293  1
  In  In69  1  0.81277138  0.33687017  0.61436818  1
  In  In70  1  0.82778599  0.67726334  0.12835960  1
  In  In71  1  0.81848786  0.65229669  0.61525893  1
  In  In72  1  0.16782218  0.83359398  0.50268893  1
  In  In73  1  0.49424569  0.16470394  -0.00301737  1
  In  In74  1  0.83809769  0.50454186  0.00727764  1
  In  In75  1  -0.00222245  -0.00148256  0.24605954  1
  In  In76  1  0.84806995  0.15739197  0.00880545  1
  In  In77  1  0.34088148  -0.00260517  0.25907719  1
  In  In78  1  0.00484785  0.32908637  0.74699999  1
  In  In79  1  0.49623043  0.50551051  0.00395252  1
  In  In80  1  0.65181164  0.33210027  0.73362376  1
  In  In81  1  0.00267690  0.67026420  0.75073223  1
  In  In82  1  0.33454765  0.33468788  0.27199508  1
  In  In83  1  0.66846529  0.66155428  0.26182065  1
  In  In84  1  0.83352198  0.16881384  0.49599582  1
  In  In85  1  0.16795999  0.83528526  -0.00144767  1
  Cu  Cu86  1  -0.00147649  0.00437802  -0.00246516  1
  Cu  Cu87  1  0.33199853  0.00254085  -0.00946938  1
  Cu  Cu88  1  0.00678539  0.34512036  0.00215213  1
  Cu  Cu89  1  0.17482160  0.49736140  0.73805941  1
  Cu  Cu90  1  0.66346592  -0.01088068  -0.00461951  1
  Cu  Cu91  1  0.34141915  0.66692163  0.00072776  1
  Cu  Cu92  1  0.82556416  0.82689518  0.74626300  1
  Cu  Cu93  1  0.00039705  0.33266063  0.49183994  1
  Cu  Cu94  1  0.17157595  0.83842801  0.74443078  1
  Cu  Cu95  1  0.17642537  0.82777081  0.25002328  1
  Cu  Cu96  1  0.67218390  0.67163291  -0.00427069  1
  Cu  Cu97  1  0.17350412  0.17703441  0.74510859  1
  Cu  Cu98  1  0.49209171  0.50521908  0.73602096  1
  Cu  Cu99  1  0.50213715  0.49557119  0.26372023  1
  Cu  Cu100  1  0.82840441  0.83527967  0.25057414  1
  Cu  Cu101  1  0.49815158  0.16397852  0.26214229  1
  Cu  Cu102  1  0.00164053  0.66157822  0.49842125  1
  Cu  Cu103  1  0.17551994  0.49160234  0.25780736  1
  Cu  Cu104  1  0.66980207  0.68049284  0.49611602  1
  Cu  Cu105  1  0.49537134  0.17607757  0.73936417  1
  Cu  Cu106  1  0.50103110  0.83210888  0.74625143  1
  Cu  Cu107  1  0.82908168  0.15743122  0.74311526  1
  Cu  Cu108  1  0.32140160  0.33349875  -0.00435403  1
  Cu  Cu109  1  0.82181061  0.49811512  0.74209157  1
  Cu  Cu110  1  0.66560865  -0.00003574  0.50456829  1
  Cu  Cu111  1  0.82821362  0.16623656  0.25390033  1
  Cu  Cu112  1  0.66740684  0.32616783  0.01260057  1
  Cu  Cu113  1  -0.00620478  -0.00520629  0.50009165  1
  Cu  Cu114  1  0.00679035  0.66733029  0.00412700  1
  Se  Se115  1  0.07583623  0.09170857  0.05102767  1
  Se  Se116  1  0.07800056  0.07618823  0.55286557  1
  Se  Se117  1  0.08837821  0.42546995  0.05751619  1
  Se  Se118  1  0.08388104  0.41582562  0.54566732  1
  Se  Se119  1  0.08375973  0.74863896  0.06559637  1
  Se  Se120  1  0.07792001  0.74040777  0.56324605  1
  Se  Se121  1  0.40642626  0.07737465  0.06127495  1
  Se  Se122  1  0.44368992  0.09995077  0.56390263  1
  Se  Se123  1  0.40463256  0.40745252  0.05830159  1
  Se  Se124  1  0.44542199  0.45144343  0.54154828  1
  Se  Se125  1  0.42456645  0.74743136  0.05476239  1
  Se  Se126  1  0.40586540  0.74852955  0.54618465  1
  Se  Se127  1  0.73654302  0.07610549  0.05714584  1
  Se  Se128  1  0.74581542  0.08387318  0.56320426  1
  Se  Se129  1  0.74556948  0.41280204  0.06728982  1
  Se  Se130  1  0.76140250  0.43098816  0.54150972  1
  Se  Se131  1  0.75623328  0.75282732  0.04987905  1
  Se  Se132  1  0.75628578  0.75751628  0.55295776  1
  Se  Se133  1  0.24220291  0.24862239  0.05107188  1
  Se  Se134  1  0.23176740  0.21205367  0.55287772  1
  Se  Se135  1  0.25675810  0.58359253  0.05290115  1
  Se  Se136  1  0.24006399  0.56853553  0.54387012  1
  Se  Se137  1  0.25800055  0.92494879  0.05981021  1
  Se  Se138  1  0.25168775  0.92066055  0.56748792  1
  Se  Se139  1  0.57847616  0.25121136  0.06730104  1
  Se  Se140  1  0.62082614  0.28580142  0.55696867  1
  Se  Se141  1  0.59746374  0.59016237  0.06024608  1
  Se  Se142  1  0.58953303  0.60003576  0.55406261  1
  Se  Se143  1  0.58090592  0.91104273  0.05308216  1
  Se  Se144  1  0.58018439  0.91518858  0.55508283  1
  Se  Se145  1  0.91941218  0.26919780  0.06140006  1
  Se  Se146  1  0.92302217  0.25742658  0.55936021  1
  Se  Se147  1  0.92821469  0.59056261  0.06836802  1
  Se  Se148  1  0.91816199  0.57929366  0.55380626  1
  Se  Se149  1  0.91474821  0.91978694  0.04873705  1
  Se  Se150  1  0.91285593  0.90993688  0.55190994  1
  Se  Se151  1  0.08140939  0.24023808  0.44742756  1
  Se  Se152  1  0.08109737  0.25504125  0.94729781  1
  Se  Se153  1  0.08528897  0.58050831  0.44367520  1
  Se  Se154  1  0.09069369  0.58446013  0.95237613  1
  Se  Se155  1  0.07610091  0.91959926  0.43691948  1
  Se  Se156  1  0.07955514  0.92513828  0.93641039  1
  Se  Se157  1  0.42499075  0.25220049  0.46667995  1
  Se  Se158  1  0.40931525  0.26023361  0.93702242  1
  Se  Se159  1  0.41613530  0.57736011  0.46118337  1
  Se  Se160  1  0.41348075  0.58734649  0.93371512  1
  Se  Se161  1  0.39480466  0.93771931  0.45207921  1
  Se  Se162  1  0.41859615  0.91806348  0.94374246  1
  Se  Se163  1  0.75308004  0.25388378  0.42862331  1
  Se  Se164  1  0.74607983  0.24855617  0.95177415  1
  Se  Se165  1  0.75254907  0.58910109  0.44994291  1
  Se  Se166  1  0.74515151  0.58207841  0.93766579  1
  Se  Se167  1  0.74790488  0.91658558  0.45039442  1
  Se  Se168  1  0.75168192  0.91179237  0.94159833  1
  Se  Se169  1  0.25449810  0.07449736  0.46106976  1
  Se  Se170  1  0.24665131  0.08800432  0.94351556  1
  Se  Se171  1  0.26125514  0.38883158  0.46065242  1
  Se  Se172  1  0.24846564  0.42382085  0.93984415  1
  Se  Se173  1  0.24690906  0.74403306  0.43634322  1
  Se  Se174  1  0.25916301  0.74510990  0.93962243  1
  Se  Se175  1  0.58764070  0.09058016  0.45228048  1
  Se  Se176  1  0.58811938  0.07712644  0.93753831  1
  Se  Se177  1  0.57138459  0.42927896  0.45730322  1
  Se  Se178  1  0.58986976  0.40686350  0.94954854  1
  Se  Se179  1  0.57652129  0.75823037  0.44909561  1
  Se  Se180  1  0.58128266  0.74496125  0.94143695  1
  Se  Se181  1  0.92237247  0.07688441  0.43445968  1
  Se  Se182  1  0.91783794  0.07654529  0.92995338  1
  Se  Se183  1  0.91775977  0.41798174  0.44092121  1
  Se  Se184  1  0.92392194  0.41489686  0.93758522  1
  Se  Se185  1  0.92034852  0.75039737  0.44918298  1
  Se  Se186  1  0.92095916  0.74608532  0.94955349  1
  Se  Se187  1  0.24473569  0.23554166  0.31991175  1
  Se  Se188  1  0.25302219  0.26112910  0.80124849  1
  Se  Se189  1  0.25916921  0.57259025  0.31302706  1
  Se  Se190  1  0.24941126  0.58428093  0.79691406  1
  Se  Se191  1  0.24657039  0.90676093  0.31555693  1
  Se  Se192  1  0.25418545  0.91951244  0.80191765  1
  Se  Se193  1  0.57950431  0.25242808  0.31137285  1
  Se  Se194  1  0.57546561  0.24548229  0.81012133  1
  Se  Se195  1  0.57728179  0.58055353  0.32553811  1
  Se  Se196  1  0.58121057  0.57772644  0.79359628  1
  Se  Se197  1  0.57192523  0.92576590  0.30994753  1
  Se  Se198  1  0.58311316  0.91393132  0.80323845  1
  Se  Se199  1  0.91682450  0.25148285  0.29810438  1
  Se  Se200  1  0.90389801  0.24139875  0.80503177  1
  Se  Se201  1  0.92566236  0.59284171  0.30399996  1
  Se  Se202  1  0.90613751  0.57285197  0.80351343  1
  Se  Se203  1  0.91158790  0.91295771  0.31257106  1
  Se  Se204  1  0.91397326  0.90968724  0.79831261  1
  Se  Se205  1  0.09038341  0.08216430  0.30702696  1
  Se  Se206  1  0.08657196  0.09356266  0.79823966  1
  Se  Se207  1  0.08921100  0.41027103  0.30952786  1
  Se  Se208  1  0.08949331  0.42886709  0.80443335  1
  Se  Se209  1  0.08419617  0.74573146  0.29515016  1
  Se  Se210  1  0.09432705  0.76105405  0.81134701  1
  Se  Se211  1  0.41521460  0.09388674  0.32430478  1
  Se  Se212  1  0.41888053  0.09272103  0.79964572  1
  Se  Se213  1  0.42105456  0.42551971  0.32977154  1
  Se  Se214  1  0.41675122  0.41638333  0.79249012  1
  Se  Se215  1  0.42046577  0.74805214  0.30869006  1
  Se  Se216  1  0.41533769  0.74825197  0.79890235  1
  Se  Se217  1  0.74364206  0.07614688  0.29746863  1
  Se  Se218  1  0.74061078  0.07863049  0.79461874  1
  Se  Se219  1  0.73808011  0.42295863  0.30590598  1
  Se  Se220  1  0.74652014  0.41473350  0.80475270  1
  Se  Se221  1  0.75393744  0.75967222  0.31891686  1
  Se  Se222  1  0.74749518  0.74330357  0.80329375  1
  Se  Se223  1  0.24662420  0.08454633  0.19491357  1
  Se  Se224  1  0.25449895  0.08531907  0.69859316  1
  Se  Se225  1  0.25536427  0.41443571  0.19425348  1
  Se  Se226  1  0.25251982  0.41499977  0.67835677  1
  Se  Se227  1  0.26010390  0.74275391  0.19900910  1
  Se  Se228  1  0.25082764  0.74872001  0.69520261  1
  Se  Se229  1  0.57387287  0.08206430  0.20106944  1
  Se  Se230  1  0.58341758  0.08444185  0.69908030  1
  Se  Se231  1  0.58234541  0.41180609  0.20872654  1
  Se  Se232  1  0.56542054  0.42096980  0.67463327  1
  Se  Se233  1  0.58525934  0.75084915  0.19552920  1
  Se  Se234  1  0.58140772  0.74762333  0.69160673  1
  Se  Se235  1  0.90597911  0.09081094  0.18599615  1
  Se  Se236  1  0.92082377  0.07984598  0.69415803  1
  Se  Se237  1  0.91757621  0.41819539  0.20786064  1
  Se  Se238  1  0.90510189  0.41467030  0.68954509  1
  Se  Se239  1  0.91481865  0.75538790  0.19739071  1
  Se  Se240  1  0.90896855  0.74824990  0.68622825  1
  Se  Se241  1  0.08830549  0.25198936  0.20110907  1
  Se  Se242  1  0.09679369  0.25452329  0.68134163  1
  Se  Se243  1  0.09554867  0.57717872  0.20106764  1
  Se  Se244  1  0.08678022  0.57919058  0.68615708  1
  Se  Se245  1  0.09635503  0.90779966  0.18980642  1
  Se  Se246  1  0.08195922  0.92037604  0.69815116  1
  Se  Se247  1  0.41706749  0.24242115  0.20019647  1
  Se  Se248  1  0.42466697  0.26272736  0.67803486  1
  Se  Se249  1  0.42587902  0.57594668  0.20207781  1
  Se  Se250  1  0.40781215  0.59076209  0.68696136  1
  Se  Se251  1  0.42238129  0.90795377  0.19309853  1
  Se  Se252  1  0.41399892  0.91599676  0.69757012  1
  Se  Se253  1  0.74017606  0.25194133  0.20495248  1
  Se  Se254  1  0.74816113  0.23805574  0.68448318  1
  Se  Se255  1  0.76141297  0.57687540  0.19750264  1
  Se  Se256  1  0.73798343  0.57889433  0.69025315  1
  Se  Se257  1  0.74392648  0.91582813  0.19634144  1
  Se  Se258  1  0.74736786  0.91486914  0.69347416  1
