# generated using pymatgen
data_In86Cu29Se144
_symmetry_space_group_name_H-M   'P 1'
_cell_length_a   17.58139158
_cell_length_b   17.58137698
_cell_length_c   23.43931643
_cell_angle_alpha   89.97027994
_cell_angle_beta   89.97560265
_cell_angle_gamma   89.99925307
_symmetry_Int_Tables_number   1
_chemical_formula_structural   In86Cu29Se144
_chemical_formula_sum   'In86 Cu29 Se144'
_cell_volume   7245.20998493
_cell_formula_units_Z   1
loop_
 _symmetry_equiv_pos_site_id
 _symmetry_equiv_pos_as_xyz
  1  'x, y, z'
loop_
 _atom_site_type_symbol
 _atom_site_label
 _atom_site_symmetry_multiplicity
 _atom_site_fract_x
 _atom_site_fract_y
 _atom_site_fract_z
 _atom_site_occupancy
  In  In0  1  -0.00647978  0.16895219  0.13744901  1
  In  In1  1  0.00457068  0.16367670  0.62809205  1
  In  In2  1  -0.00815987  0.50735946  0.13022352  1
  In  In3  1  -0.00436253  0.49484591  0.61803851  1
  In  In4  1  0.00021655  0.83264449  0.12422379  1
  In  In5  1  -0.00972553  0.85072310  0.62585952  1
  In  In6  1  0.34164252  0.17168191  0.12679769  1
  In  In7  1  0.34059736  0.16874453  0.63402694  1
  In  In8  1  0.33577317  0.49831333  0.13240718  1
  In  In9  1  0.31724209  0.48989614  0.61797089  1
  In  In10  1  0.31837015  0.82746470  0.11462837  1
  In  In11  1  0.34594667  0.83558616  0.62888563  1
  In  In12  1  0.66383984  0.16616866  0.13273776  1
  In  In13  1  0.65144022  0.18052367  0.63862883  1
  In  In14  1  0.67408838  0.48680156  0.12864775  1
  In  In15  1  0.68319132  0.48573722  0.62828752  1
  In  In16  1  0.67838455  0.83928691  0.11943159  1
  In  In17  1  0.67638875  0.83215159  0.63337607  1
  In  In18  1  0.16002066  0.00856451  0.37483280  1
  In  In19  1  0.15611129  -0.00753783  0.86664774  1
  In  In20  1  0.17407335  0.34486505  0.37221814  1
  In  In21  1  0.16343070  0.34189865  0.86450241  1
  In  In22  1  0.15113122  0.65280330  0.36377479  1
  In  In23  1  0.16862387  0.66755699  0.88018210  1
  In  In24  1  0.51023572  0.00378958  0.37737139  1
  In  In25  1  0.49403326  -0.00476263  0.86706844  1
  In  In26  1  0.49443245  0.32845711  0.37634253  1
  In  In27  1  0.49676863  0.32901834  0.85923799  1
  In  In28  1  0.49480021  0.67744343  0.36972871  1
  In  In29  1  0.51298292  0.66143047  0.87546654  1
  In  In30  1  0.82755813  -0.00262851  0.37521508  1
  In  In31  1  0.82656641  -0.00860402  0.86858970  1
  In  In32  1  0.83732099  0.33820264  0.37120339  1
  In  In33  1  0.83297041  0.33569678  0.86785851  1
  In  In34  1  0.84392158  0.65711010  0.37979304  1
  In  In35  1  0.82631660  0.67346821  0.88700003  1
  In  In36  1  -0.00987160  0.16326994  0.36715886  1
  In  In37  1  0.00197041  0.17048093  0.86426491  1
  In  In38  1  0.00084380  0.49948590  0.37424755  1
  In  In39  1  -0.00128911  0.48634572  0.87661999  1
  In  In40  1  -0.00553367  0.82830408  0.36885924  1
  In  In41  1  -0.01177587  0.83543510  0.88920890  1
  In  In42  1  0.33158706  0.19200663  0.38806803  1
  In  In43  1  0.33982169  0.17071650  0.86379438  1
  In  In44  1  0.31983767  0.48618971  0.37159171  1
  In  In45  1  0.32855170  0.49816944  0.87095980  1
  In  In46  1  0.34478077  0.83091429  0.37050398  1
  In  In47  1  0.32466929  0.83958878  0.88211519  1
  In  In48  1  0.65874675  0.16388219  0.37742775  1
  In  In49  1  0.65500002  0.16143902  0.85344829  1
  In  In50  1  0.68463706  0.49790353  0.37924287  1
  In  In51  1  0.66791029  0.50598344  0.86408156  1
  In  In52  1  0.66601527  0.85096418  0.37317833  1
  In  In53  1  0.66842603  0.82969907  0.87872396  1
  In  In54  1  0.16296888  -0.01329967  0.12403094  1
  In  In55  1  0.16244400  0.00876601  0.63308615  1
  In  In56  1  0.16946074  0.32781161  0.13106982  1
  In  In57  1  0.16504417  0.34197449  0.63177153  1
  In  In58  1  0.15372685  0.67678587  0.13085123  1
  In  In59  1  0.17167211  0.65815272  0.62040037  1
  In  In60  1  0.51359717  0.00340240  0.12253066  1
  In  In61  1  0.49263581  0.01801165  0.64365960  1
  In  In62  1  0.49967801  0.33558976  0.13392407  1
  In  In63  1  0.50575653  0.31753676  0.62904487  1
  In  In64  1  0.48620452  0.66858607  0.12481795  1
  In  In65  1  0.50539023  0.67952004  0.62749653  1
  In  In66  1  0.84165037  -0.01063829  0.13370028  1
  In  In67  1  0.84179044  -0.00982570  0.62996846  1
  In  In68  1  0.82934639  0.33954478  0.12868462  1
  In  In69  1  0.82437832  0.34402718  0.62281887  1
  In  In70  1  0.85538534  0.67861233  0.10638495  1
  In  In71  1  0.82948114  0.65929944  0.61910934  1
  In  In72  1  0.82927051  0.16488451  0.50157563  1
  In  In73  1  0.50779712  0.83759096  0.50279999  1
  In  In74  1  0.16426378  0.82814900  0.49741224  1
  In  In75  1  0.67302175  0.66371616  0.24931019  1
  In  In76  1  0.50600351  0.49755854  0.50484395  1
  In  In77  1  0.50215875  0.16561316  -0.01358218  1
  In  In78  1  0.82779920  0.16356072  -0.00715747  1
  In  In79  1  0.16158899  0.50288353  -0.00109929  1
  In  In80  1  0.33141666  0.00312545  0.24910350  1
  In  In81  1  0.50419957  0.50085963  0.00327926  1
  In  In82  1  0.33377777  0.66346537  0.75642519  1
  In  In83  1  0.16335137  0.17104054  0.50781628  1
  In  In84  1  0.16952662  0.16285788  0.00190242  1
  In  In85  1  0.00108845  0.66183181  0.75333919  1
  Cu  Cu86  1  0.49574697  0.83408083  0.24539538  1
  Cu  Cu87  1  0.16720008  0.49752406  0.24953667  1
  Cu  Cu88  1  0.66866565  0.66610961  -0.00232546  1
  Cu  Cu89  1  0.83314258  0.83449659  0.24618271  1
  Cu  Cu90  1  0.16829317  0.83977960  0.75241375  1
  Cu  Cu91  1  0.66537474  0.33369451  -0.00217382  1
  Cu  Cu92  1  0.49793617  0.16925993  0.25407480  1
  Cu  Cu93  1  0.32752676  0.65693294  0.49208111  1
  Cu  Cu94  1  0.84022156  0.50065729  0.25075382  1
  Cu  Cu95  1  -0.00241989  -0.00656334  -0.00017092  1
  Cu  Cu96  1  0.50723380  0.83793419  0.75262896  1
  Cu  Cu97  1  0.33453431  0.00599336  0.51201388  1
  Cu  Cu98  1  0.33457787  -0.00355771  -0.00765432  1
  Cu  Cu99  1  -0.00047883  0.66628375  0.49423753  1
  Cu  Cu100  1  0.17028309  0.16993610  0.74743427  1
  Cu  Cu101  1  0.83103840  0.50094133  0.74568412  1
  Cu  Cu102  1  0.50126437  0.49710243  0.25236704  1
  Cu  Cu103  1  0.83897138  0.16879432  0.74339088  1
  Cu  Cu104  1  0.83539721  0.82944999  0.75960581  1
  Cu  Cu105  1  0.00217180  0.33656376  0.49649980  1
  Cu  Cu106  1  0.67791256  0.67063476  0.50394149  1
  Cu  Cu107  1  0.82312345  0.16839522  0.25462578  1
  Cu  Cu108  1  0.67515259  -0.01001773  -0.00028248  1
  Cu  Cu109  1  0.49780559  0.50181873  0.74443058  1
  Cu  Cu110  1  0.33116586  0.67153980  0.00277889  1
  Cu  Cu111  1  -0.00465877  0.33434139  -0.00219150  1
  Cu  Cu112  1  0.16245442  0.17014686  0.25631453  1
  Cu  Cu113  1  0.66804816  0.00391764  0.50572746  1
  Cu  Cu114  1  0.16300386  0.82913766  0.24473185  1
  Se  Se115  1  0.07054187  0.08010420  0.06071720  1
  Se  Se116  1  0.07286674  0.06910233  0.55384308  1
  Se  Se117  1  0.07832853  0.40751397  0.06079240  1
  Se  Se118  1  0.08659414  0.41433337  0.55332104  1
  Se  Se119  1  0.08572601  0.75458072  0.05463747  1
  Se  Se120  1  0.07308714  0.74395933  0.56211401  1
  Se  Se121  1  0.41178034  0.07828903  0.05341911  1
  Se  Se122  1  0.42081029  0.08673184  0.56165042  1
  Se  Se123  1  0.41171703  0.40952970  0.05844698  1
  Se  Se124  1  0.41553750  0.40680084  0.56075261  1
  Se  Se125  1  0.41852590  0.75549265  0.05142253  1
  Se  Se126  1  0.40693311  0.74048737  0.55118792  1
  Se  Se127  1  0.74566522  0.07696805  0.06148212  1
  Se  Se128  1  0.74594908  0.08095600  0.56964856  1
  Se  Se129  1  0.75059050  0.41295540  0.05137349  1
  Se  Se130  1  0.75584683  0.42336904  0.54580890  1
  Se  Se131  1  0.75176309  0.75158651  0.04955788  1
  Se  Se132  1  0.75538811  0.75892991  0.55676486  1
  Se  Se133  1  0.26062797  0.25753571  0.05544362  1
  Se  Se134  1  0.25684744  0.25632625  0.56416120  1
  Se  Se135  1  0.25385976  0.58767562  0.06246252  1
  Se  Se136  1  0.24412483  0.57683391  0.54609279  1
  Se  Se137  1  0.24585061  0.92077181  0.04740755  1
  Se  Se138  1  0.25324545  0.91792409  0.56247375  1
  Se  Se139  1  0.58497933  0.25336099  0.05732460  1
  Se  Se140  1  0.58859370  0.24873695  0.55376855  1
  Se  Se141  1  0.59315504  0.59024377  0.06518438  1
  Se  Se142  1  0.59327754  0.59368800  0.56257939  1
  Se  Se143  1  0.58399721  0.91416354  0.05261459  1
  Se  Se144  1  0.58649380  0.92631861  0.56909213  1
  Se  Se145  1  0.91826558  0.24945952  0.05692666  1
  Se  Se146  1  0.92501662  0.25563203  0.55845948  1
  Se  Se147  1  0.91092826  0.56589302  0.05028021  1
  Se  Se148  1  0.91740039  0.58322423  0.55089334  1
  Se  Se149  1  0.91290987  0.91480283  0.05521465  1
  Se  Se150  1  0.90917886  0.91441675  0.54910333  1
  Se  Se151  1  0.07689992  0.25098960  0.43674883  1
  Se  Se152  1  0.07952674  0.25478301  0.94133839  1
  Se  Se153  1  0.08478984  0.58048043  0.44594477  1
  Se  Se154  1  0.06808792  0.59081541  0.94206471  1
  Se  Se155  1  0.07611966  0.92074773  0.44051998  1
  Se  Se156  1  0.08749241  0.91684853  0.94651735  1
  Se  Se157  1  0.43417080  0.24240853  0.45473966  1
  Se  Se158  1  0.40933808  0.26305795  0.93917304  1
  Se  Se159  1  0.41772872  0.58379659  0.43654821  1
  Se  Se160  1  0.40794095  0.58871410  0.94253136  1
  Se  Se161  1  0.40877193  0.92561725  0.44582290  1
  Se  Se162  1  0.42353274  0.91475749  0.94387707  1
  Se  Se163  1  0.74621689  0.25673245  0.44009218  1
  Se  Se164  1  0.73514034  0.25001721  0.93305328  1
  Se  Se165  1  0.75647803  0.58348195  0.45094408  1
  Se  Se166  1  0.74304009  0.57527355  0.94414559  1
  Se  Se167  1  0.74672316  0.91945429  0.44982592  1
  Se  Se168  1  0.75954497  0.90943211  0.94600282  1
  Se  Se169  1  0.25591264  0.07869229  0.44556259  1
  Se  Se170  1  0.25594073  0.07986808  0.93396210  1
  Se  Se171  1  0.25580483  0.40732527  0.45018147  1
  Se  Se172  1  0.25287399  0.40951108  0.94307890  1
  Se  Se173  1  0.25295607  0.74273841  0.43256568  1
  Se  Se174  1  0.24540674  0.75206372  0.94956648  1
  Se  Se175  1  0.58175811  0.08361740  0.45263232  1
  Se  Se176  1  0.59873280  0.07229379  0.93737279  1
  Se  Se177  1  0.59261410  0.41185373  0.44076769  1
  Se  Se178  1  0.58386550  0.41065390  0.93606147  1
  Se  Se179  1  0.59474371  0.74401115  0.44083808  1
  Se  Se180  1  0.58130098  0.74851926  0.94796529  1
  Se  Se181  1  0.92256409  0.07632678  0.44362235  1
  Se  Se182  1  0.92571494  0.07743553  0.93684660  1
  Se  Se183  1  0.91625255  0.41820359  0.44382865  1
  Se  Se184  1  0.90818204  0.41270078  0.94541067  1
  Se  Se185  1  0.91643607  0.75311651  0.44515353  1
  Se  Se186  1  0.92031907  0.74036429  0.95445457  1
  Se  Se187  1  0.25103586  0.25030153  0.30665838  1
  Se  Se188  1  0.24975543  0.25466984  0.80225090  1
  Se  Se189  1  0.25218555  0.58146357  0.30271565  1
  Se  Se190  1  0.23133042  0.57440894  0.80471887  1
  Se  Se191  1  0.24110570  0.90904528  0.30869950  1
  Se  Se192  1  0.25649358  0.91988036  0.80407874  1
  Se  Se193  1  0.58307639  0.25139464  0.30685428  1
  Se  Se194  1  0.59006511  0.26235251  0.79196674  1
  Se  Se195  1  0.58129341  0.57739708  0.31302347  1
  Se  Se196  1  0.58130626  0.58644807  0.79605715  1
  Se  Se197  1  0.57529819  0.91768077  0.30130360  1
  Se  Se198  1  0.59243033  0.91682954  0.80777381  1
  Se  Se199  1  0.91362478  0.25224020  0.30050860  1
  Se  Se200  1  0.91797115  0.25463371  0.79961477  1
  Se  Se201  1  0.92236458  0.58616340  0.30300376  1
  Se  Se202  1  0.90545565  0.57787653  0.81255925  1
  Se  Se203  1  0.91204623  0.91783355  0.30469636  1
  Se  Se204  1  0.92407991  0.91267106  0.80764893  1
  Se  Se205  1  0.07855551  0.08055087  0.30120550  1
  Se  Se206  1  0.08469911  0.08494355  0.79887393  1
  Se  Se207  1  0.08210138  0.41604443  0.30398579  1
  Se  Se208  1  0.07193408  0.41513728  0.79915903  1
  Se  Se209  1  0.07813497  0.74781297  0.29943182  1
  Se  Se210  1  0.08806824  0.75832588  0.81120770  1
  Se  Se211  1  0.41485088  0.09078094  0.31502575  1
  Se  Se212  1  0.43456074  0.09671880  0.80162702  1
  Se  Se213  1  0.41690202  0.41451126  0.30637705  1
  Se  Se214  1  0.41320635  0.42377517  0.80061155  1
  Se  Se215  1  0.41222386  0.74789344  0.29454024  1
  Se  Se216  1  0.42397233  0.75680352  0.81276986  1
  Se  Se217  1  0.74365808  0.08234374  0.30897923  1
  Se  Se218  1  0.75891606  0.08526779  0.79972742  1
  Se  Se219  1  0.75182228  0.41908944  0.30066802  1
  Se  Se220  1  0.74720785  0.41576717  0.79908964  1
  Se  Se221  1  0.75612829  0.75624209  0.31247161  1
  Se  Se222  1  0.74980557  0.74455582  0.80857568  1
  Se  Se223  1  0.23848626  0.09244133  0.18867233  1
  Se  Se224  1  0.25423860  0.08219406  0.69860671  1
  Se  Se225  1  0.25183100  0.41322667  0.19769522  1
  Se  Se226  1  0.25499331  0.41729290  0.69995390  1
  Se  Se227  1  0.25299984  0.74937898  0.19476454  1
  Se  Se228  1  0.24428171  0.75537326  0.69191306  1
  Se  Se229  1  0.57957033  0.08370398  0.20066608  1
  Se  Se230  1  0.60047092  0.07348918  0.70405271  1
  Se  Se231  1  0.58701045  0.41531290  0.20018138  1
  Se  Se232  1  0.58061536  0.41921617  0.69013192  1
  Se  Se233  1  0.58150893  0.75392252  0.18916168  1
  Se  Se234  1  0.58768236  0.75135602  0.70056738  1
  Se  Se235  1  0.90915572  0.08452784  0.20191595  1
  Se  Se236  1  0.92216583  0.08033585  0.69570833  1
  Se  Se237  1  0.92032104  0.41254295  0.19728692  1
  Se  Se238  1  0.91500366  0.41886217  0.69201278  1
  Se  Se239  1  0.91443902  0.74939650  0.19279633  1
  Se  Se240  1  0.91210770  0.75223837  0.69259282  1
  Se  Se241  1  0.08101992  0.25316106  0.20013647  1
  Se  Se242  1  0.08322444  0.25071827  0.69492729  1
  Se  Se243  1  0.08333462  0.58170712  0.19703862  1
  Se  Se244  1  0.08860623  0.57489842  0.69002560  1
  Se  Se245  1  0.07862454  0.91711669  0.19726004  1
  Se  Se246  1  0.08224645  0.91720656  0.69677927  1
  Se  Se247  1  0.41418193  0.25221421  0.20068632  1
  Se  Se248  1  0.42247076  0.24799827  0.70414630  1
  Se  Se249  1  0.41972621  0.58203365  0.19917829  1
  Se  Se250  1  0.41684042  0.58221021  0.68413352  1
  Se  Se251  1  0.41652716  0.91498584  0.18404771  1
  Se  Se252  1  0.41597995  0.91686823  0.70288558  1
  Se  Se253  1  0.74716649  0.25318163  0.19576725  1
  Se  Se254  1  0.75475496  0.25541527  0.69481235  1
  Se  Se255  1  0.76449748  0.58170036  0.18641216  1
  Se  Se256  1  0.74793663  0.58731712  0.69451888  1
  Se  Se257  1  0.74369366  0.91820424  0.19934378  1
  Se  Se258  1  0.75680636  0.91523005  0.70296321  1
