# generated using pymatgen
data_In86Cu29Se144
_symmetry_space_group_name_H-M   'P 1'
_cell_length_a   17.57599304
_cell_length_b   17.57952563
_cell_length_c   23.43033378
_cell_angle_alpha   90.02713785
_cell_angle_beta   89.99402975
_cell_angle_gamma   89.98699574
_symmetry_Int_Tables_number   1
_chemical_formula_structural   In86Cu29Se144
_chemical_formula_sum   'In86 Cu29 Se144'
_cell_volume   7239.44772804
_cell_formula_units_Z   1
loop_
 _symmetry_equiv_pos_site_id
 _symmetry_equiv_pos_as_xyz
  1  'x, y, z'
loop_
 _atom_site_type_symbol
 _atom_site_label
 _atom_site_symmetry_multiplicity
 _atom_site_fract_x
 _atom_site_fract_y
 _atom_site_fract_z
 _atom_site_occupancy
  In  In0  1  -0.00563965  0.15768868  0.12637217  1
  In  In1  1  -0.00988321  0.17782161  0.62982793  1
  In  In2  1  -0.01728110  0.51236610  0.12031272  1
  In  In3  1  -0.00837773  0.48954105  0.61963585  1
  In  In4  1  0.00747025  0.83789028  0.12607300  1
  In  In5  1  0.00750762  0.84087486  0.61885174  1
  In  In6  1  0.34998007  0.15711099  0.14315904  1
  In  In7  1  0.34525811  0.15708510  0.62565355  1
  In  In8  1  0.33622133  0.49510478  0.13017308  1
  In  In9  1  0.32657295  0.50828307  0.62956044  1
  In  In10  1  0.34429055  0.82481906  0.14777283  1
  In  In11  1  0.33654408  0.83643894  0.61827229  1
  In  In12  1  0.65880612  0.15976313  0.13131354  1
  In  In13  1  0.66137477  0.16840287  0.61562623  1
  In  In14  1  0.67488401  0.51312021  0.12351773  1
  In  In15  1  0.66690659  0.48205351  0.61912536  1
  In  In16  1  0.66352456  0.83229204  0.14454008  1
  In  In17  1  0.67703537  0.84633625  0.61302430  1
  In  In18  1  0.15636874  -0.00609039  0.37450510  1
  In  In19  1  0.16887496  -0.00412196  0.86617304  1
  In  In20  1  0.18573444  0.33577054  0.38059859  1
  In  In21  1  0.16171438  0.33082614  0.86185005  1
  In  In22  1  0.17804410  0.66329671  0.38039017  1
  In  In23  1  0.17601935  0.65628836  0.87505305  1
  In  In24  1  0.50337608  -0.00705972  0.37039618  1
  In  In25  1  0.50140584  -0.00098390  0.86707341  1
  In  In26  1  0.49772675  0.33518733  0.38154989  1
  In  In27  1  0.50583284  0.34018441  0.86781836  1
  In  In28  1  0.51540876  0.68847698  0.35432549  1
  In  In29  1  0.48258051  0.65997769  0.87643950  1
  In  In30  1  0.83225208  -0.00018544  0.37976545  1
  In  In31  1  0.83699813  0.00547652  0.86330224  1
  In  In32  1  0.82449766  0.33657291  0.39157218  1
  In  In33  1  0.83560090  0.33790169  0.86554081  1
  In  In34  1  0.83253963  0.66995407  0.37861940  1
  In  In35  1  0.82142244  0.66512389  0.87740439  1
  In  In36  1  -0.00237107  0.15437433  0.37827559  1
  In  In37  1  -0.00229127  0.16410759  0.86410670  1
  In  In38  1  0.00119424  0.50785346  0.38195930  1
  In  In39  1  0.00015778  0.49153009  0.87400831  1
  In  In40  1  -0.00951823  0.84157292  0.38582219  1
  In  In41  1  -0.00460284  0.84035434  0.86923275  1
  In  In42  1  0.35034266  0.17021389  0.36727354  1
  In  In43  1  0.33008446  0.16407984  0.86636032  1
  In  In44  1  0.33614959  0.50021087  0.37390944  1
  In  In45  1  0.34095612  0.50426174  0.86746429  1
  In  In46  1  0.33538541  0.83119628  0.37413013  1
  In  In47  1  0.33335295  0.83090604  0.86691022  1
  In  In48  1  0.67656250  0.16083794  0.38561103  1
  In  In49  1  0.66570565  0.16695187  0.86468402  1
  In  In50  1  0.66515673  0.50628229  0.37556577  1
  In  In51  1  0.67111780  0.49038998  0.87874656  1
  In  In52  1  0.66543085  0.83795208  0.37539959  1
  In  In53  1  0.65726338  0.83740656  0.87031870  1
  In  In54  1  0.16865090  -0.00129870  0.13354266  1
  In  In55  1  0.17715464  -0.00735152  0.62663280  1
  In  In56  1  0.17729842  0.34155876  0.12362542  1
  In  In57  1  0.15770703  0.34005921  0.63005311  1
  In  In58  1  0.16464824  0.67496746  0.12641278  1
  In  In59  1  0.17721073  0.67405677  0.61703276  1
  In  In60  1  0.50703510  -0.01036162  0.15099751  1
  In  In61  1  0.50051063  0.00244535  0.61712348  1
  In  In62  1  0.48483999  0.33423904  0.12831667  1
  In  In63  1  0.51159565  0.31903964  0.63013665  1
  In  In64  1  0.50476067  0.66303605  0.13487245  1
  In  In65  1  0.48569293  0.66802377  0.62401160  1
  In  In66  1  0.83439479  -0.00537968  0.13498405  1
  In  In67  1  0.83146217  0.00397823  0.62251175  1
  In  In68  1  0.82153234  0.34372072  0.12471622  1
  In  In69  1  0.82895284  0.33198508  0.61888955  1
  In  In70  1  0.82793690  0.65507191  0.12846038  1
  In  In71  1  0.83254602  0.66556134  0.61349329  1
  In  In72  1  0.49976410  0.50294830  0.49884264  1
  In  In73  1  0.50033935  0.82962911  0.01456870  1
  In  In74  1  0.16785178  0.16686420  0.00416134  1
  In  In75  1  0.00586556  0.66651148  0.75313478  1
  In  In76  1  0.16920607  0.16430683  0.50236737  1
  In  In77  1  0.66210997  0.66915112  0.74978217  1
  In  In78  1  0.83231274  0.16987108  -0.01377082  1
  In  In79  1  0.16308229  0.49872298  -0.00105719  1
  In  In80  1  0.16775136  0.83065284  -0.00153250  1
  In  In81  1  0.66476623  0.33279421  0.25972416  1
  In  In82  1  0.83403886  0.82727431  0.00499501  1
  In  In83  1  -0.00063416  0.66911144  0.24759824  1
  In  In84  1  0.00248105  0.32797183  0.24476859  1
  In  In85  1  0.49743334  0.16676619  0.00749914  1
  Cu  Cu86  1  0.16941263  0.16494282  0.74241145  1
  Cu  Cu87  1  0.33660699  0.33710701  0.50215054  1
  Cu  Cu88  1  0.82621890  0.16547081  0.74168983  1
  Cu  Cu89  1  0.16317889  0.83404913  0.25435871  1
  Cu  Cu90  1  0.33613157  -0.00205989  0.49614936  1
  Cu  Cu91  1  -0.00640880  0.00079385  0.50287666  1
  Cu  Cu92  1  0.67208254  0.00020022  0.00039100  1
  Cu  Cu93  1  0.00808552  0.66747835  0.49940722  1
  Cu  Cu94  1  0.65873752  0.65990533  0.00317268  1
  Cu  Cu95  1  0.49782952  0.16412342  0.74453216  1
  Cu  Cu96  1  0.16648786  0.50021414  0.74841695  1
  Cu  Cu97  1  0.00228574  0.33630510  0.50432626  1
  Cu  Cu98  1  0.33867025  0.67281337  0.49569207  1
  Cu  Cu99  1  0.49973726  0.49681662  0.25259798  1
  Cu  Cu100  1  0.83598236  0.16122704  0.25790034  1
  Cu  Cu101  1  0.83253193  0.83913756  0.26105761  1
  Cu  Cu102  1  0.49656616  0.49555155  0.74453063  1
  Cu  Cu103  1  0.17057430  0.49150577  0.25259889  1
  Cu  Cu104  1  0.66515071  0.66917436  0.49271362  1
  Cu  Cu105  1  0.50010928  0.84136848  0.74339519  1
  Cu  Cu106  1  0.17637235  0.83634507  0.74062940  1
  Cu  Cu107  1  0.17073480  0.16465073  0.25912218  1
  Cu  Cu108  1  0.83934622  0.84356566  0.74020986  1
  Cu  Cu109  1  -0.01004045  0.33471279  -0.00631530  1
  Cu  Cu110  1  0.33420025  -0.00866341  0.00439740  1
  Cu  Cu111  1  0.83051713  0.49133436  0.74365093  1
  Cu  Cu112  1  0.65904968  0.34982123  -0.00080113  1
  Cu  Cu113  1  0.33483420  0.33612165  -0.00031932  1
  Cu  Cu114  1  0.66483424  -0.00342219  0.49752666  1
  Se  Se115  1  0.07777524  0.07116848  0.05706313  1
  Se  Se116  1  0.07698687  0.07962235  0.56399723  1
  Se  Se117  1  0.06983019  0.40769528  0.05975095  1
  Se  Se118  1  0.08961577  0.42047769  0.55235756  1
  Se  Se119  1  0.06930192  0.73994875  0.05365245  1
  Se  Se120  1  0.08830447  0.75423164  0.55212492  1
  Se  Se121  1  0.41816638  0.06553594  0.06585440  1
  Se  Se122  1  0.41840136  0.08586965  0.54614402  1
  Se  Se123  1  0.41554317  0.41907145  0.05399923  1
  Se  Se124  1  0.41562563  0.41567393  0.56528524  1
  Se  Se125  1  0.40436184  0.73978544  0.06539341  1
  Se  Se126  1  0.42263099  0.75505286  0.54884484  1
  Se  Se127  1  0.75063430  0.08344985  0.05845428  1
  Se  Se128  1  0.74742702  0.08121541  0.55126558  1
  Se  Se129  1  0.75030460  0.42574580  0.05126827  1
  Se  Se130  1  0.76567541  0.42994160  0.54988380  1
  Se  Se131  1  0.73226797  0.74807003  0.06279087  1
  Se  Se132  1  0.75013709  0.75094428  0.54787946  1
  Se  Se133  1  0.26710091  0.24856412  0.06272822  1
  Se  Se134  1  0.25580927  0.25646948  0.56320204  1
  Se  Se135  1  0.25038407  0.58607424  0.06142757  1
  Se  Se136  1  0.25830410  0.58634627  0.54996715  1
  Se  Se137  1  0.25815016  0.91145334  0.06643468  1
  Se  Se138  1  0.24975123  0.91689031  0.54885168  1
  Se  Se139  1  0.59220822  0.26142498  0.06170049  1
  Se  Se140  1  0.57763379  0.25150771  0.54766365  1
  Se  Se141  1  0.57490328  0.58063036  0.05827350  1
  Se  Se142  1  0.59108743  0.59269819  0.56149144  1
  Se  Se143  1  0.59346967  0.92666437  0.06560043  1
  Se  Se144  1  0.57782222  0.91323571  0.54809008  1
  Se  Se145  1  0.91622789  0.25516145  0.05913485  1
  Se  Se146  1  0.91684457  0.24903905  0.55079329  1
  Se  Se147  1  0.90887847  0.59320006  0.04939604  1
  Se  Se148  1  0.92250057  0.58367719  0.55125086  1
  Se  Se149  1  0.92232495  0.92620733  0.05701907  1
  Se  Se150  1  0.91132923  0.91407720  0.55474259  1
  Se  Se151  1  0.08028125  0.25624396  0.44046750  1
  Se  Se152  1  0.07600147  0.25395310  0.94009041  1
  Se  Se153  1  0.09210161  0.58231408  0.44852396  1
  Se  Se154  1  0.07245329  0.59183564  0.94058955  1
  Se  Se155  1  0.08196196  0.91907455  0.45246548  1
  Se  Se156  1  0.07880910  0.92435747  0.94143621  1
  Se  Se157  1  0.41440206  0.25041997  0.44844493  1
  Se  Se158  1  0.41131550  0.25093920  0.93965959  1
  Se  Se159  1  0.42226153  0.59663300  0.43453777  1
  Se  Se160  1  0.40685689  0.57990182  0.94743894  1
  Se  Se161  1  0.41886547  0.91391115  0.44278566  1
  Se  Se162  1  0.41714351  0.91664302  0.94253861  1
  Se  Se163  1  0.74971788  0.24707735  0.45634708  1
  Se  Se164  1  0.73364177  0.26335505  0.93845033  1
  Se  Se165  1  0.75047616  0.58288900  0.44583483  1
  Se  Se166  1  0.74500259  0.58254855  0.94731465  1
  Se  Se167  1  0.75180044  0.91277408  0.44719403  1
  Se  Se168  1  0.74854100  0.92013353  0.93912125  1
  Se  Se169  1  0.25591086  0.08060087  0.43628913  1
  Se  Se170  1  0.25793114  0.07293994  0.94382021  1
  Se  Se171  1  0.25630351  0.42473460  0.45086988  1
  Se  Se172  1  0.24914271  0.40632165  0.93727214  1
  Se  Se173  1  0.24890072  0.75651388  0.44825555  1
  Se  Se174  1  0.26306493  0.74136176  0.94340210  1
  Se  Se175  1  0.58035953  0.07774891  0.44326161  1
  Se  Se176  1  0.58841389  0.07973582  0.94250765  1
  Se  Se177  1  0.59579566  0.41024450  0.44697402  1
  Se  Se178  1  0.57051392  0.42506582  0.94506282  1
  Se  Se179  1  0.57934700  0.75125505  0.44223754  1
  Se  Se180  1  0.58552495  0.74566937  0.94229288  1
  Se  Se181  1  0.91142553  0.08597210  0.45116218  1
  Se  Se182  1  0.92747761  0.07313598  0.93997907  1
  Se  Se183  1  0.92118211  0.41981050  0.44823583  1
  Se  Se184  1  0.90781363  0.41895208  0.94206048  1
  Se  Se185  1  0.91675360  0.74723709  0.45001287  1
  Se  Se186  1  0.92317413  0.74428722  0.93761252  1
  Se  Se187  1  0.25417035  0.25175387  0.30663742  1
  Se  Se188  1  0.25048630  0.24942347  0.79854749  1
  Se  Se189  1  0.24856068  0.57964500  0.30514743  1
  Se  Se190  1  0.25238823  0.58413583  0.79907670  1
  Se  Se191  1  0.24639695  0.91600736  0.30850676  1
  Se  Se192  1  0.25774999  0.91926845  0.79902949  1
  Se  Se193  1  0.57947104  0.24026219  0.31709498  1
  Se  Se194  1  0.57952647  0.24892039  0.79997315  1
  Se  Se195  1  0.58806670  0.58095859  0.30004296  1
  Se  Se196  1  0.57541432  0.57582058  0.80875382  1
  Se  Se197  1  0.57634531  0.90188559  0.30103669  1
  Se  Se198  1  0.58721624  0.92135079  0.79709940  1
  Se  Se199  1  0.91228523  0.24949883  0.31365696  1
  Se  Se200  1  0.91043388  0.24594273  0.79973250  1
  Se  Se201  1  0.91262561  0.57754219  0.30678493  1
  Se  Se202  1  0.90427758  0.57710266  0.80568442  1
  Se  Se203  1  0.92078004  0.92179873  0.30905358  1
  Se  Se204  1  0.92320229  0.92309276  0.79641477  1
  Se  Se205  1  0.08024866  0.08268780  0.30436993  1
  Se  Se206  1  0.08761689  0.08321009  0.80052118  1
  Se  Se207  1  0.08686121  0.41608681  0.31197641  1
  Se  Se208  1  0.07716896  0.41832439  0.79815835  1
  Se  Se209  1  0.08312746  0.75370046  0.31517416  1
  Se  Se210  1  0.09996509  0.75999549  0.80883012  1
  Se  Se211  1  0.41378753  0.07161306  0.30234294  1
  Se  Se212  1  0.41624905  0.08094732  0.80141022  1
  Se  Se213  1  0.41931145  0.41339680  0.30785033  1
  Se  Se214  1  0.41305419  0.41227989  0.79956846  1
  Se  Se215  1  0.39267580  0.73042137  0.30449266  1
  Se  Se216  1  0.42597212  0.75394585  0.80210637  1
  Se  Se217  1  0.74886185  0.08051976  0.30885518  1
  Se  Se218  1  0.74573414  0.08088676  0.79808536  1
  Se  Se219  1  0.76207122  0.42270258  0.31067840  1
  Se  Se220  1  0.74291752  0.41482497  0.79998717  1
  Se  Se221  1  0.75091808  0.75003201  0.30843490  1
  Se  Se222  1  0.76032107  0.76361287  0.80308203  1
  Se  Se223  1  0.25052079  0.08108912  0.20166873  1
  Se  Se224  1  0.25544106  0.08076603  0.69367933  1
  Se  Se225  1  0.25637657  0.40919366  0.20059650  1
  Se  Se226  1  0.25050677  0.41623067  0.69603228  1
  Se  Se227  1  0.24274192  0.74494758  0.20293824  1
  Se  Se228  1  0.25837237  0.74990611  0.69050213  1
  Se  Se229  1  0.58661622  0.08676353  0.20702691  1
  Se  Se230  1  0.58198131  0.08477708  0.68818323  1
  Se  Se231  1  0.58255973  0.41967483  0.19053075  1
  Se  Se232  1  0.58577428  0.41435014  0.69617039  1
  Se  Se233  1  0.56298265  0.76319943  0.20386854  1
  Se  Se234  1  0.58073634  0.75913648  0.68433519  1
  Se  Se235  1  0.91889179  0.08069899  0.20075881  1
  Se  Se236  1  0.91577666  0.08243512  0.69410879  1
  Se  Se237  1  0.90856686  0.42513821  0.19526999  1
  Se  Se238  1  0.91584432  0.40881956  0.69271131  1
  Se  Se239  1  0.90573366  0.76232800  0.19094712  1
  Se  Se240  1  0.91455776  0.75067862  0.68840928  1
  Se  Se241  1  0.09831667  0.23805032  0.18709005  1
  Se  Se242  1  0.08119866  0.25151337  0.69802211  1
  Se  Se243  1  0.08915560  0.56965886  0.19072162  1
  Se  Se244  1  0.08805100  0.58040427  0.68572087  1
  Se  Se245  1  0.08059606  0.91760146  0.20020790  1
  Se  Se246  1  0.08480179  0.91722393  0.69450372  1
  Se  Se247  1  0.42634388  0.24951847  0.20510578  1
  Se  Se248  1  0.41312617  0.25087101  0.69573658  1
  Se  Se249  1  0.41536307  0.57991129  0.19927892  1
  Se  Se250  1  0.41450312  0.58665449  0.69897804  1
  Se  Se251  1  0.39951450  0.93091018  0.21000844  1
  Se  Se252  1  0.41619331  0.92172607  0.68836360  1
  Se  Se253  1  0.75899561  0.24305154  0.19539777  1
  Se  Se254  1  0.74522418  0.24940804  0.68735291  1
  Se  Se255  1  0.74370393  0.58877417  0.20197663  1
  Se  Se256  1  0.75295822  0.58042786  0.68885173  1
  Se  Se257  1  0.74828472  0.92176384  0.20544152  1
  Se  Se258  1  0.74658612  0.92146351  0.69264803  1
