# generated using pymatgen
data_In86Cu29Se144
_symmetry_space_group_name_H-M   'P 1'
_cell_length_a   17.58054287
_cell_length_b   17.57939323
_cell_length_c   23.44466604
_cell_angle_alpha   89.98849303
_cell_angle_beta   89.96204378
_cell_angle_gamma   90.00891192
_symmetry_Int_Tables_number   1
_chemical_formula_structural   In86Cu29Se144
_chemical_formula_sum   'In86 Cu29 Se144'
_cell_volume   7245.69591660
_cell_formula_units_Z   1
loop_
 _symmetry_equiv_pos_site_id
 _symmetry_equiv_pos_as_xyz
  1  'x, y, z'
loop_
 _atom_site_type_symbol
 _atom_site_label
 _atom_site_symmetry_multiplicity
 _atom_site_fract_x
 _atom_site_fract_y
 _atom_site_fract_z
 _atom_site_occupancy
  In  In0  1  0.01009182  0.17723423  0.11877811  1
  In  In1  1  0.01267555  0.16226646  0.63010569  1
  In  In2  1  -0.00443825  0.49127163  0.12373494  1
  In  In3  1  0.00199627  0.49970948  0.62466705  1
  In  In4  1  0.00578118  0.83338545  0.11249498  1
  In  In5  1  0.00292002  0.80970231  0.62886483  1
  In  In6  1  0.31600676  0.16295207  0.12561965  1
  In  In7  1  0.32646339  0.16289347  0.61962991  1
  In  In8  1  0.32925267  0.51200870  0.12699527  1
  In  In9  1  0.33006585  0.50089830  0.62039044  1
  In  In10  1  0.33318943  0.83055426  0.13112238  1
  In  In11  1  0.32758864  0.83003117  0.62322583  1
  In  In12  1  0.68205823  0.16882829  0.12364030  1
  In  In13  1  0.66547920  0.17762137  0.62102186  1
  In  In14  1  0.69254564  0.48849125  0.14798376  1
  In  In15  1  0.67338684  0.50746251  0.60785702  1
  In  In16  1  0.66393796  0.81967412  0.12827454  1
  In  In17  1  0.66211332  0.83846843  0.61989143  1
  In  In18  1  0.18012139  -0.00972796  0.38429935  1
  In  In19  1  0.17664572  -0.00908418  0.87940258  1
  In  In20  1  0.15204884  0.34775760  0.38146756  1
  In  In21  1  0.13633980  0.35776375  0.88062863  1
  In  In22  1  0.17771736  0.65289939  0.37844858  1
  In  In23  1  0.16792914  0.66859635  0.87099788  1
  In  In24  1  0.48526284  0.00971609  0.38103598  1
  In  In25  1  0.48801367  0.00404973  0.87169300  1
  In  In26  1  0.50766501  0.33058985  0.37933148  1
  In  In27  1  0.50345630  0.33647327  0.87208564  1
  In  In28  1  0.49763273  0.66984198  0.38415839  1
  In  In29  1  0.49294295  0.67393836  0.87012138  1
  In  In30  1  0.83489591  0.00392640  0.37394522  1
  In  In31  1  0.83385896  0.00181683  0.88173060  1
  In  In32  1  0.84721809  0.35747428  0.35892736  1
  In  In33  1  0.85013503  0.33164071  0.87627803  1
  In  In34  1  0.81275146  0.65265667  0.36902781  1
  In  In35  1  0.85601997  0.64688973  0.89191932  1
  In  In36  1  -0.00237764  0.18576691  0.37600823  1
  In  In37  1  -0.01088293  0.18395316  0.87922257  1
  In  In38  1  0.01037172  0.48991431  0.37720827  1
  In  In39  1  -0.00219798  0.50522350  0.86790439  1
  In  In40  1  0.00370631  0.84049316  0.37907536  1
  In  In41  1  0.01707534  0.81994401  0.88568070  1
  In  In42  1  0.33945557  0.16299474  0.37944933  1
  In  In43  1  0.32784489  0.15409400  0.86893553  1
  In  In44  1  0.31833050  0.51405827  0.37883743  1
  In  In45  1  0.31572236  0.50847932  0.87488083  1
  In  In46  1  0.33117556  0.82960596  0.37719641  1
  In  In47  1  0.30800361  0.81197134  0.85447734  1
  In  In48  1  0.65208514  0.17436459  0.37624946  1
  In  In49  1  0.67851071  0.17991163  0.87610146  1
  In  In50  1  0.66899236  0.50290375  0.38116179  1
  In  In51  1  0.67576166  0.51223912  0.87642189  1
  In  In52  1  0.65815850  0.81091906  0.37771360  1
  In  In53  1  0.66505034  0.83697539  0.87926430  1
  In  In54  1  0.17246152  0.00229234  0.12329186  1
  In  In55  1  0.17905908  0.00932789  0.62237634  1
  In  In56  1  0.15924896  0.32949743  0.12298172  1
  In  In57  1  0.16543916  0.33686062  0.62299549  1
  In  In58  1  0.17649698  0.66378398  0.11773207  1
  In  In59  1  0.16276147  0.66517291  0.62007043  1
  In  In60  1  0.49323544  -0.01336083  0.13189016  1
  In  In61  1  0.48614646  -0.01463055  0.61116758  1
  In  In62  1  0.50474058  0.35020179  0.13129310  1
  In  In63  1  0.50405299  0.33693973  0.60977996  1
  In  In64  1  0.50162977  0.66692521  0.13546946  1
  In  In65  1  0.48992928  0.65067255  0.60910710  1
  In  In66  1  0.84410953  0.00701610  0.11372053  1
  In  In67  1  0.83619995  -0.00669730  0.62891936  1
  In  In68  1  0.84281107  0.33784639  0.12745788  1
  In  In69  1  0.84184157  0.34815481  0.63836034  1
  In  In70  1  0.82940597  0.65847334  0.11929571  1
  In  In71  1  0.84886911  0.65432069  0.63168309  1
  In  In72  1  -0.00156134  0.66033442  0.24770058  1
  In  In73  1  0.50042620  0.50403701  0.00236167  1
  In  In74  1  0.65853289  0.00250622  0.75743264  1
  In  In75  1  0.67002759  0.66789170  0.74242291  1
  In  In76  1  0.32353560  0.33653487  0.74383495  1
  In  In77  1  0.49737971  0.83449968  0.00353317  1
  In  In78  1  0.83555869  0.82175100  0.50087706  1
  In  In79  1  0.83293336  0.16875273  0.50121947  1
  In  In80  1  0.00346598  0.00197196  0.75680443  1
  In  In81  1  0.66940513  0.33557268  0.75089310  1
  In  In82  1  0.66354294  0.00059643  0.25324456  1
  In  In83  1  0.00907979  0.00727253  0.24526668  1
  In  In84  1  0.33433926  0.33374224  0.25362454  1
  In  In85  1  0.50307800  0.16701145  -0.00527965  1
  Cu  Cu86  1  0.01282859  -0.00078409  0.50498796  1
  Cu  Cu87  1  0.49463184  0.16633142  0.25422410  1
  Cu  Cu88  1  0.82988123  0.83308061  0.24532588  1
  Cu  Cu89  1  0.67866087  0.00081322  -0.00133812  1
  Cu  Cu90  1  0.00749474  0.66306872  -0.00005720  1
  Cu  Cu91  1  0.32060968  0.33064342  -0.00173010  1
  Cu  Cu92  1  0.33273143  -0.00130077  0.50070104  1
  Cu  Cu93  1  0.16738053  0.17308256  0.75388725  1
  Cu  Cu94  1  0.32811588  0.66939296  0.50016288  1
  Cu  Cu95  1  0.17452525  0.82317564  0.25239182  1
  Cu  Cu96  1  0.16998995  0.16380484  0.25187576  1
  Cu  Cu97  1  0.83259269  0.18376716  0.24766442  1
  Cu  Cu98  1  -0.00129563  0.33747584  0.00108175  1
  Cu  Cu99  1  0.16474901  0.83274229  0.74690754  1
  Cu  Cu100  1  0.33413784  0.33584809  0.49576803  1
  Cu  Cu101  1  0.50204286  0.50854848  0.25907525  1
  Cu  Cu102  1  0.67229639  0.33470624  0.49662697  1
  Cu  Cu103  1  0.66153402  -0.00464745  0.49451123  1
  Cu  Cu104  1  0.83250921  0.82785969  0.75951027  1
  Cu  Cu105  1  0.48448840  0.82976708  0.73893011  1
  Cu  Cu106  1  0.67945084  0.33617458  0.00585130  1
  Cu  Cu107  1  0.00100941  0.33504423  0.50138226  1
  Cu  Cu108  1  0.00313872  0.00186429  -0.00535006  1
  Cu  Cu109  1  0.67349043  0.66174346  0.00911086  1
  Cu  Cu110  1  0.33076812  -0.00307481  0.00028025  1
  Cu  Cu111  1  0.49240180  0.82944006  0.25724023  1
  Cu  Cu112  1  0.49539086  0.50020541  0.73974165  1
  Cu  Cu113  1  -0.00089160  0.65934758  0.50101159  1
  Cu  Cu114  1  0.49322061  0.15764512  0.74078753  1
  Se  Se115  1  0.08386057  0.07978682  0.05632076  1
  Se  Se116  1  0.09120818  0.08944156  0.55434965  1
  Se  Se117  1  0.08537592  0.41839427  0.05335557  1
  Se  Se118  1  0.08495917  0.41988828  0.55300168  1
  Se  Se119  1  0.09205522  0.74820823  0.05018954  1
  Se  Se120  1  0.08137337  0.74985984  0.54759923  1
  Se  Se121  1  0.41547356  0.07632797  0.05830642  1
  Se  Se122  1  0.41630043  0.08788079  0.55094238  1
  Se  Se123  1  0.40750162  0.40697532  0.05672336  1
  Se  Se124  1  0.41492272  0.42182617  0.54981993  1
  Se  Se125  1  0.41285011  0.73862272  0.05982127  1
  Se  Se126  1  0.41327021  0.75252320  0.55237729  1
  Se  Se127  1  0.75667441  0.09100857  0.04898384  1
  Se  Se128  1  0.74299040  0.07009473  0.55828206  1
  Se  Se129  1  0.75509072  0.42312957  0.06083741  1
  Se  Se130  1  0.75774542  0.40603619  0.55776377  1
  Se  Se131  1  0.75320386  0.75554856  0.05505144  1
  Se  Se132  1  0.74958544  0.73851395  0.56708075  1
  Se  Se133  1  0.24286706  0.24551395  0.05348116  1
  Se  Se134  1  0.25151793  0.25632146  0.55486031  1
  Se  Se135  1  0.25220977  0.57579858  0.04819986  1
  Se  Se136  1  0.24586083  0.58212598  0.55153806  1
  Se  Se137  1  0.25473593  0.91292565  0.05913046  1
  Se  Se138  1  0.24724714  0.91609503  0.55335087  1
  Se  Se139  1  0.58714863  0.26026412  0.05918324  1
  Se  Se140  1  0.58608399  0.24727828  0.54518571  1
  Se  Se141  1  0.59221780  0.58179448  0.06879258  1
  Se  Se142  1  0.58550972  0.58334184  0.54301421  1
  Se  Se143  1  0.59425145  0.92649648  0.05962641  1
  Se  Se144  1  0.57950282  0.90956237  0.54604765  1
  Se  Se145  1  0.91605355  0.25190433  0.05431735  1
  Se  Se146  1  0.92293630  0.25387347  0.56416852  1
  Se  Se147  1  0.92174217  0.58275242  0.05448322  1
  Se  Se148  1  0.91422676  0.57590040  0.55198478  1
  Se  Se149  1  0.91920721  0.91678112  0.04759114  1
  Se  Se150  1  0.92635043  0.91748587  0.55976283  1
  Se  Se151  1  0.08498442  0.24983342  0.45031606  1
  Se  Se152  1  0.08322601  0.25230138  0.94811584  1
  Se  Se153  1  0.08513943  0.57921722  0.44608369  1
  Se  Se154  1  0.08377290  0.58303551  0.93824197  1
  Se  Se155  1  0.08917787  0.91165322  0.45056269  1
  Se  Se156  1  0.09106559  0.91531504  0.94983983  1
  Se  Se157  1  0.41926609  0.25046310  0.44620218  1
  Se  Se158  1  0.40790429  0.25768235  0.93805303  1
  Se  Se159  1  0.41068138  0.58296853  0.44845751  1
  Se  Se160  1  0.41103966  0.59168238  0.94141632  1
  Se  Se161  1  0.41462532  0.91406562  0.44647129  1
  Se  Se162  1  0.40674742  0.91560248  0.93812081  1
  Se  Se163  1  0.75331876  0.25716224  0.43432656  1
  Se  Se164  1  0.75902240  0.25560733  0.94706359  1
  Se  Se165  1  0.75166413  0.58227653  0.45237754  1
  Se  Se166  1  0.75465022  0.57705982  0.95511812  1
  Se  Se167  1  0.74822013  0.91739194  0.43877032  1
  Se  Se168  1  0.75463096  0.91051162  0.94680695  1
  Se  Se169  1  0.25086877  0.08686486  0.44920046  1
  Se  Se170  1  0.25099805  0.08460448  0.94765620  1
  Se  Se171  1  0.24727100  0.41983341  0.44693446  1
  Se  Se172  1  0.24430279  0.41796356  0.94330598  1
  Se  Se173  1  0.24334226  0.75090597  0.44586595  1
  Se  Se174  1  0.24749587  0.75336261  0.94177739  1
  Se  Se175  1  0.58117486  0.08464943  0.44546083  1
  Se  Se176  1  0.59544343  0.07412264  0.93564344  1
  Se  Se177  1  0.58311010  0.41756436  0.44906793  1
  Se  Se178  1  0.59531803  0.41039655  0.94290055  1
  Se  Se179  1  0.58342927  0.74536386  0.45636051  1
  Se  Se180  1  0.58971261  0.73665250  0.94658954  1
  Se  Se181  1  0.92852620  0.07530245  0.44437421  1
  Se  Se182  1  0.91828190  0.08720273  0.94587512  1
  Se  Se183  1  0.91714357  0.41585650  0.44592691  1
  Se  Se184  1  0.92073843  0.42342954  0.94455218  1
  Se  Se185  1  0.92134152  0.73623019  0.43445836  1
  Se  Se186  1  0.91982989  0.75170733  0.95273629  1
  Se  Se187  1  0.24352655  0.24696927  0.31504079  1
  Se  Se188  1  0.24136285  0.25666276  0.81676677  1
  Se  Se189  1  0.24562900  0.58091653  0.29788414  1
  Se  Se190  1  0.25302514  0.59104097  0.79955951  1
  Se  Se191  1  0.25007586  0.91387850  0.30568517  1
  Se  Se192  1  0.24729843  0.92244041  0.79616483  1
  Se  Se193  1  0.57998892  0.25291859  0.30016961  1
  Se  Se194  1  0.57297675  0.23627903  0.80314239  1
  Se  Se195  1  0.58390456  0.58968083  0.31447743  1
  Se  Se196  1  0.57557895  0.57670684  0.80446979  1
  Se  Se197  1  0.57559716  0.91236971  0.31531437  1
  Se  Se198  1  0.56507930  0.90112733  0.80631782  1
  Se  Se199  1  0.92428134  0.25898361  0.29859581  1
  Se  Se200  1  0.91435431  0.24872895  0.79885293  1
  Se  Se201  1  0.91191642  0.57190187  0.30978398  1
  Se  Se202  1  0.91099650  0.58932726  0.80207475  1
  Se  Se203  1  0.91183106  0.91338845  0.30281148  1
  Se  Se204  1  0.91623015  0.90761620  0.81615635  1
  Se  Se205  1  0.08958257  0.08828424  0.31742272  1
  Se  Se206  1  0.09112904  0.09219735  0.81741491  1
  Se  Se207  1  0.08271705  0.41405541  0.29956570  1
  Se  Se208  1  0.06413651  0.41186286  0.79428005  1
  Se  Se209  1  0.08507986  0.75258820  0.31087030  1
  Se  Se210  1  0.08123875  0.75125714  0.80158014  1
  Se  Se211  1  0.40990305  0.08125585  0.30206926  1
  Se  Se212  1  0.41001444  0.07819148  0.79616079  1
  Se  Se213  1  0.41988653  0.42477261  0.31591331  1
  Se  Se214  1  0.41978431  0.42337347  0.80612058  1
  Se  Se215  1  0.41182560  0.74286712  0.30959289  1
  Se  Se216  1  0.41041919  0.74087399  0.79430295  1
  Se  Se217  1  0.75711070  0.09819581  0.30758157  1
  Se  Se218  1  0.75900872  0.09094913  0.80628796  1
  Se  Se219  1  0.73178208  0.41092378  0.30704078  1
  Se  Se220  1  0.75851848  0.42404929  0.81048985  1
  Se  Se221  1  0.74926403  0.75300257  0.30209349  1
  Se  Se222  1  0.75080893  0.74645577  0.81686004  1
  Se  Se223  1  0.25052680  0.07673008  0.20073490  1
  Se  Se224  1  0.24985596  0.09094498  0.69852761  1
  Se  Se225  1  0.24573840  0.41792989  0.19066105  1
  Se  Se226  1  0.23397841  0.43504065  0.69465207  1
  Se  Se227  1  0.25252777  0.74020096  0.19566310  1
  Se  Se228  1  0.24514636  0.74741552  0.69178200  1
  Se  Se229  1  0.57662212  0.09109055  0.18866591  1
  Se  Se230  1  0.57823577  0.08183223  0.68240169  1
  Se  Se231  1  0.58356173  0.42241592  0.20576893  1
  Se  Se232  1  0.58229053  0.42291108  0.68478651  1
  Se  Se233  1  0.58173769  0.75254156  0.20411037  1
  Se  Se234  1  0.57243769  0.75204447  0.68434526  1
  Se  Se235  1  0.91097934  0.09562598  0.19157081  1
  Se  Se236  1  0.90976638  0.08776370  0.69473081  1
  Se  Se237  1  0.91249199  0.42472735  0.19975856  1
  Se  Se238  1  0.94356562  0.40804658  0.70381516  1
  Se  Se239  1  0.91627658  0.75892606  0.18673143  1
  Se  Se240  1  0.91358939  0.74734904  0.70330234  1
  Se  Se241  1  0.08657551  0.24618012  0.19815728  1
  Se  Se242  1  0.08869149  0.25256053  0.69574927  1
  Se  Se243  1  0.09046863  0.57737646  0.18671314  1
  Se  Se244  1  0.05733177  0.61035500  0.68589241  1
  Se  Se245  1  0.09217287  0.90374460  0.19287050  1
  Se  Se246  1  0.08485693  0.91518616  0.68715434  1
  Se  Se247  1  0.42069918  0.24361057  0.18635439  1
  Se  Se248  1  0.42378999  0.25229251  0.68602079  1
  Se  Se249  1  0.41682121  0.58100532  0.19972385  1
  Se  Se250  1  0.41254593  0.58511166  0.68964502  1
  Se  Se251  1  0.41091040  0.91431611  0.20405732  1
  Se  Se252  1  0.40698842  0.92176984  0.69095035  1
  Se  Se253  1  0.74555187  0.26073515  0.19391185  1
  Se  Se254  1  0.75932797  0.24096187  0.69342138  1
  Se  Se255  1  0.74607859  0.60486530  0.20040014  1
  Se  Se256  1  0.75583358  0.56476358  0.69351454  1
  Se  Se257  1  0.75641018  0.92076696  0.18654498  1
  Se  Se258  1  0.75222185  0.90645410  0.69976296  1
