# generated using pymatgen
data_In86Cu29Se144
_symmetry_space_group_name_H-M   'P 1'
_cell_length_a   17.58147885
_cell_length_b   17.58832598
_cell_length_c   23.44534674
_cell_angle_alpha   89.98303837
_cell_angle_beta   90.01335034
_cell_angle_gamma   90.01748780
_symmetry_Int_Tables_number   1
_chemical_formula_structural   In86Cu29Se144
_chemical_formula_sum   'In86 Cu29 Se144'
_cell_volume   7249.97514434
_cell_formula_units_Z   1
loop_
 _symmetry_equiv_pos_site_id
 _symmetry_equiv_pos_as_xyz
  1  'x, y, z'
loop_
 _atom_site_type_symbol
 _atom_site_label
 _atom_site_symmetry_multiplicity
 _atom_site_fract_x
 _atom_site_fract_y
 _atom_site_fract_z
 _atom_site_occupancy
  In  In0  1  -0.00610920  0.15625696  0.11493924  1
  In  In1  1  -0.00896726  0.17929053  0.63336785  1
  In  In2  1  0.00152039  0.47171750  0.12586521  1
  In  In3  1  -0.00478448  0.50080307  0.62588245  1
  In  In4  1  -0.00868654  0.85995857  0.11422518  1
  In  In5  1  -0.01400644  0.84480901  0.63192007  1
  In  In6  1  0.31703155  0.15873856  0.12812364  1
  In  In7  1  0.34131035  0.15532156  0.61994491  1
  In  In8  1  0.33001119  0.50255041  0.12103926  1
  In  In9  1  0.33126173  0.49974760  0.61441949  1
  In  In10  1  0.34043870  0.82909819  0.13384188  1
  In  In11  1  0.33252808  0.83290840  0.62551247  1
  In  In12  1  0.67698253  0.14104865  0.11822692  1
  In  In13  1  0.66731073  0.16255803  0.62172452  1
  In  In14  1  0.67007974  0.51215868  0.12325528  1
  In  In15  1  0.67998455  0.51257528  0.61662489  1
  In  In16  1  0.67603525  0.84448736  0.11142865  1
  In  In17  1  0.67973325  0.82062870  0.63656025  1
  In  In18  1  0.16262372  0.00206982  0.35820379  1
  In  In19  1  0.15480889  0.01696896  0.89081934  1
  In  In20  1  0.16617109  0.34623934  0.37252771  1
  In  In21  1  0.14534625  0.33988485  0.89281209  1
  In  In22  1  0.16934505  0.65051354  0.37216986  1
  In  In23  1  0.14775029  0.67172266  0.87466331  1
  In  In24  1  0.51716080  0.00206936  0.36268533  1
  In  In25  1  0.50231710  -0.01134891  0.88690228  1
  In  In26  1  0.49868866  0.33273517  0.38262000  1
  In  In27  1  0.51363560  0.34244662  0.88112884  1
  In  In28  1  0.48867474  0.67014581  0.36989768  1
  In  In29  1  0.50865651  0.66487155  0.87541978  1
  In  In30  1  0.83521193  0.00083722  0.37332590  1
  In  In31  1  0.83169283  0.00125799  0.87694877  1
  In  In32  1  0.84145753  0.33115202  0.37717549  1
  In  In33  1  0.84360254  0.32456583  0.87755137  1
  In  In34  1  0.84839229  0.66698616  0.39297548  1
  In  In35  1  0.83649824  0.67175381  0.86700883  1
  In  In36  1  -0.00993706  0.15544053  0.36393001  1
  In  In37  1  -0.00789291  0.16346871  0.87943555  1
  In  In38  1  0.00880224  0.50258093  0.38112772  1
  In  In39  1  -0.00153949  0.50431657  0.87298543  1
  In  In40  1  -0.01275979  0.83728595  0.37760973  1
  In  In41  1  -0.01412400  0.82815576  0.87325502  1
  In  In42  1  0.33749382  0.17299307  0.36919897  1
  In  In43  1  0.32890692  0.15122692  0.88002959  1
  In  In44  1  0.32900808  0.50209629  0.37678166  1
  In  In45  1  0.33380016  0.49747747  0.87810635  1
  In  In46  1  0.34822246  0.83286014  0.35240119  1
  In  In47  1  0.33410361  0.85052849  0.88123051  1
  In  In48  1  0.68059170  0.15728501  0.38016138  1
  In  In49  1  0.68016719  0.16461781  0.87941709  1
  In  In50  1  0.67281192  0.49392229  0.38539164  1
  In  In51  1  0.65628271  0.49991390  0.87670843  1
  In  In52  1  0.67323740  0.84641362  0.36900025  1
  In  In53  1  0.67422557  0.83862872  0.88013422  1
  In  In54  1  0.14793698  0.02266122  0.14698562  1
  In  In55  1  0.16150204  -0.00863181  0.62452772  1
  In  In56  1  0.13567486  0.30714103  0.09845793  1
  In  In57  1  0.14915619  0.33512299  0.62661343  1
  In  In58  1  0.17921073  0.66640167  0.12210860  1
  In  In59  1  0.16279090  0.65170118  0.62228902  1
  In  In60  1  0.51991283  -0.02346634  0.14418601  1
  In  In61  1  0.50813313  0.01058023  0.61949506  1
  In  In62  1  0.48940633  0.33962770  0.12426474  1
  In  In63  1  0.50155011  0.33291656  0.61790815  1
  In  In64  1  0.49391295  0.66222041  0.12141272  1
  In  In65  1  0.51522606  0.67427250  0.62373915  1
  In  In66  1  0.83037838  0.00243219  0.11583327  1
  In  In67  1  0.83207912  0.00136984  0.62458590  1
  In  In68  1  0.88187719  0.31699589  0.13580390  1
  In  In69  1  0.84243967  0.34321033  0.61835088  1
  In  In70  1  0.82472584  0.67070692  0.12488810  1
  In  In71  1  0.83595197  0.66712126  0.62630552  1
  In  In72  1  0.32261365  0.33290043  0.24616465  1
  In  In73  1  0.49407626  0.16715682  0.00441965  1
  In  In74  1  0.16781865  0.83699400  0.00381489  1
  In  In75  1  0.66645883  0.67441688  0.25221054  1
  In  In76  1  0.67371592  0.33407666  0.75527558  1
  In  In77  1  0.50786353  0.83169227  0.49198471  1
  In  In78  1  0.32749580  0.33053616  0.75774267  1
  In  In79  1  0.00275743  0.66910272  0.25470845  1
  In  In80  1  0.67544935  0.32732551  0.25382145  1
  In  In81  1  0.33044218  0.66981804  0.74662793  1
  In  In82  1  0.16654475  0.17498581  0.49742998  1
  In  In83  1  0.83292836  0.49527600  0.00451767  1
  In  In84  1  0.32738350  -0.00263479  0.74849013  1
  In  In85  1  0.16277499  0.82429102  0.49402364  1
  Cu  Cu86  1  0.33083301  0.33829204  0.00346412  1
  Cu  Cu87  1  0.65829016  0.66918628  -0.00055973  1
  Cu  Cu88  1  0.16476521  0.49501164  0.24631151  1
  Cu  Cu89  1  0.50911965  0.83828754  0.75731916  1
  Cu  Cu90  1  0.50259560  0.15902938  0.25108381  1
  Cu  Cu91  1  0.33858748  0.66577612  -0.00105445  1
  Cu  Cu92  1  0.00323678  0.65838919  -0.00015830  1
  Cu  Cu93  1  0.15478315  0.16379005  0.75814897  1
  Cu  Cu94  1  -0.00209409  0.33784872  0.50053357  1
  Cu  Cu95  1  0.83734316  0.50350445  0.74338500  1
  Cu  Cu96  1  0.33266549  0.66221952  0.49311358  1
  Cu  Cu97  1  0.50529230  0.16041327  0.74520219  1
  Cu  Cu98  1  0.15031846  0.83920705  0.75289080  1
  Cu  Cu99  1  0.33447070  0.33418979  0.49502259  1
  Cu  Cu100  1  -0.00584696  0.00864147  0.49940122  1
  Cu  Cu101  1  0.66384004  0.34373466  0.00800110  1
  Cu  Cu102  1  0.66334772  0.32678639  0.50021313  1
  Cu  Cu103  1  0.82952698  0.83994179  0.75272828  1
  Cu  Cu104  1  0.67247982  -0.00116862  0.49804827  1
  Cu  Cu105  1  0.33573741  -0.00616341  0.01508311  1
  Cu  Cu106  1  0.50012426  0.50257463  0.24689026  1
  Cu  Cu107  1  0.33890963  0.00328394  0.49241841  1
  Cu  Cu108  1  0.83573948  0.16170481  0.75279075  1
  Cu  Cu109  1  0.67033633  0.66432230  0.50503947  1
  Cu  Cu110  1  0.16740237  0.83112669  0.24197897  1
  Cu  Cu111  1  0.83615434  0.84194925  0.24746074  1
  Cu  Cu112  1  0.82971652  0.15709210  0.24722238  1
  Cu  Cu113  1  0.15743879  0.49658646  0.75202508  1
  Cu  Cu114  1  0.51096464  0.50548542  0.74596700  1
  Se  Se115  1  0.08462352  0.06924608  0.05531264  1
  Se  Se116  1  0.07927249  0.08404775  0.55966847  1
  Se  Se117  1  0.09210358  0.42849184  0.04689946  1
  Se  Se118  1  0.08173108  0.42089341  0.55394140  1
  Se  Se119  1  0.07374478  0.74605729  0.06283051  1
  Se  Se120  1  0.07768256  0.75199355  0.56675097  1
  Se  Se121  1  0.41893529  0.07576549  0.07209396  1
  Se  Se122  1  0.42339776  0.08333573  0.54636286  1
  Se  Se123  1  0.41726186  0.42231443  0.05159397  1
  Se  Se124  1  0.41802704  0.41626341  0.55101378  1
  Se  Se125  1  0.41352382  0.75176208  0.05548714  1
  Se  Se126  1  0.41051608  0.74482509  0.55442276  1
  Se  Se127  1  0.77393491  0.10145289  0.04112080  1
  Se  Se128  1  0.75307590  0.08481036  0.55230863  1
  Se  Se129  1  0.75240586  0.40677233  0.07218331  1
  Se  Se130  1  0.74619838  0.41241501  0.55260854  1
  Se  Se131  1  0.75016523  0.74610425  0.04937047  1
  Se  Se132  1  0.75160728  0.75150553  0.55626964  1
  Se  Se133  1  0.25445903  0.24499045  0.05166802  1
  Se  Se134  1  0.25769651  0.25979681  0.56380871  1
  Se  Se135  1  0.25016056  0.58377986  0.04773477  1
  Se  Se136  1  0.24739197  0.58329341  0.54786817  1
  Se  Se137  1  0.24721349  0.92155586  0.07344648  1
  Se  Se138  1  0.25895533  0.92275747  0.55208237  1
  Se  Se139  1  0.58933242  0.25423733  0.06594590  1
  Se  Se140  1  0.58076483  0.24309433  0.55383099  1
  Se  Se141  1  0.58078996  0.58152841  0.05304198  1
  Se  Se142  1  0.57934083  0.58282328  0.55240171  1
  Se  Se143  1  0.58284000  0.92752082  0.05256020  1
  Se  Se144  1  0.59418013  0.91518937  0.55910175  1
  Se  Se145  1  0.91748071  0.24696755  0.04548331  1
  Se  Se146  1  0.91798165  0.24897341  0.55260598  1
  Se  Se147  1  0.92403494  0.58502955  0.06598966  1
  Se  Se148  1  0.90220587  0.57121249  0.55862448  1
  Se  Se149  1  0.88943478  0.90369985  0.04252470  1
  Se  Se150  1  0.91579261  0.92098894  0.55299040  1
  Se  Se151  1  0.07295918  0.25706693  0.43617241  1
  Se  Se152  1  0.09614193  0.22303046  0.94570478  1
  Se  Se153  1  0.07927840  0.59786091  0.44736381  1
  Se  Se154  1  0.08606639  0.57820006  0.94584991  1
  Se  Se155  1  0.08174005  0.93146459  0.44165014  1
  Se  Se156  1  0.06891095  0.91758348  0.94531300  1
  Se  Se157  1  0.41491881  0.24477320  0.44661331  1
  Se  Se158  1  0.40910611  0.25976737  0.93834045  1
  Se  Se159  1  0.42063363  0.58129412  0.44217501  1
  Se  Se160  1  0.41913463  0.58443165  0.94065429  1
  Se  Se161  1  0.41459703  0.91958199  0.43344725  1
  Se  Se162  1  0.41750808  0.91377621  0.95841482  1
  Se  Se163  1  0.75241554  0.25224033  0.44476817  1
  Se  Se164  1  0.73958492  0.26835343  0.94348030  1
  Se  Se165  1  0.75413039  0.58190077  0.45076239  1
  Se  Se166  1  0.74539588  0.58784385  0.94233653  1
  Se  Se167  1  0.75496229  0.91578460  0.44444107  1
  Se  Se168  1  0.77137447  0.90377481  0.94934757  1
  Se  Se169  1  0.25049238  0.07890605  0.43681113  1
  Se  Se170  1  0.25644189  0.07731522  0.95796507  1
  Se  Se171  1  0.24792533  0.41837785  0.44653732  1
  Se  Se172  1  0.24906351  0.41837812  0.94631810  1
  Se  Se173  1  0.26382769  0.75003998  0.43143806  1
  Se  Se174  1  0.25484088  0.74459981  0.93859613  1
  Se  Se175  1  0.58578069  0.07795356  0.44294514  1
  Se  Se176  1  0.59075478  0.08125903  0.94750126  1
  Se  Se177  1  0.58145388  0.41535827  0.44978193  1
  Se  Se178  1  0.58064167  0.42705030  0.95571492  1
  Se  Se179  1  0.59740847  0.73908483  0.43457565  1
  Se  Se180  1  0.58123383  0.75578499  0.94368734  1
  Se  Se181  1  0.91207643  0.08969656  0.44382097  1
  Se  Se182  1  0.89040626  0.10190589  0.94789484  1
  Se  Se183  1  0.91688787  0.42124729  0.44519544  1
  Se  Se184  1  0.92813960  0.40925876  0.94681041  1
  Se  Se185  1  0.92428575  0.75923503  0.45635202  1
  Se  Se186  1  0.91779357  0.73799312  0.94562894  1
  Se  Se187  1  0.23279917  0.24276443  0.30606992  1
  Se  Se188  1  0.24030004  0.23975942  0.81711755  1
  Se  Se189  1  0.25172190  0.57579677  0.29913738  1
  Se  Se190  1  0.24220323  0.57910641  0.80830619  1
  Se  Se191  1  0.24980509  0.91483476  0.29717790  1
  Se  Se192  1  0.23312457  0.91707027  0.81332660  1
  Se  Se193  1  0.57850161  0.24266627  0.31230142  1
  Se  Se194  1  0.57639617  0.24233891  0.81048927  1
  Se  Se195  1  0.58260286  0.57394551  0.31078979  1
  Se  Se196  1  0.59014899  0.58748339  0.80210577  1
  Se  Se197  1  0.57712290  0.89985969  0.29786769  1
  Se  Se198  1  0.58720971  0.92284934  0.81183458  1
  Se  Se199  1  0.90772311  0.24616702  0.30055741  1
  Se  Se200  1  0.91947535  0.24806675  0.80302399  1
  Se  Se201  1  0.91103338  0.58187857  0.31279401  1
  Se  Se202  1  0.91921197  0.58518416  0.80146137  1
  Se  Se203  1  0.92131218  0.92207836  0.30221647  1
  Se  Se204  1  0.91505364  0.92155978  0.80563018  1
  Se  Se205  1  0.07803469  0.08421116  0.29449501  1
  Se  Se206  1  0.07542821  0.07716922  0.80969315  1
  Se  Se207  1  0.07798277  0.42031599  0.30320505  1
  Se  Se208  1  0.08069543  0.41229736  0.80894294  1
  Se  Se209  1  0.09335359  0.76048663  0.31405376  1
  Se  Se210  1  0.07104739  0.74898765  0.80171534  1
  Se  Se211  1  0.41610582  0.08136177  0.30513726  1
  Se  Se212  1  0.42453660  0.08300412  0.80821304  1
  Se  Se213  1  0.42165321  0.41749779  0.30564072  1
  Se  Se214  1  0.43059229  0.42388430  0.80485263  1
  Se  Se215  1  0.42591475  0.74305847  0.28852044  1
  Se  Se216  1  0.41573092  0.76214068  0.80975258  1
  Se  Se217  1  0.74596040  0.07611280  0.30195608  1
  Se  Se218  1  0.74815922  0.08198342  0.80435997  1
  Se  Se219  1  0.75920144  0.42551785  0.30888976  1
  Se  Se220  1  0.76295826  0.42829319  0.81289081  1
  Se  Se221  1  0.76884204  0.75390863  0.31097638  1
  Se  Se222  1  0.74617483  0.75394890  0.80462649  1
  Se  Se223  1  0.25104761  0.08637986  0.20871321  1
  Se  Se224  1  0.23791253  0.09484775  0.69152311  1
  Se  Se225  1  0.23514601  0.41381916  0.18014386  1
  Se  Se226  1  0.24633680  0.42377030  0.69290285  1
  Se  Se227  1  0.25271210  0.74265389  0.19825861  1
  Se  Se228  1  0.23393438  0.76223265  0.69222167  1
  Se  Se229  1  0.59293043  0.08370200  0.19828489  1
  Se  Se230  1  0.59066168  0.07888259  0.69522023  1
  Se  Se231  1  0.58272497  0.42018162  0.19227384  1
  Se  Se232  1  0.58656337  0.41910547  0.68801334  1
  Se  Se233  1  0.58735009  0.75395346  0.18011054  1
  Se  Se234  1  0.58400629  0.74854924  0.70296377  1
  Se  Se235  1  0.91321090  0.07743357  0.18969416  1
  Se  Se236  1  0.91785317  0.08116796  0.69520150  1
  Se  Se237  1  0.90749661  0.42817218  0.20299556  1
  Se  Se238  1  0.91917430  0.41244267  0.69736063  1
  Se  Se239  1  0.91604725  0.75804775  0.18880939  1
  Se  Se240  1  0.91118185  0.75365261  0.69869629  1
  Se  Se241  1  0.06325197  0.25493681  0.18343287  1
  Se  Se242  1  0.08129639  0.25352181  0.70249170  1
  Se  Se243  1  0.08604004  0.58005084  0.18735410  1
  Se  Se244  1  0.07983832  0.58263660  0.69695932  1
  Se  Se245  1  0.07490567  0.91150543  0.19648621  1
  Se  Se246  1  0.07475778  0.92716187  0.69827706  1
  Se  Se247  1  0.42244295  0.24127868  0.19301102  1
  Se  Se248  1  0.42042728  0.24390354  0.69330083  1
  Se  Se249  1  0.41407704  0.58016494  0.19288352  1
  Se  Se250  1  0.42182210  0.57841521  0.68794518  1
  Se  Se251  1  0.40768641  0.92433099  0.20125885  1
  Se  Se252  1  0.42780111  0.91127315  0.69129531  1
  Se  Se253  1  0.75733605  0.24246520  0.18422219  1
  Se  Se254  1  0.75865621  0.24625357  0.69104015  1
  Se  Se255  1  0.75957389  0.57791711  0.19937518  1
  Se  Se256  1  0.74821120  0.58696541  0.69681192  1
  Se  Se257  1  0.75180200  0.91833837  0.18936719  1
  Se  Se258  1  0.74771372  0.92318828  0.69701084  1
