# generated using pymatgen
data_In86Cu29Se144
_symmetry_space_group_name_H-M   'P 1'
_cell_length_a   17.58765568
_cell_length_b   17.58439195
_cell_length_c   23.44847605
_cell_angle_alpha   89.97535645
_cell_angle_beta   89.97959854
_cell_angle_gamma   90.02226953
_symmetry_Int_Tables_number   1
_chemical_formula_structural   In86Cu29Se144
_chemical_formula_sum   'In86 Cu29 Se144'
_cell_volume   7251.86702708
_cell_formula_units_Z   1
loop_
 _symmetry_equiv_pos_site_id
 _symmetry_equiv_pos_as_xyz
  1  'x, y, z'
loop_
 _atom_site_type_symbol
 _atom_site_label
 _atom_site_symmetry_multiplicity
 _atom_site_fract_x
 _atom_site_fract_y
 _atom_site_fract_z
 _atom_site_occupancy
  In  In0  1  -0.00067159  0.17043867  0.12377990  1
  In  In1  1  -0.01541794  0.16782211  0.62510152  1
  In  In2  1  0.00310582  0.50105743  0.12974826  1
  In  In3  1  -0.00978083  0.50976092  0.62488333  1
  In  In4  1  0.01218080  0.82225196  0.12848200  1
  In  In5  1  0.00624910  0.82445284  0.62982472  1
  In  In6  1  0.33298097  0.18248515  0.12393637  1
  In  In7  1  0.33841438  0.15704013  0.63525154  1
  In  In8  1  0.32071558  0.48555025  0.11183025  1
  In  In9  1  0.34409747  0.49046027  0.63808557  1
  In  In10  1  0.31908989  0.84074201  0.11761908  1
  In  In11  1  0.34013483  0.82353312  0.63770880  1
  In  In12  1  0.66935638  0.16473592  0.12651662  1
  In  In13  1  0.67167376  0.17518684  0.61056452  1
  In  In14  1  0.66830724  0.49966194  0.11769351  1
  In  In15  1  0.66726390  0.49631595  0.62318123  1
  In  In16  1  0.66609079  0.82256379  0.12381331  1
  In  In17  1  0.65074086  0.83356291  0.62385840  1
  In  In18  1  0.16329607  0.00779492  0.36964005  1
  In  In19  1  0.16467742  0.00460357  0.87988747  1
  In  In20  1  0.16394888  0.34062269  0.35476927  1
  In  In21  1  0.17658881  0.32305323  0.88416627  1
  In  In22  1  0.16027850  0.66422707  0.36600836  1
  In  In23  1  0.16702664  0.66707452  0.87685213  1
  In  In24  1  0.50383266  0.00635819  0.39461342  1
  In  In25  1  0.49215515  0.01114049  0.87077848  1
  In  In26  1  0.49736019  0.33726137  0.38489940  1
  In  In27  1  0.51054721  0.34042191  0.86533951  1
  In  In28  1  0.50593991  0.65527588  0.39100147  1
  In  In29  1  0.49046144  0.65630851  0.86424260  1
  In  In30  1  0.84057437  0.00787071  0.37408745  1
  In  In31  1  0.84406055  -0.00112216  0.87379013  1
  In  In32  1  0.83817267  0.33161159  0.37742393  1
  In  In33  1  0.82715135  0.34092073  0.88024732  1
  In  In34  1  0.83923276  0.66119107  0.37855230  1
  In  In35  1  0.82667939  0.65209327  0.86308731  1
  In  In36  1  -0.00182428  0.16606145  0.36693964  1
  In  In37  1  0.00760911  0.16244141  0.88433572  1
  In  In38  1  -0.00840572  0.49657985  0.35608210  1
  In  In39  1  -0.00576450  0.50625203  0.88074612  1
  In  In40  1  -0.00551568  0.83597563  0.36630168  1
  In  In41  1  0.00850386  0.83948514  0.86835215  1
  In  In42  1  0.33453005  0.17580000  0.37351190  1
  In  In43  1  0.32487525  0.16109157  0.86615948  1
  In  In44  1  0.33977892  0.49944022  0.37564685  1
  In  In45  1  0.33531170  0.50015504  0.87574837  1
  In  In46  1  0.33694310  0.83776010  0.38295438  1
  In  In47  1  0.32753788  0.83303941  0.87221601  1
  In  In48  1  0.66102978  0.18218430  0.40035086  1
  In  In49  1  0.65972702  0.18181985  0.87320148  1
  In  In50  1  0.67271252  0.48376090  0.39458205  1
  In  In51  1  0.66692049  0.49558737  0.87065069  1
  In  In52  1  0.66231046  0.82509069  0.38436207  1
  In  In53  1  0.68005908  0.82467160  0.86834840  1
  In  In54  1  0.15825830  -0.01175538  0.11086257  1
  In  In55  1  0.16462554  -0.00137491  0.63646697  1
  In  In56  1  0.16943825  0.33899153  0.12575020  1
  In  In57  1  0.17205432  0.34523337  0.63062716  1
  In  In58  1  0.15015938  0.65210031  0.10605603  1
  In  In59  1  0.16348971  0.66718882  0.63642014  1
  In  In60  1  0.49359200  0.01227475  0.12915795  1
  In  In61  1  0.49692177  -0.00828327  0.61805260  1
  In  In62  1  0.47614393  0.33494860  0.13255304  1
  In  In63  1  0.50105176  0.33208972  0.62124013  1
  In  In64  1  0.51145333  0.65675342  0.12405520  1
  In  In65  1  0.49933774  0.66571944  0.63024995  1
  In  In66  1  0.83693278  0.02219724  0.12055511  1
  In  In67  1  0.83234905  0.01523239  0.62595787  1
  In  In68  1  0.85184969  0.35120622  0.11647392  1
  In  In69  1  0.81753912  0.32495160  0.60422667  1
  In  In70  1  0.84886369  0.66011523  0.12769751  1
  In  In71  1  0.84372356  0.64542399  0.63046226  1
  In  In72  1  0.16757542  0.50266000  0.49607588  1
  In  In73  1  0.66876127  0.33203645  0.26237826  1
  In  In74  1  0.49479207  0.82992170  -0.01023878  1
  In  In75  1  0.32819840  0.00272646  0.25062096  1
  In  In76  1  0.67326795  0.00346628  0.25688903  1
  In  In77  1  0.49486995  0.17366444  0.00493387  1
  In  In78  1  0.33002130  0.65960837  0.24846392  1
  In  In79  1  0.67356552  0.66082960  0.26206034  1
  In  In80  1  0.66658127  0.00143908  0.74081274  1
  In  In81  1  0.00141487  0.33290888  0.75304033  1
  In  In82  1  0.82986520  0.83591398  0.50097308  1
  In  In83  1  0.16823562  0.16746232  0.49449276  1
  In  In84  1  0.16953152  0.82716880  0.50592931  1
  In  In85  1  0.83864185  0.82989932  -0.00295971  1
  Cu  Cu86  1  0.50212298  0.50087367  0.74667095  1
  Cu  Cu87  1  0.16379305  0.16457473  0.75875602  1
  Cu  Cu88  1  -0.00399669  0.33785795  0.49362397  1
  Cu  Cu89  1  0.15843047  0.83056410  0.24136031  1
  Cu  Cu90  1  -0.00097808  0.00265627  0.49705769  1
  Cu  Cu91  1  0.66331777  0.00005209  0.00698138  1
  Cu  Cu92  1  0.49465024  0.83242742  0.25888867  1
  Cu  Cu93  1  0.66773528  0.33479828  -0.00299792  1
  Cu  Cu94  1  0.33737423  0.66753541  -0.00789516  1
  Cu  Cu95  1  0.49740452  0.17357433  0.74667579  1
  Cu  Cu96  1  0.33701786  0.32986266  0.50257175  1
  Cu  Cu97  1  0.34357828  -0.00213290  0.50866980  1
  Cu  Cu98  1  0.66009419  0.67140293  0.50870544  1
  Cu  Cu99  1  0.83152245  0.16983507  0.74584616  1
  Cu  Cu100  1  -0.00224976  0.00337991  -0.00120594  1
  Cu  Cu101  1  0.33563034  0.33671155  -0.00271980  1
  Cu  Cu102  1  -0.00047645  0.66332117  -0.00208451  1
  Cu  Cu103  1  0.83580286  0.17504813  0.25027612  1
  Cu  Cu104  1  0.16076190  0.16575594  0.24355375  1
  Cu  Cu105  1  0.49714253  0.83728071  0.74845254  1
  Cu  Cu106  1  0.49746023  0.49015694  0.25491414  1
  Cu  Cu107  1  0.16314204  0.83484665  0.75709684  1
  Cu  Cu108  1  0.66968197  0.65164191  -0.00783687  1
  Cu  Cu109  1  0.83966328  0.84580234  0.24644687  1
  Cu  Cu110  1  0.16978451  0.50290649  0.75580917  1
  Cu  Cu111  1  0.83947153  0.82274013  0.74744380  1
  Cu  Cu112  1  0.00117074  0.33593107  0.00508615  1
  Cu  Cu113  1  0.33818965  0.66202749  0.50960159  1
  Cu  Cu114  1  0.82879516  0.48894745  0.74841744  1
  Se  Se115  1  0.08037579  0.08718377  0.05269637  1
  Se  Se116  1  0.08124767  0.07913332  0.55923253  1
  Se  Se117  1  0.08467148  0.42068447  0.05709695  1
  Se  Se118  1  0.07685751  0.41064215  0.55786211  1
  Se  Se119  1  0.08185479  0.75558671  0.04480887  1
  Se  Se120  1  0.07624168  0.73204966  0.55563675  1
  Se  Se121  1  0.40216411  0.07694594  0.05593870  1
  Se  Se122  1  0.41946885  0.09115605  0.55728001  1
  Se  Se123  1  0.42380492  0.41695509  0.04956106  1
  Se  Se124  1  0.41223036  0.41893111  0.55643944  1
  Se  Se125  1  0.41406781  0.74219574  0.06106252  1
  Se  Se126  1  0.41683136  0.75153646  0.56028986  1
  Se  Se127  1  0.74696687  0.09100931  0.05004480  1
  Se  Se128  1  0.75543275  0.08357870  0.55027049  1
  Se  Se129  1  0.75234687  0.41779153  0.05073143  1
  Se  Se130  1  0.77204459  0.44574784  0.55334087  1
  Se  Se131  1  0.74536764  0.73513298  0.05441198  1
  Se  Se132  1  0.74929349  0.74423869  0.56681105  1
  Se  Se133  1  0.25023189  0.25655485  0.05198471  1
  Se  Se134  1  0.25246247  0.25329519  0.56192160  1
  Se  Se135  1  0.25416227  0.58447336  0.04662669  1
  Se  Se136  1  0.25339669  0.58384742  0.56665746  1
  Se  Se137  1  0.25065504  0.91858247  0.04266799  1
  Se  Se138  1  0.25631039  0.92100221  0.56469155  1
  Se  Se139  1  0.58692129  0.26287791  0.06404944  1
  Se  Se140  1  0.59096389  0.26643492  0.54808820  1
  Se  Se141  1  0.58138930  0.57693702  0.04816661  1
  Se  Se142  1  0.57889907  0.58349043  0.55952030  1
  Se  Se143  1  0.58127856  0.91911908  0.06231585  1
  Se  Se144  1  0.59210627  0.92410378  0.55107125  1
  Se  Se145  1  0.91421868  0.24845060  0.05228224  1
  Se  Se146  1  0.91963526  0.24786454  0.54693391  1
  Se  Se147  1  0.91967233  0.57914576  0.05365399  1
  Se  Se148  1  0.91079056  0.57609574  0.54724521  1
  Se  Se149  1  0.92076671  0.92066853  0.06160992  1
  Se  Se150  1  0.92652292  0.92112595  0.56149686  1
  Se  Se151  1  0.08245038  0.26169008  0.43513020  1
  Se  Se152  1  0.08357432  0.25149731  0.95144655  1
  Se  Se153  1  0.07476955  0.58504545  0.43551872  1
  Se  Se154  1  0.08700308  0.58097573  0.94677960  1
  Se  Se155  1  0.08207841  0.92028662  0.44191195  1
  Se  Se156  1  0.07860617  0.91763887  0.94552511  1
  Se  Se157  1  0.41681055  0.24326765  0.44944427  1
  Se  Se158  1  0.41418122  0.25693738  0.93418274  1
  Se  Se159  1  0.41363313  0.57435946  0.45314331  1
  Se  Se160  1  0.42278349  0.58175258  0.94481021  1
  Se  Se161  1  0.42131597  0.91051718  0.45373922  1
  Se  Se162  1  0.40748515  0.93072086  0.94127943  1
  Se  Se163  1  0.75192407  0.26953821  0.45388969  1
  Se  Se164  1  0.74838514  0.24775677  0.94578594  1
  Se  Se165  1  0.73934066  0.59801676  0.44459817  1
  Se  Se166  1  0.75723718  0.57259012  0.94052447  1
  Se  Se167  1  0.74494149  0.92734715  0.43948656  1
  Se  Se168  1  0.74116604  0.92277939  0.94269503  1
  Se  Se169  1  0.26150783  0.06938562  0.44269360  1
  Se  Se170  1  0.24225397  0.09903786  0.94282720  1
  Se  Se171  1  0.25203748  0.40246706  0.43946878  1
  Se  Se172  1  0.25005336  0.42126643  0.94658073  1
  Se  Se173  1  0.25680441  0.73385763  0.44282491  1
  Se  Se174  1  0.25062989  0.75229757  0.94528043  1
  Se  Se175  1  0.59309388  0.07985589  0.46036552  1
  Se  Se176  1  0.58660167  0.08021726  0.94375791  1
  Se  Se177  1  0.57797703  0.41297490  0.45791032  1
  Se  Se178  1  0.58330291  0.41631314  0.94308339  1
  Se  Se179  1  0.57554567  0.75347167  0.45544581  1
  Se  Se180  1  0.59227777  0.74041712  0.93644158  1
  Se  Se181  1  0.92144649  0.08994779  0.44403556  1
  Se  Se182  1  0.91094210  0.08465643  0.94765146  1
  Se  Se183  1  0.92142624  0.42549152  0.43844993  1
  Se  Se184  1  0.91765242  0.41569338  0.94746135  1
  Se  Se185  1  0.92688993  0.75049739  0.44439368  1
  Se  Se186  1  0.92033685  0.73962281  0.93296524  1
  Se  Se187  1  0.24694700  0.24210270  0.30023074  1
  Se  Se188  1  0.24856262  0.25577542  0.80149972  1
  Se  Se189  1  0.24054453  0.56619744  0.30504704  1
  Se  Se190  1  0.25345989  0.58678125  0.80794373  1
  Se  Se191  1  0.24088602  0.90208371  0.30770894  1
  Se  Se192  1  0.24561557  0.92164123  0.80773631  1
  Se  Se193  1  0.57679440  0.24030644  0.31681443  1
  Se  Se194  1  0.58748613  0.25389305  0.79475001  1
  Se  Se195  1  0.57901255  0.56737442  0.31577203  1
  Se  Se196  1  0.58704999  0.58232526  0.80146340  1
  Se  Se197  1  0.57719853  0.91319706  0.31440462  1
  Se  Se198  1  0.58049696  0.91393519  0.81010449  1
  Se  Se199  1  0.92005329  0.25833613  0.30260932  1
  Se  Se200  1  0.91056660  0.24327307  0.81254622  1
  Se  Se201  1  0.91563316  0.59864394  0.29918871  1
  Se  Se202  1  0.91760054  0.57153684  0.79889410  1
  Se  Se203  1  0.91987253  0.92965522  0.30101839  1
  Se  Se204  1  0.91368759  0.91296731  0.80169999  1
  Se  Se205  1  0.08021339  0.08105312  0.29836830  1
  Se  Se206  1  0.07688282  0.08145575  0.80765784  1
  Se  Se207  1  0.07824981  0.41800317  0.28934523  1
  Se  Se208  1  0.09011532  0.41951345  0.81560674  1
  Se  Se209  1  0.07928163  0.75120494  0.30110610  1
  Se  Se210  1  0.08111814  0.74340823  0.80425947  1
  Se  Se211  1  0.42379073  0.08006609  0.31395444  1
  Se  Se212  1  0.41517164  0.08611243  0.79661989  1
  Se  Se213  1  0.41445446  0.40806525  0.30841289  1
  Se  Se214  1  0.41771535  0.42031102  0.80324316  1
  Se  Se215  1  0.42041516  0.74493773  0.31592771  1
  Se  Se216  1  0.41497196  0.75457239  0.80415065  1
  Se  Se217  1  0.75154976  0.10464692  0.31489843  1
  Se  Se218  1  0.75129002  0.08859271  0.80823582  1
  Se  Se219  1  0.75859023  0.43134998  0.31096447  1
  Se  Se220  1  0.74575870  0.40635234  0.80184833  1
  Se  Se221  1  0.76046771  0.76741595  0.30963107  1
  Se  Se222  1  0.74939582  0.74154023  0.79487368  1
  Se  Se223  1  0.24142284  0.08500583  0.18394467  1
  Se  Se224  1  0.24738106  0.08243290  0.70252598  1
  Se  Se225  1  0.26456011  0.40911653  0.19366931  1
  Se  Se226  1  0.25217152  0.41536700  0.70570609  1
  Se  Se227  1  0.24306038  0.75019355  0.18643743  1
  Se  Se228  1  0.24673192  0.75034487  0.70313991  1
  Se  Se229  1  0.57749832  0.09270950  0.19980594  1
  Se  Se230  1  0.57787564  0.09387152  0.68418547  1
  Se  Se231  1  0.58232094  0.41805970  0.19204068  1
  Se  Se232  1  0.58217519  0.41541860  0.69235696  1
  Se  Se233  1  0.57725737  0.75236624  0.20043249  1
  Se  Se234  1  0.58179027  0.75171342  0.69955879  1
  Se  Se235  1  0.91676335  0.08887094  0.19727115  1
  Se  Se236  1  0.91868747  0.08233469  0.70107047  1
  Se  Se237  1  0.91948515  0.41757606  0.19831002  1
  Se  Se238  1  0.90975522  0.41008350  0.68676912  1
  Se  Se239  1  0.91598557  0.75410323  0.19574574  1
  Se  Se240  1  0.92223066  0.73892759  0.69479950  1
  Se  Se241  1  0.08199837  0.25395622  0.19160593  1
  Se  Se242  1  0.08997247  0.24112559  0.68965311  1
  Se  Se243  1  0.08500236  0.59409943  0.19188531  1
  Se  Se244  1  0.08159467  0.57479278  0.69773764  1
  Se  Se245  1  0.08115492  0.92313858  0.19230287  1
  Se  Se246  1  0.07874940  0.91383514  0.69956337  1
  Se  Se247  1  0.42400873  0.23380251  0.20027589  1
  Se  Se248  1  0.41368260  0.25747850  0.69392740  1
  Se  Se249  1  0.42489212  0.57234499  0.19080349  1
  Se  Se250  1  0.41384554  0.58915973  0.70179757  1
  Se  Se251  1  0.41954098  0.90628950  0.19237650  1
  Se  Se252  1  0.41638731  0.92431165  0.69671336  1
  Se  Se253  1  0.75491820  0.25383059  0.19019918  1
  Se  Se254  1  0.75236731  0.24941389  0.68676220  1
  Se  Se255  1  0.75413591  0.57645058  0.19231323  1
  Se  Se256  1  0.74726262  0.57790699  0.69747401  1
  Se  Se257  1  0.75354183  0.91516108  0.18461992  1
  Se  Se258  1  0.76010872  0.90639583  0.68739557  1
