# generated using pymatgen
data_In86Cu29Se144
_symmetry_space_group_name_H-M   'P 1'
_cell_length_a   17.58904598
_cell_length_b   17.58863214
_cell_length_c   23.45088448
_cell_angle_alpha   90.01789700
_cell_angle_beta   89.98549103
_cell_angle_gamma   89.99191415
_symmetry_Int_Tables_number   1
_chemical_formula_structural   In86Cu29Se144
_chemical_formula_sum   'In86 Cu29 Se144'
_cell_volume   7254.93520385
_cell_formula_units_Z   1
loop_
 _symmetry_equiv_pos_site_id
 _symmetry_equiv_pos_as_xyz
  1  'x, y, z'
loop_
 _atom_site_type_symbol
 _atom_site_label
 _atom_site_symmetry_multiplicity
 _atom_site_fract_x
 _atom_site_fract_y
 _atom_site_fract_z
 _atom_site_occupancy
  In  In0  1  -0.00806753  0.15474860  0.11313950  1
  In  In1  1  -0.00152991  0.16616731  0.63036307  1
  In  In2  1  0.02197956  0.50128901  0.12578161  1
  In  In3  1  -0.00549177  0.50510414  0.63213421  1
  In  In4  1  0.00497898  0.83855811  0.12703661  1
  In  In5  1  -0.00406766  0.84151673  0.63187753  1
  In  In6  1  0.33815631  0.17564527  0.11791939  1
  In  In7  1  0.31855156  0.16487231  0.62803225  1
  In  In8  1  0.29223015  0.50055358  0.12683537  1
  In  In9  1  0.34679095  0.50071164  0.62611260  1
  In  In10  1  0.33436002  0.82883041  0.11122900  1
  In  In11  1  0.33005655  0.83482907  0.63355342  1
  In  In12  1  0.65992422  0.15873045  0.11702020  1
  In  In13  1  0.68504953  0.16517624  0.62501805  1
  In  In14  1  0.66880943  0.49825333  0.13067272  1
  In  In15  1  0.66131308  0.49786667  0.61901757  1
  In  In16  1  0.66398372  0.83259835  0.11953742  1
  In  In17  1  0.66077965  0.81925770  0.60923561  1
  In  In18  1  0.16413049  0.01196962  0.37175778  1
  In  In19  1  0.16285843  0.00123294  0.87431219  1
  In  In20  1  0.15693966  0.32031181  0.37402350  1
  In  In21  1  0.16194028  0.33772100  0.87774207  1
  In  In22  1  0.16052576  0.67758604  0.36479817  1
  In  In23  1  0.16992476  0.66925253  0.87765555  1
  In  In24  1  0.48561522  -0.01093364  0.37533822  1
  In  In25  1  0.49130851  0.00870283  0.88074076  1
  In  In26  1  0.50587903  0.34025040  0.37353343  1
  In  In27  1  0.49901158  0.32145875  0.87271051  1
  In  In28  1  0.49510949  0.66768028  0.38435471  1
  In  In29  1  0.49485332  0.68542665  0.88131465  1
  In  In30  1  0.84011667  -0.00773013  0.38267009  1
  In  In31  1  0.84987103  -0.00818754  0.87766961  1
  In  In32  1  0.83034748  0.33880298  0.38580572  1
  In  In33  1  0.83057950  0.32324470  0.86735282  1
  In  In34  1  0.83923332  0.66233508  0.38544237  1
  In  In35  1  0.84704124  0.67190929  0.87153184  1
  In  In36  1  0.00183131  0.16226630  0.38070127  1
  In  In37  1  0.00617372  0.16009840  0.87293789  1
  In  In38  1  -0.00864222  0.49601526  0.37672562  1
  In  In39  1  0.01433236  0.51100259  0.86735346  1
  In  In40  1  -0.00469027  0.82574056  0.36187331  1
  In  In41  1  0.00343911  0.83438421  0.87477527  1
  In  In42  1  0.31779384  0.15746332  0.37236703  1
  In  In43  1  0.33677532  0.16402895  0.87939948  1
  In  In44  1  0.34559109  0.50388458  0.37609080  1
  In  In45  1  0.31855961  0.50135817  0.87724505  1
  In  In46  1  0.33498509  0.83855153  0.37483662  1
  In  In47  1  0.32805104  0.83456268  0.87944525  1
  In  In48  1  0.67111093  0.17679389  0.37657241  1
  In  In49  1  0.66195895  0.17060739  0.87550262  1
  In  In50  1  0.66252346  0.51208270  0.39318267  1
  In  In51  1  0.67857700  0.49849830  0.86812792  1
  In  In52  1  0.66284732  0.83096607  0.38370824  1
  In  In53  1  0.66790496  0.84187854  0.88052482  1
  In  In54  1  0.15266668  -0.01162526  0.11620483  1
  In  In55  1  0.15198378  0.02043180  0.64731271  1
  In  In56  1  0.17531577  0.33809193  0.11675528  1
  In  In57  1  0.16377504  0.30863020  0.62978489  1
  In  In58  1  0.16401814  0.66439669  0.11801449  1
  In  In59  1  0.16285069  0.67298473  0.63657839  1
  In  In60  1  0.49306672  -0.00108543  0.11782829  1
  In  In61  1  0.49958431  -0.01344011  0.62723756  1
  In  In62  1  0.48425035  0.31378485  0.12111727  1
  In  In63  1  0.50256998  0.35071486  0.62657684  1
  In  In64  1  0.48657360  0.67330481  0.12401659  1
  In  In65  1  0.49368082  0.66137459  0.62185839  1
  In  In66  1  0.84015818  0.00561308  0.11918727  1
  In  In67  1  0.83801099  0.00398282  0.61855296  1
  In  In68  1  0.84673590  0.33043833  0.12283037  1
  In  In69  1  0.83617565  0.32991734  0.62859737  1
  In  In70  1  0.84117969  0.68593306  0.12137164  1
  In  In71  1  0.84167109  0.67503793  0.61393844  1
  In  In72  1  0.16961809  0.84015555  0.49664048  1
  In  In73  1  0.67180526  0.00028305  0.74310992  1
  In  In74  1  0.49820108  0.50007252  0.00217957  1
  In  In75  1  0.66839723  0.33381089  0.25881411  1
  In  In76  1  0.66231563  -0.00170491  0.24776213  1
  In  In77  1  0.00380376  0.33345885  0.25075561  1
  In  In78  1  0.16503392  0.49398582  0.50183185  1
  In  In79  1  0.33131310  0.33757828  0.75194475  1
  In  In80  1  0.66490182  0.66874952  0.25730443  1
  In  In81  1  0.66681868  0.66266715  0.73807238  1
  In  In82  1  0.84026420  0.49874372  -0.00678688  1
  In  In83  1  0.32631685  -0.00153109  0.24147626  1
  In  In84  1  0.32734294  0.66544445  0.24491833  1
  In  In85  1  0.50056644  0.16415389  0.49577148  1
  Cu  Cu86  1  0.66662187  0.67639704  0.00101613  1
  Cu  Cu87  1  0.84024958  0.51240045  0.25784591  1
  Cu  Cu88  1  0.16423921  0.50113188  0.75151328  1
  Cu  Cu89  1  0.67199543  0.33054869  0.50304095  1
  Cu  Cu90  1  0.32888734  -0.00471794  0.50062104  1
  Cu  Cu91  1  -0.00415252  0.32680975  0.50445281  1
  Cu  Cu92  1  0.50160678  0.17173852  0.75430554  1
  Cu  Cu93  1  0.84132643  0.16283707  0.74947104  1
  Cu  Cu94  1  0.16318776  0.16826587  0.24592026  1
  Cu  Cu95  1  0.33913175  0.66480268  0.50553853  1
  Cu  Cu96  1  0.16972405  0.82998290  0.75949138  1
  Cu  Cu97  1  -0.00002556  0.00162070  0.50614395  1
  Cu  Cu98  1  0.50333273  0.50780489  0.74672605  1
  Cu  Cu99  1  0.48764966  0.83787629  0.75448357  1
  Cu  Cu100  1  0.84051415  0.49134327  0.74901155  1
  Cu  Cu101  1  0.67398765  0.00389426  -0.00240051  1
  Cu  Cu102  1  0.83466007  0.16569217  0.24615930  1
  Cu  Cu103  1  0.00177331  -0.00260140  -0.00349416  1
  Cu  Cu104  1  0.32931416  0.00120532  -0.00245993  1
  Cu  Cu105  1  0.49119182  0.49149148  0.25032124  1
  Cu  Cu106  1  -0.00057791  0.67121123  0.49859257  1
  Cu  Cu107  1  0.66756038  -0.00452050  0.50263390  1
  Cu  Cu108  1  0.33130883  0.33286755  -0.00345904  1
  Cu  Cu109  1  0.00260974  0.32696348  -0.00341107  1
  Cu  Cu110  1  0.83426363  0.82839575  0.74538850  1
  Cu  Cu111  1  0.00235396  0.67162742  -0.00426040  1
  Cu  Cu112  1  0.66784894  0.32709706  -0.00251387  1
  Cu  Cu113  1  0.33352193  0.33100789  0.50527300  1
  Cu  Cu114  1  0.84460032  0.83582912  0.25072366  1
  Se  Se115  1  0.08637950  0.08403155  0.04657439  1
  Se  Se116  1  0.08395485  0.08234231  0.56088713  1
  Se  Se117  1  0.08246385  0.41393389  0.04987146  1
  Se  Se118  1  0.07900312  0.40526883  0.56499096  1
  Se  Se119  1  0.08109509  0.75328565  0.05452214  1
  Se  Se120  1  0.08164120  0.74872510  0.55836267  1
  Se  Se121  1  0.41450057  0.08499304  0.05009054  1
  Se  Se122  1  0.41127911  0.07788574  0.55945739  1
  Se  Se123  1  0.40429818  0.41542853  0.06191620  1
  Se  Se124  1  0.41837997  0.41829830  0.55108214  1
  Se  Se125  1  0.43028290  0.75687966  0.04651584  1
  Se  Se126  1  0.41128195  0.75560420  0.56076797  1
  Se  Se127  1  0.75501593  0.08821130  0.05206136  1
  Se  Se128  1  0.75193577  0.08279433  0.54916666  1
  Se  Se129  1  0.74574403  0.41144028  0.05675611  1
  Se  Se130  1  0.75293074  0.41281432  0.55874987  1
  Se  Se131  1  0.75449010  0.75800448  0.05124244  1
  Se  Se132  1  0.75173120  0.74486533  0.54541410  1
  Se  Se133  1  0.24734531  0.24701802  0.04772323  1
  Se  Se134  1  0.24790227  0.24530850  0.55174043  1
  Se  Se135  1  0.26607339  0.60150553  0.05260582  1
  Se  Se136  1  0.25056586  0.58963002  0.56261319  1
  Se  Se137  1  0.24737153  0.91593206  0.04988341  1
  Se  Se138  1  0.24549817  0.92734150  0.56696314  1
  Se  Se139  1  0.58107468  0.25011781  0.05252547  1
  Se  Se140  1  0.58658182  0.25216068  0.56164821  1
  Se  Se141  1  0.59425367  0.59086113  0.06152360  1
  Se  Se142  1  0.58754556  0.59212348  0.55612678  1
  Se  Se143  1  0.58823701  0.92402403  0.05382662  1
  Se  Se144  1  0.57794694  0.91514010  0.55114586  1
  Se  Se145  1  0.91332314  0.24798681  0.04762351  1
  Se  Se146  1  0.91381484  0.24288909  0.55836620  1
  Se  Se147  1  0.92517819  0.58710100  0.05817771  1
  Se  Se148  1  0.92483419  0.58125520  0.55277792  1
  Se  Se149  1  0.91975417  0.91619106  0.05446569  1
  Se  Se150  1  0.91763148  0.91206675  0.55395083  1
  Se  Se151  1  0.08196332  0.24662910  0.45059128  1
  Se  Se152  1  0.08676480  0.24474622  0.94360225  1
  Se  Se153  1  0.08287096  0.59173825  0.44076793  1
  Se  Se154  1  0.08555688  0.58352839  0.94683103  1
  Se  Se155  1  0.07419776  0.92464322  0.43816640  1
  Se  Se156  1  0.08673873  0.91309750  0.94561170  1
  Se  Se157  1  0.40792448  0.25265096  0.43779302  1
  Se  Se158  1  0.41962463  0.25000967  0.94772484  1
  Se  Se159  1  0.41962096  0.57798356  0.45320952  1
  Se  Se160  1  0.41040433  0.58849833  0.94190625  1
  Se  Se161  1  0.41395092  0.91017710  0.45179505  1
  Se  Se162  1  0.41646559  0.91769528  0.94649128  1
  Se  Se163  1  0.75425513  0.24565770  0.45102236  1
  Se  Se164  1  0.75266101  0.24790944  0.94318495  1
  Se  Se165  1  0.76142944  0.57930218  0.45412134  1
  Se  Se166  1  0.74468845  0.59479171  0.94086318  1
  Se  Se167  1  0.75115122  0.91305847  0.44799546  1
  Se  Se168  1  0.75721871  0.91875824  0.94613361  1
  Se  Se169  1  0.24552699  0.08045250  0.44932473  1
  Se  Se170  1  0.24695765  0.08440474  0.94398116  1
  Se  Se171  1  0.25508763  0.40786843  0.43954844  1
  Se  Se172  1  0.24496313  0.41811598  0.94907547  1
  Se  Se173  1  0.25784878  0.73888055  0.44165198  1
  Se  Se174  1  0.24353540  0.75557723  0.94822482  1
  Se  Se175  1  0.59007152  0.07149850  0.43610432  1
  Se  Se176  1  0.58564298  0.08456835  0.94507387  1
  Se  Se177  1  0.58460356  0.41093106  0.44977649  1
  Se  Se178  1  0.59202299  0.41386466  0.93938673  1
  Se  Se179  1  0.58570008  0.74240731  0.44852018  1
  Se  Se180  1  0.58397023  0.76006141  0.94866075  1
  Se  Se181  1  0.91596032  0.08379579  0.44949193  1
  Se  Se182  1  0.91888623  0.08523487  0.94609637  1
  Se  Se183  1  0.91894345  0.41741094  0.45244958  1
  Se  Se184  1  0.92737577  0.40953887  0.93298235  1
  Se  Se185  1  0.92217477  0.75874877  0.44397559  1
  Se  Se186  1  0.91568201  0.75443278  0.94593679  1
  Se  Se187  1  0.24486291  0.24724226  0.30323434  1
  Se  Se188  1  0.24585875  0.24573860  0.81041221  1
  Se  Se189  1  0.24490937  0.57465801  0.31018963  1
  Se  Se190  1  0.24831019  0.58435310  0.80366524  1
  Se  Se191  1  0.23984808  0.91063620  0.30752544  1
  Se  Se192  1  0.25192171  0.91904056  0.80761179  1
  Se  Se193  1  0.57200711  0.23649084  0.30522900  1
  Se  Se194  1  0.58963148  0.25511740  0.80070005  1
  Se  Se195  1  0.57266578  0.57123065  0.31006232  1
  Se  Se196  1  0.57890166  0.58677849  0.81237309  1
  Se  Se197  1  0.57517306  0.90561992  0.30786850  1
  Se  Se198  1  0.57853020  0.91721403  0.80686231  1
  Se  Se199  1  0.90613549  0.24989565  0.31034252  1
  Se  Se200  1  0.92322404  0.24611734  0.80382924  1
  Se  Se201  1  0.92483252  0.59324928  0.30939467  1
  Se  Se202  1  0.91600765  0.58146922  0.80234268  1
  Se  Se203  1  0.91953185  0.92769815  0.30298386  1
  Se  Se204  1  0.91688589  0.90962313  0.80094482  1
  Se  Se205  1  0.07853647  0.08988045  0.30226502  1
  Se  Se206  1  0.06976422  0.06526713  0.80266411  1
  Se  Se207  1  0.09179657  0.42630773  0.30917095  1
  Se  Se208  1  0.08336107  0.41289938  0.80175090  1
  Se  Se209  1  0.09079136  0.76131665  0.29370115  1
  Se  Se210  1  0.08196642  0.74523725  0.80726129  1
  Se  Se211  1  0.41806458  0.08481233  0.30608329  1
  Se  Se212  1  0.41828402  0.08798467  0.80479766  1
  Se  Se213  1  0.41128793  0.40945663  0.30579880  1
  Se  Se214  1  0.42474100  0.42826524  0.81110230  1
  Se  Se215  1  0.42086920  0.75171246  0.30718016  1
  Se  Se216  1  0.40979306  0.75025591  0.80672126  1
  Se  Se217  1  0.75420725  0.08776723  0.30840795  1
  Se  Se218  1  0.75768389  0.08394381  0.80991598  1
  Se  Se219  1  0.75504740  0.43325364  0.31422934  1
  Se  Se220  1  0.75137315  0.41181234  0.79911772  1
  Se  Se221  1  0.76077932  0.75896666  0.31136663  1
  Se  Se222  1  0.74862925  0.75433465  0.80565299  1
  Se  Se223  1  0.23912116  0.08943026  0.18175084  1
  Se  Se224  1  0.26151706  0.08037672  0.70533057  1
  Se  Se225  1  0.24708518  0.40301620  0.19951472  1
  Se  Se226  1  0.24187278  0.42300951  0.68621978  1
  Se  Se227  1  0.24470946  0.76144087  0.18686839  1
  Se  Se228  1  0.25262169  0.74834758  0.70287652  1
  Se  Se229  1  0.57040837  0.08940641  0.19156386  1
  Se  Se230  1  0.57678028  0.09327202  0.68767018  1
  Se  Se231  1  0.57541654  0.41383469  0.19079307  1
  Se  Se232  1  0.58832923  0.42174842  0.69892982  1
  Se  Se233  1  0.57711233  0.75480894  0.19352360  1
  Se  Se234  1  0.57180264  0.76190403  0.69243192  1
  Se  Se235  1  0.91819797  0.08383961  0.19375238  1
  Se  Se236  1  0.91677780  0.07341544  0.69563032  1
  Se  Se237  1  0.91174315  0.42888617  0.19320689  1
  Se  Se238  1  0.92489331  0.40758313  0.69738208  1
  Se  Se239  1  0.92439887  0.74984355  0.19739667  1
  Se  Se240  1  0.91843291  0.74410856  0.69355978  1
  Se  Se241  1  0.08181748  0.24416787  0.18264099  1
  Se  Se242  1  0.08529229  0.23745986  0.70342045  1
  Se  Se243  1  0.09440123  0.58477305  0.19562980  1
  Se  Se244  1  0.07961440  0.58609845  0.70011157  1
  Se  Se245  1  0.07700779  0.92787479  0.19755643  1
  Se  Se246  1  0.08692033  0.90998181  0.70188588  1
  Se  Se247  1  0.40762085  0.24764447  0.19907392  1
  Se  Se248  1  0.42293425  0.24944890  0.68890034  1
  Se  Se249  1  0.41632490  0.56902090  0.18601936  1
  Se  Se250  1  0.41401999  0.58905138  0.69909469  1
  Se  Se251  1  0.42076400  0.90587360  0.18926500  1
  Se  Se252  1  0.40966700  0.92489753  0.70094688  1
  Se  Se253  1  0.75324179  0.24706407  0.18916818  1
  Se  Se254  1  0.75359816  0.24682216  0.70014608  1
  Se  Se255  1  0.75979490  0.58492493  0.19250545  1
  Se  Se256  1  0.76446393  0.57411563  0.68593327  1
  Se  Se257  1  0.75768978  0.90962901  0.19084610  1
  Se  Se258  1  0.75172408  0.90248877  0.68263193  1
