# generated using pymatgen
data_In86Cu29Se144
_symmetry_space_group_name_H-M   'P 1'
_cell_length_a   17.55891899
_cell_length_b   17.55901100
_cell_length_c   23.41014399
_cell_angle_alpha   90.01614138
_cell_angle_beta   89.98660738
_cell_angle_gamma   90.01357331
_symmetry_Int_Tables_number   1
_chemical_formula_structural   In86Cu29Se144
_chemical_formula_sum   'In86 Cu29 Se144'
_cell_volume   7217.75057180
_cell_formula_units_Z   1
loop_
 _symmetry_equiv_pos_site_id
 _symmetry_equiv_pos_as_xyz
  1  'x, y, z'
loop_
 _atom_site_type_symbol
 _atom_site_label
 _atom_site_symmetry_multiplicity
 _atom_site_fract_x
 _atom_site_fract_y
 _atom_site_fract_z
 _atom_site_occupancy
  In  In0  1  -0.00341713  0.16432079  0.12774452  1
  In  In1  1  -0.00434778  0.17970483  0.62273563  1
  In  In2  1  0.00665596  0.49833924  0.11749994  1
  In  In3  1  -0.00123174  0.49393764  0.62613645  1
  In  In4  1  0.01826203  0.82196015  0.14786076  1
  In  In5  1  -0.00606042  0.84960670  0.62117210  1
  In  In6  1  0.33101822  0.16832391  0.12947642  1
  In  In7  1  0.33090175  0.14399796  0.63063654  1
  In  In8  1  0.33071666  0.50303344  0.11879536  1
  In  In9  1  0.35044858  0.50610709  0.63284455  1
  In  In10  1  0.32548720  0.83736866  0.12606204  1
  In  In11  1  0.34233963  0.82945155  0.63012079  1
  In  In12  1  0.67679341  0.14658364  0.12874212  1
  In  In13  1  0.66375068  0.16667401  0.62522124  1
  In  In14  1  0.66659167  0.50439365  0.10588411  1
  In  In15  1  0.65646644  0.50218914  0.63266524  1
  In  In16  1  0.66832162  0.84873323  0.12199287  1
  In  In17  1  0.67374157  0.84204844  0.61298960  1
  In  In18  1  0.17878067  -0.01057334  0.35319690  1
  In  In19  1  0.20155374  -0.02565100  0.91657851  1
  In  In20  1  0.15973491  0.32464693  0.35957102  1
  In  In21  1  0.16136595  0.33014751  0.89943552  1
  In  In22  1  0.17368729  0.68290906  0.34872361  1
  In  In23  1  0.18037590  0.66074445  0.88381370  1
  In  In24  1  0.50191317  -0.00226874  0.37234703  1
  In  In25  1  0.48894974  -0.00242318  0.86211029  1
  In  In26  1  0.48620666  0.32608450  0.37042982  1
  In  In27  1  0.51693822  0.32248423  0.87465373  1
  In  In28  1  0.50276849  0.67972231  0.37562765  1
  In  In29  1  0.49311077  0.68590954  0.89085765  1
  In  In30  1  0.81938864  0.00566093  0.36924181  1
  In  In31  1  0.83563776  0.00932831  0.87383244  1
  In  In32  1  0.83107902  0.31306598  0.36430141  1
  In  In33  1  0.82615762  0.33350269  0.88482286  1
  In  In34  1  0.84046474  0.66891752  0.37015203  1
  In  In35  1  0.81701560  0.65804526  0.88246675  1
  In  In36  1  -0.03243689  0.14177360  0.33825752  1
  In  In37  1  -0.00037186  0.16722307  0.89522824  1
  In  In38  1  0.00516647  0.50782759  0.35853647  1
  In  In39  1  -0.00017872  0.49233689  0.89507111  1
  In  In40  1  -0.00410457  0.83059139  0.36153533  1
  In  In41  1  0.00422909  0.85122579  0.88166234  1
  In  In42  1  0.33415205  0.16470142  0.36802620  1
  In  In43  1  0.33588233  0.13817675  0.88863262  1
  In  In44  1  0.32476509  0.49060396  0.36272577  1
  In  In45  1  0.32517235  0.51321450  0.88289606  1
  In  In46  1  0.34143141  0.84284500  0.35916700  1
  In  In47  1  0.34245719  0.83608197  0.88039951  1
  In  In48  1  0.67856396  0.15579205  0.38304767  1
  In  In49  1  0.66338001  0.17008571  0.86228667  1
  In  In50  1  0.67316438  0.50450635  0.37431428  1
  In  In51  1  0.67649868  0.49090958  0.89058798  1
  In  In52  1  0.64647262  0.84462343  0.38654128  1
  In  In53  1  0.64091445  0.83487649  0.88171459  1
  In  In54  1  0.16855800  -0.00520833  0.13064690  1
  In  In55  1  0.17424720  0.00723313  0.62969017  1
  In  In56  1  0.16267535  0.33761643  0.11750114  1
  In  In57  1  0.15379989  0.33043063  0.63016050  1
  In  In58  1  0.17310294  0.67187445  0.12800745  1
  In  In59  1  0.18122238  0.68486214  0.62744701  1
  In  In60  1  0.49888770  -0.00776551  0.12342010  1
  In  In61  1  0.49953494  0.00283640  0.62405417  1
  In  In62  1  0.48810610  0.33298954  0.12456779  1
  In  In63  1  0.51471764  0.34030183  0.63124821  1
  In  In64  1  0.49029692  0.65669900  0.11383128  1
  In  In65  1  0.49274361  0.66524523  0.62648112  1
  In  In66  1  0.83629276  0.01021272  0.13434559  1
  In  In67  1  0.82243458  -0.00800975  0.61290182  1
  In  In68  1  0.84891288  0.33211218  0.11492704  1
  In  In69  1  0.83093796  0.31624938  0.61851020  1
  In  In70  1  0.84637372  0.66304434  0.12762567  1
  In  In71  1  0.82076568  0.67343436  0.62383447  1
  In  In72  1  0.16759833  0.50144221  0.48391534  1
  In  In73  1  0.16172794  0.83383714  0.48438104  1
  In  In74  1  0.66191193  0.67299017  0.25202158  1
  In  In75  1  0.84068691  0.83179031  0.00611070  1
  In  In76  1  0.00854370  0.00986349  0.75373837  1
  In  In77  1  0.50015298  0.16265105  0.00208911  1
  In  In78  1  0.66429312  0.32636301  0.23878274  1
  In  In79  1  -0.00014304  0.33324087  0.76859435  1
  In  In80  1  0.65652080  0.66819535  0.75730367  1
  In  In81  1  0.00596341  0.66317265  0.76151883  1
  In  In82  1  0.33533131  0.32885702  0.75807076  1
  In  In83  1  0.50520851  0.50453345  0.50322245  1
  In  In84  1  0.16271167  0.16271687  0.49535725  1
  In  In85  1  0.83144776  0.50416084  0.48968659  1
  Cu  Cu86  1  0.48910746  0.50101210  0.24263913  1
  Cu  Cu87  1  0.33771840  0.31625080  0.49991053  1
  Cu  Cu88  1  0.18545226  0.83749806  0.75998165  1
  Cu  Cu89  1  0.49751509  0.84083991  0.75010806  1
  Cu  Cu90  1  0.49839289  0.15867147  0.24852525  1
  Cu  Cu91  1  0.82767881  0.83116620  0.74281772  1
  Cu  Cu92  1  0.17653430  0.50891315  0.75662429  1
  Cu  Cu93  1  0.33731055  -0.01002620  0.49774628  1
  Cu  Cu94  1  0.00324457  0.67126302  0.00800005  1
  Cu  Cu95  1  -0.01239147  0.00820351  0.48886758  1
  Cu  Cu96  1  0.82676385  0.84399009  0.24814001  1
  Cu  Cu97  1  0.82706977  0.48682215  0.76058401  1
  Cu  Cu98  1  0.16967116  0.50026713  0.23670747  1
  Cu  Cu99  1  0.67152892  0.31951559  0.00000696  1
  Cu  Cu100  1  0.66913596  0.00101544  -0.00056773  1
  Cu  Cu101  1  0.66572206  0.33203898  0.50051043  1
  Cu  Cu102  1  0.00438913  0.00005661  0.01375558  1
  Cu  Cu103  1  0.33026590  0.67690123  0.00616301  1
  Cu  Cu104  1  0.17616460  0.17254797  0.23880567  1
  Cu  Cu105  1  -0.00290482  0.32595118  0.48637546  1
  Cu  Cu106  1  0.66073112  0.00861694  0.49992180  1
  Cu  Cu107  1  0.17086231  0.15638952  0.76964510  1
  Cu  Cu108  1  0.49535704  0.83165682  0.24634920  1
  Cu  Cu109  1  0.33448724  0.66232897  0.49844733  1
  Cu  Cu110  1  0.33721146  0.34100511  0.00332241  1
  Cu  Cu111  1  0.83565916  0.49786852  0.24136265  1
  Cu  Cu112  1  0.50136786  0.50574280  0.76159445  1
  Cu  Cu113  1  -0.00552161  0.67297601  0.49178024  1
  Cu  Cu114  1  0.82433692  0.16291786  0.74626969  1
  Se  Se115  1  0.08950563  0.08480688  0.06247165  1
  Se  Se116  1  0.07110312  0.07325444  0.55910924  1
  Se  Se117  1  0.09120807  0.42467215  0.04567572  1
  Se  Se118  1  0.07573013  0.40814847  0.54818193  1
  Se  Se119  1  0.08324327  0.75539386  0.06155800  1
  Se  Se120  1  0.07687975  0.74692416  0.55699101  1
  Se  Se121  1  0.40528917  0.07476940  0.05668037  1
  Se  Se122  1  0.41148098  0.08051762  0.55233422  1
  Se  Se123  1  0.42403989  0.42413376  0.05280267  1
  Se  Se124  1  0.40949624  0.40851266  0.55769543  1
  Se  Se125  1  0.41629632  0.76035910  0.05698265  1
  Se  Se126  1  0.41344553  0.74651919  0.55455174  1
  Se  Se127  1  0.75801533  0.07761016  0.05225136  1
  Se  Se128  1  0.74853266  0.09058725  0.55176866  1
  Se  Se129  1  0.75145397  0.40789661  0.05179319  1
  Se  Se130  1  0.74382835  0.41850749  0.55914659  1
  Se  Se131  1  0.74825488  0.74403367  0.06482102  1
  Se  Se132  1  0.76427092  0.76151676  0.54928646  1
  Se  Se133  1  0.25867314  0.25397945  0.05708161  1
  Se  Se134  1  0.24828439  0.25064849  0.56367651  1
  Se  Se135  1  0.24554123  0.58837270  0.05325670  1
  Se  Se136  1  0.25430888  0.58167349  0.55868944  1
  Se  Se137  1  0.24617953  0.91896684  0.05388954  1
  Se  Se138  1  0.24882288  0.91567705  0.55657343  1
  Se  Se139  1  0.59161993  0.24823391  0.06645492  1
  Se  Se140  1  0.58097479  0.25459759  0.55695235  1
  Se  Se141  1  0.58219379  0.58911396  0.04380146  1
  Se  Se142  1  0.59733928  0.59792230  0.55911955  1
  Se  Se143  1  0.58187141  0.91786072  0.04843980  1
  Se  Se144  1  0.57919220  0.92065740  0.55172452  1
  Se  Se145  1  0.91950515  0.23742201  0.04875419  1
  Se  Se146  1  0.91540899  0.24582446  0.54424213  1
  Se  Se147  1  0.91679266  0.58288009  0.05206447  1
  Se  Se148  1  0.92399390  0.58847103  0.55624445  1
  Se  Se149  1  0.92524315  0.91537245  0.07261950  1
  Se  Se150  1  0.91418899  0.91719933  0.54439553  1
  Se  Se151  1  0.07438887  0.24171054  0.42852494  1
  Se  Se152  1  0.06151283  0.26495224  0.96383940  1
  Se  Se153  1  0.08130091  0.60169768  0.43042865  1
  Se  Se154  1  0.08460699  0.58910607  0.94973003  1
  Se  Se155  1  0.07519633  0.93276350  0.43023996  1
  Se  Se156  1  0.08349665  0.90924362  0.96278967  1
  Se  Se157  1  0.41893202  0.23708724  0.44375151  1
  Se  Se158  1  0.41075781  0.25595441  0.94125561  1
  Se  Se159  1  0.40848526  0.57797263  0.43644950  1
  Se  Se160  1  0.41198484  0.59173743  0.95127037  1
  Se  Se161  1  0.41767884  0.90907573  0.43961175  1
  Se  Se162  1  0.42698700  0.92330843  0.94414628  1
  Se  Se163  1  0.75314326  0.25374255  0.44683066  1
  Se  Se164  1  0.74570665  0.23352817  0.94200560  1
  Se  Se165  1  0.73811794  0.60334553  0.44234176  1
  Se  Se166  1  0.76045184  0.57144381  0.95858888  1
  Se  Se167  1  0.74372912  0.92558876  0.44429286  1
  Se  Se168  1  0.74917226  0.91637440  0.93990825  1
  Se  Se169  1  0.25181984  0.06735426  0.43772319  1
  Se  Se170  1  0.22395703  0.11030505  0.95473287  1
  Se  Se171  1  0.25663605  0.39650945  0.43891913  1
  Se  Se172  1  0.25060315  0.42440124  0.95275323  1
  Se  Se173  1  0.25887378  0.74174896  0.43366541  1
  Se  Se174  1  0.25050085  0.75840967  0.94778952  1
  Se  Se175  1  0.57548330  0.08726586  0.44338836  1
  Se  Se176  1  0.58780388  0.07752004  0.93716093  1
  Se  Se177  1  0.58825166  0.41045361  0.43720592  1
  Se  Se178  1  0.58492047  0.40446266  0.95082749  1
  Se  Se179  1  0.57814730  0.74816767  0.45270600  1
  Se  Se180  1  0.60325766  0.73486423  0.95497944  1
  Se  Se181  1  0.90957542  0.09292133  0.43393411  1
  Se  Se182  1  0.91709284  0.07071465  0.95338681  1
  Se  Se183  1  0.92255209  0.41615476  0.42946164  1
  Se  Se184  1  0.91822913  0.40141725  0.95386365  1
  Se  Se185  1  0.91446529  0.75877715  0.43916136  1
  Se  Se186  1  0.92503562  0.74174338  0.93793307  1
  Se  Se187  1  0.25892642  0.25266767  0.29818070  1
  Se  Se188  1  0.24319654  0.24925083  0.82400803  1
  Se  Se189  1  0.25253706  0.58126673  0.29425836  1
  Se  Se190  1  0.26047956  0.59570885  0.80369062  1
  Se  Se191  1  0.23021034  0.87932364  0.29064891  1
  Se  Se192  1  0.25402808  0.92778444  0.81873942  1
  Se  Se193  1  0.58041225  0.24175594  0.30724900  1
  Se  Se194  1  0.57818761  0.24797204  0.79355263  1
  Se  Se195  1  0.57201186  0.57310050  0.30701993  1
  Se  Se196  1  0.58012732  0.58046227  0.82624652  1
  Se  Se197  1  0.58139760  0.91209036  0.30144720  1
  Se  Se198  1  0.58751746  0.91910365  0.80131379  1
  Se  Se199  1  0.93682444  0.27420929  0.29576852  1
  Se  Se200  1  0.90695896  0.23340898  0.81422822  1
  Se  Se201  1  0.91200771  0.58700957  0.29548110  1
  Se  Se202  1  0.91023007  0.57025718  0.81537232  1
  Se  Se203  1  0.91131956  0.92453589  0.30337613  1
  Se  Se204  1  0.91146248  0.91048450  0.80267135  1
  Se  Se205  1  0.09967835  0.09331550  0.30206559  1
  Se  Se206  1  0.08933049  0.07993661  0.83016002  1
  Se  Se207  1  0.08687385  0.41971070  0.29445444  1
  Se  Se208  1  0.09759507  0.42747113  0.81777447  1
  Se  Se209  1  0.06792077  0.74459590  0.29018908  1
  Se  Se210  1  0.09313093  0.76275950  0.81560993  1
  Se  Se211  1  0.41387736  0.07502686  0.30280535  1
  Se  Se212  1  0.42504814  0.10742601  0.80593919  1
  Se  Se213  1  0.41481109  0.41113742  0.29733875  1
  Se  Se214  1  0.41970866  0.42327667  0.81885726  1
  Se  Se215  1  0.41784233  0.74222021  0.29958997  1
  Se  Se216  1  0.42283413  0.75430818  0.80767893  1
  Se  Se217  1  0.74796320  0.09552910  0.29861470  1
  Se  Se218  1  0.74733253  0.07556545  0.80133243  1
  Se  Se219  1  0.75301645  0.42051435  0.30239426  1
  Se  Se220  1  0.74096592  0.40655374  0.81156856  1
  Se  Se221  1  0.74810918  0.76412477  0.31237790  1
  Se  Se222  1  0.75237241  0.75882074  0.81237019  1
  Se  Se223  1  0.25870498  0.07679467  0.19852506  1
  Se  Se224  1  0.24976859  0.07725619  0.70898850  1
  Se  Se225  1  0.25381142  0.41375995  0.18721336  1
  Se  Se226  1  0.24544271  0.42190594  0.69295585  1
  Se  Se227  1  0.24484950  0.75957626  0.20056852  1
  Se  Se228  1  0.26200751  0.75016428  0.70441945  1
  Se  Se229  1  0.58032457  0.07706839  0.19316575  1
  Se  Se230  1  0.59087716  0.07515844  0.69170359  1
  Se  Se231  1  0.57976568  0.42906937  0.18542818  1
  Se  Se232  1  0.58379320  0.42331810  0.70752332  1
  Se  Se233  1  0.57622869  0.75432109  0.18360547  1
  Se  Se234  1  0.57980523  0.76008637  0.68934982  1
  Se  Se235  1  0.92345870  0.08444447  0.20466232  1
  Se  Se236  1  0.91268469  0.08728155  0.68717543  1
  Se  Se237  1  0.91994189  0.41829205  0.18791758  1
  Se  Se238  1  0.91051306  0.41383388  0.69601211  1
  Se  Se239  1  0.90773833  0.75244260  0.20154403  1
  Se  Se240  1  0.91859395  0.75127999  0.69219465  1
  Se  Se241  1  0.08729149  0.25226657  0.18944063  1
  Se  Se242  1  0.08868504  0.23539669  0.70598815  1
  Se  Se243  1  0.08219421  0.58478375  0.18896481  1
  Se  Se244  1  0.09424882  0.57991288  0.68985500  1
  Se  Se245  1  0.07205701  0.93539368  0.20324586  1
  Se  Se246  1  0.09625591  0.90707501  0.69600801  1
  Se  Se247  1  0.41907440  0.24813851  0.19833851  1
  Se  Se248  1  0.41497989  0.24924408  0.68529721  1
  Se  Se249  1  0.40963779  0.58854117  0.19115453  1
  Se  Se250  1  0.42192247  0.58945660  0.70616826  1
  Se  Se251  1  0.41300175  0.91834482  0.19552365  1
  Se  Se252  1  0.41337200  0.92360866  0.69599322  1
  Se  Se253  1  0.76494149  0.24270824  0.18681653  1
  Se  Se254  1  0.74713301  0.25367911  0.69491222  1
  Se  Se255  1  0.74534077  0.57697895  0.18954284  1
  Se  Se256  1  0.75735336  0.57791856  0.70013777  1
  Se  Se257  1  0.74299460  0.92672254  0.19656527  1
  Se  Se258  1  0.74807828  0.91810112  0.69127962  1
