# generated using pymatgen
data_In86Cu29Se144
_symmetry_space_group_name_H-M   'P 1'
_cell_length_a   17.60719291
_cell_length_b   17.60821965
_cell_length_c   23.46599560
_cell_angle_alpha   89.98600913
_cell_angle_beta   90.00329848
_cell_angle_gamma   89.99189744
_symmetry_Int_Tables_number   1
_chemical_formula_structural   In86Cu29Se144
_chemical_formula_sum   'In86 Cu29 Se144'
_cell_volume   7275.19329364
_cell_formula_units_Z   1
loop_
 _symmetry_equiv_pos_site_id
 _symmetry_equiv_pos_as_xyz
  1  'x, y, z'
loop_
 _atom_site_type_symbol
 _atom_site_label
 _atom_site_symmetry_multiplicity
 _atom_site_fract_x
 _atom_site_fract_y
 _atom_site_fract_z
 _atom_site_occupancy
  In  In0  1  -0.00180492  0.16241196  0.12262965  1
  In  In1  1  -0.00761285  0.17295188  0.63307112  1
  In  In2  1  0.00548688  0.49225628  0.12747667  1
  In  In3  1  -0.00644953  0.49301365  0.62855029  1
  In  In4  1  0.00093138  0.83601844  0.12732018  1
  In  In5  1  0.01090324  0.83932601  0.61457275  1
  In  In6  1  0.32191723  0.15983340  0.11829098  1
  In  In7  1  0.34040252  0.17287033  0.63498953  1
  In  In8  1  0.32116192  0.51509859  0.13020603  1
  In  In9  1  0.32833519  0.50207519  0.63354438  1
  In  In10  1  0.32990351  0.84273442  0.13936896  1
  In  In11  1  0.32624418  0.82275020  0.61581043  1
  In  In12  1  0.66127729  0.15654281  0.11818362  1
  In  In13  1  0.66776987  0.15467250  0.62499792  1
  In  In14  1  0.66317720  0.51218968  0.13253467  1
  In  In15  1  0.67824325  0.51393480  0.62694108  1
  In  In16  1  0.67458332  0.82292403  0.13678293  1
  In  In17  1  0.65961631  0.83125476  0.61486298  1
  In  In18  1  0.14993142  -0.01534918  0.36176559  1
  In  In19  1  0.15343920  0.01352426  0.88862828  1
  In  In20  1  0.16097096  0.34144262  0.37246334  1
  In  In21  1  0.16275010  0.32912302  0.87730273  1
  In  In22  1  0.17304773  0.67035698  0.36918894  1
  In  In23  1  0.17140441  0.66030979  0.88397112  1
  In  In24  1  0.47997803  -0.03576202  0.34298172  1
  In  In25  1  0.50920556  0.00122564  0.88027656  1
  In  In26  1  0.49886346  0.33110909  0.37701672  1
  In  In27  1  0.49046728  0.33316890  0.87563061  1
  In  In28  1  0.53056641  0.71207593  0.32299314  1
  In  In29  1  0.49502391  0.67150268  0.86655321  1
  In  In30  1  0.83756127  0.00046511  0.37225841  1
  In  In31  1  0.84052176  -0.01188994  0.88342567  1
  In  In32  1  0.83389667  0.32080536  0.37660737  1
  In  In33  1  0.83900225  0.31760630  0.88061482  1
  In  In34  1  0.85767836  0.68732185  0.36392930  1
  In  In35  1  0.82901998  0.67857275  0.87960956  1
  In  In36  1  -0.00264097  0.16474186  0.36761926  1
  In  In37  1  0.00148125  0.16408404  0.87715740  1
  In  In38  1  0.00118346  0.49740346  0.36560909  1
  In  In39  1  0.01465181  0.49727604  0.88002258  1
  In  In40  1  -0.00094392  0.83136820  0.37868726  1
  In  In41  1  -0.00632611  0.84107901  0.88273653  1
  In  In42  1  0.34541180  0.15681258  0.37347907  1
  In  In43  1  0.32553213  0.16956846  0.88321338  1
  In  In44  1  0.33020796  0.51084244  0.37186761  1
  In  In45  1  0.32740542  0.49407378  0.86999407  1
  In  In46  1  0.33230407  0.82547173  0.37105419  1
  In  In47  1  0.33105535  0.82236293  0.87362928  1
  In  In48  1  0.68198422  0.15571015  0.37730803  1
  In  In49  1  0.66871611  0.16562234  0.88780858  1
  In  In50  1  0.65844496  0.52441608  0.36760275  1
  In  In51  1  0.65644194  0.50881316  0.87544049  1
  In  In52  1  0.67726003  0.84159380  0.37205805  1
  In  In53  1  0.67283824  0.83555690  0.87511513  1
  In  In54  1  0.16605312  -0.00322231  0.12723087  1
  In  In55  1  0.16349784  -0.01603447  0.62336807  1
  In  In56  1  0.14061189  0.31593588  0.10181210  1
  In  In57  1  0.16350065  0.33628110  0.63579557  1
  In  In58  1  0.16312786  0.66871681  0.12364404  1
  In  In59  1  0.16792394  0.68114125  0.62420101  1
  In  In60  1  0.49105822  0.00145998  0.13870662  1
  In  In61  1  0.50826524  0.00006696  0.62060043  1
  In  In62  1  0.50458584  0.32773062  0.12105129  1
  In  In63  1  0.48851838  0.32695753  0.63441348  1
  In  In64  1  0.49388435  0.66817995  0.14253727  1
  In  In65  1  0.49347376  0.67124206  0.62447507  1
  In  In66  1  0.83640177  -0.00110791  0.12567570  1
  In  In67  1  0.83860228  0.00962063  0.61655079  1
  In  In68  1  0.85406267  0.33044142  0.11933720  1
  In  In69  1  0.85296477  0.32343400  0.63073363  1
  In  In70  1  0.82407182  0.68387589  0.13127360  1
  In  In71  1  0.82304271  0.66892433  0.62129356  1
  In  In72  1  0.66744368  -0.00076900  0.74438546  1
  In  In73  1  0.50982817  0.15893991  0.50084846  1
  In  In74  1  0.83485486  0.50317371  -0.00001451  1
  In  In75  1  0.16420762  0.15899129  0.49207212  1
  In  In76  1  0.32424362  0.33682499  0.24932756  1
  In  In77  1  0.66623175  0.33836428  0.75828500  1
  In  In78  1  0.00233184  0.66389848  0.74701707  1
  In  In79  1  0.50268551  0.83548631  0.00756596  1
  In  In80  1  0.83618659  0.50321469  0.49907712  1
  In  In81  1  0.32984802  -0.00079845  0.75587624  1
  In  In82  1  0.49576188  0.50175266  0.00947760  1
  In  In83  1  0.16022151  0.50466530  0.50491381  1
  In  In84  1  0.49973358  0.50853598  0.49148375  1
  In  In85  1  0.67553365  0.33589926  0.24871982  1
  Cu  Cu86  1  0.33501124  -0.00308974  0.01057051  1
  Cu  Cu87  1  0.66559133  -0.00617167  0.49236650  1
  Cu  Cu88  1  0.83557833  0.83328850  0.75327641  1
  Cu  Cu89  1  0.84121237  0.84063313  0.25060709  1
  Cu  Cu90  1  0.83720912  0.50185861  0.75026632  1
  Cu  Cu91  1  0.67402355  0.33492966  0.50097262  1
  Cu  Cu92  1  0.17410331  0.49704549  0.75806510  1
  Cu  Cu93  1  0.83884677  0.16533044  0.24679981  1
  Cu  Cu94  1  0.15727024  0.49464468  0.24321059  1
  Cu  Cu95  1  -0.00305816  0.67280930  0.00454417  1
  Cu  Cu96  1  0.00028798  -0.00156316  0.00555479  1
  Cu  Cu97  1  0.49617907  0.82724171  0.74090875  1
  Cu  Cu98  1  -0.00244823  0.00086120  0.49319691  1
  Cu  Cu99  1  0.16653586  0.16547540  0.24133045  1
  Cu  Cu100  1  0.66603756  0.68011196  0.48830000  1
  Cu  Cu101  1  0.83389631  0.50499925  0.24583322  1
  Cu  Cu102  1  0.16521045  0.16566460  0.75907077  1
  Cu  Cu103  1  0.50362269  0.16722313  0.24793606  1
  Cu  Cu104  1  0.33611588  -0.01171836  0.49354359  1
  Cu  Cu105  1  0.16163420  0.83325138  0.74860235  1
  Cu  Cu106  1  0.67171768  0.33102008  0.00538800  1
  Cu  Cu107  1  0.32827397  0.33415676  -0.00642752  1
  Cu  Cu108  1  0.16490760  0.83088550  0.24947091  1
  Cu  Cu109  1  0.33898169  0.67644246  0.49361784  1
  Cu  Cu110  1  0.67047466  -0.00155508  0.00540581  1
  Cu  Cu111  1  0.83579378  0.16150293  0.75361654  1
  Cu  Cu112  1  0.50158841  0.50942846  0.74957397  1
  Cu  Cu113  1  0.33005916  0.66956255  0.00247229  1
  Cu  Cu114  1  0.32784727  0.33442849  0.50900459  1
  Se  Se115  1  0.08729667  0.08011253  0.05640418  1
  Se  Se116  1  0.07720935  0.07682128  0.55929397  1
  Se  Se117  1  0.08276410  0.42856600  0.04723290  1
  Se  Se118  1  0.07441496  0.40396897  0.55817505  1
  Se  Se119  1  0.08326081  0.75539918  0.05562191  1
  Se  Se120  1  0.08030130  0.74110879  0.55097916  1
  Se  Se121  1  0.42118431  0.08012349  0.06035795  1
  Se  Se122  1  0.40418343  0.07702684  0.55721429  1
  Se  Se123  1  0.40120289  0.40979069  0.06306612  1
  Se  Se124  1  0.41458325  0.41761123  0.55961168  1
  Se  Se125  1  0.41029478  0.74513710  0.06518258  1
  Se  Se126  1  0.42466791  0.75518061  0.54928429  1
  Se  Se127  1  0.75691639  0.08369880  0.05414467  1
  Se  Se128  1  0.74286501  0.08117872  0.54910123  1
  Se  Se129  1  0.74341681  0.41644425  0.06569107  1
  Se  Se130  1  0.75070993  0.41087278  0.56489617  1
  Se  Se131  1  0.74290224  0.75263910  0.05527290  1
  Se  Se132  1  0.75023096  0.75354919  0.54850915  1
  Se  Se133  1  0.24901647  0.24665126  0.04753900  1
  Se  Se134  1  0.24882579  0.24878772  0.56222621  1
  Se  Se135  1  0.24468470  0.58462744  0.05208874  1
  Se  Se136  1  0.26317478  0.59281812  0.55565219  1
  Se  Se137  1  0.25217844  0.91121336  0.06042771  1
  Se  Se138  1  0.24850913  0.91354032  0.55023457  1
  Se  Se139  1  0.58220073  0.24642193  0.05114068  1
  Se  Se140  1  0.58856121  0.26060540  0.56240060  1
  Se  Se141  1  0.58288071  0.59929478  0.06268482  1
  Se  Se142  1  0.59516035  0.59385140  0.55223494  1
  Se  Se143  1  0.59009311  0.92350343  0.06918495  1
  Se  Se144  1  0.57785555  0.91650341  0.54690830  1
  Se  Se145  1  0.92633475  0.24820927  0.04877082  1
  Se  Se146  1  0.91191321  0.23837832  0.55485411  1
  Se  Se147  1  0.91696344  0.59271339  0.06526910  1
  Se  Se148  1  0.92681942  0.59118865  0.56052299  1
  Se  Se149  1  0.91555276  0.91366217  0.05587280  1
  Se  Se150  1  0.91752867  0.91901111  0.55191400  1
  Se  Se151  1  0.07652797  0.25755840  0.44101522  1
  Se  Se152  1  0.08891206  0.24027820  0.94546149  1
  Se  Se153  1  0.07709213  0.58744912  0.43733714  1
  Se  Se154  1  0.07942143  0.58782144  0.95201599  1
  Se  Se155  1  0.08563063  0.91665602  0.44636105  1
  Se  Se156  1  0.08416818  0.91385485  0.95181127  1
  Se  Se157  1  0.40858264  0.25464096  0.44917897  1
  Se  Se158  1  0.41795271  0.25013206  0.94822875  1
  Se  Se159  1  0.41817751  0.60067873  0.43133968  1
  Se  Se160  1  0.41128097  0.58948332  0.94194197  1
  Se  Se161  1  0.42052148  0.91167022  0.43617163  1
  Se  Se162  1  0.41004535  0.92039932  0.94265803  1
  Se  Se163  1  0.75025617  0.24600954  0.44895375  1
  Se  Se164  1  0.75514350  0.24686880  0.95390547  1
  Se  Se165  1  0.75102000  0.59502266  0.43671584  1
  Se  Se166  1  0.73773774  0.59269671  0.94650905  1
  Se  Se167  1  0.76007458  0.91670344  0.44552853  1
  Se  Se168  1  0.74816588  0.91263699  0.94972001  1
  Se  Se169  1  0.25581025  0.06831583  0.43431584  1
  Se  Se170  1  0.25428745  0.07917488  0.95264201  1
  Se  Se171  1  0.25603770  0.41415727  0.44437758  1
  Se  Se172  1  0.24641971  0.41969397  0.94274572  1
  Se  Se173  1  0.24511541  0.75245981  0.44457496  1
  Se  Se174  1  0.24839917  0.75414398  0.94908970  1
  Se  Se175  1  0.58148742  0.06979777  0.43144634  1
  Se  Se176  1  0.58421230  0.08057279  0.95345350  1
  Se  Se177  1  0.59683606  0.41279520  0.43931210  1
  Se  Se178  1  0.58849787  0.41125321  0.94657065  1
  Se  Se179  1  0.58265987  0.74820752  0.42483123  1
  Se  Se180  1  0.58317410  0.74662848  0.94019863  1
  Se  Se181  1  0.91771451  0.08792116  0.44150618  1
  Se  Se182  1  0.91891265  0.07950954  0.94687159  1
  Se  Se183  1  0.92352240  0.41071844  0.44063547  1
  Se  Se184  1  0.92412486  0.41001089  0.94440843  1
  Se  Se185  1  0.91825474  0.75054866  0.45013966  1
  Se  Se186  1  0.91278943  0.75369703  0.94990412  1
  Se  Se187  1  0.24261103  0.23843921  0.31163072  1
  Se  Se188  1  0.25110689  0.24917147  0.80824539  1
  Se  Se189  1  0.24014851  0.57431592  0.29950884  1
  Se  Se190  1  0.25123670  0.59005105  0.80639976  1
  Se  Se191  1  0.25161053  0.91421342  0.30197346  1
  Se  Se192  1  0.23623549  0.91284853  0.81449089  1
  Se  Se193  1  0.58340082  0.24422921  0.31019916  1
  Se  Se194  1  0.58101491  0.24160803  0.81353702  1
  Se  Se195  1  0.57438876  0.57847151  0.29003676  1
  Se  Se196  1  0.58611486  0.59156547  0.80156463  1
  Se  Se197  1  0.61066420  0.93626110  0.30184236  1
  Se  Se198  1  0.57341191  0.90766680  0.80345222  1
  Se  Se199  1  0.91612409  0.25337388  0.30035125  1
  Se  Se200  1  0.91868716  0.24686668  0.80508509  1
  Se  Se201  1  0.92109152  0.58472367  0.29959860  1
  Se  Se202  1  0.91431446  0.58046482  0.81517320  1
  Se  Se203  1  0.92581071  0.91930356  0.30652731  1
  Se  Se204  1  0.91817260  0.91690691  0.80524528  1
  Se  Se205  1  0.08282017  0.08587325  0.29905572  1
  Se  Se206  1  0.08074413  0.07826657  0.80585515  1
  Se  Se207  1  0.07819738  0.40820577  0.29709852  1
  Se  Se208  1  0.08440824  0.41524339  0.80496000  1
  Se  Se209  1  0.08154748  0.75107866  0.30616444  1
  Se  Se210  1  0.08491111  0.75304721  0.81265471  1
  Se  Se211  1  0.41528238  0.08259245  0.29547232  1
  Se  Se212  1  0.42155565  0.08658190  0.81466916  1
  Se  Se213  1  0.42143923  0.41996477  0.30938361  1
  Se  Se214  1  0.42352967  0.42305484  0.80418930  1
  Se  Se215  1  0.38904017  0.72764645  0.29938301  1
  Se  Se216  1  0.41036613  0.75069553  0.79738851  1
  Se  Se217  1  0.75546875  0.08231665  0.29984939  1
  Se  Se218  1  0.75267118  0.08358607  0.81272195  1
  Se  Se219  1  0.75758998  0.42822978  0.31368093  1
  Se  Se220  1  0.76005237  0.42604407  0.81701736  1
  Se  Se221  1  0.75640507  0.75432344  0.30186997  1
  Se  Se222  1  0.74894817  0.75126135  0.80339883  1
  Se  Se223  1  0.25358085  0.07978744  0.19559112  1
  Se  Se224  1  0.23883980  0.08659272  0.69121345  1
  Se  Se225  1  0.23304253  0.41132837  0.18140323  1
  Se  Se226  1  0.25477282  0.41239600  0.70134552  1
  Se  Se227  1  0.24705042  0.74612661  0.19630781  1
  Se  Se228  1  0.25061624  0.75437421  0.69712344  1
  Se  Se229  1  0.58843870  0.08427292  0.19697226  1
  Se  Se230  1  0.56846506  0.09500432  0.69675209  1
  Se  Se231  1  0.57424622  0.41889094  0.19362393  1
  Se  Se232  1  0.58145769  0.42715665  0.68916050  1
  Se  Se233  1  0.57803760  0.75560360  0.20587537  1
  Se  Se234  1  0.58616610  0.74941519  0.68941517  1
  Se  Se235  1  0.92156882  0.07960448  0.19524534  1
  Se  Se236  1  0.91470997  0.07812337  0.69660671  1
  Se  Se237  1  0.91482300  0.41680825  0.19620872  1
  Se  Se238  1  0.92013726  0.41340422  0.70344790  1
  Se  Se239  1  0.92026129  0.75196693  0.19797697  1
  Se  Se240  1  0.91346148  0.75580306  0.68834836  1
  Se  Se241  1  0.08279052  0.24959600  0.19036352  1
  Se  Se242  1  0.08365176  0.24717196  0.70040778  1
  Se  Se243  1  0.07906015  0.58629546  0.19317020  1
  Se  Se244  1  0.09698390  0.57278754  0.68964069  1
  Se  Se245  1  0.08273401  0.91780870  0.19812733  1
  Se  Se246  1  0.07704241  0.91530148  0.69667703  1
  Se  Se247  1  0.41816440  0.24597955  0.19137657  1
  Se  Se248  1  0.41432071  0.25113713  0.70809816  1
  Se  Se249  1  0.41668944  0.57120821  0.20023706  1
  Se  Se250  1  0.41524848  0.58806885  0.69496353  1
  Se  Se251  1  0.42760549  0.90565665  0.20717517  1
  Se  Se252  1  0.41710028  0.91515795  0.68640340  1
  Se  Se253  1  0.75768518  0.24503380  0.18509388  1
  Se  Se254  1  0.75147444  0.24240086  0.69586177  1
  Se  Se255  1  0.74833439  0.59108467  0.19948095  1
  Se  Se256  1  0.75555185  0.58957678  0.70119068  1
  Se  Se257  1  0.75409207  0.91852938  0.19686857  1
  Se  Se258  1  0.75736114  0.90922174  0.68615938  1
