# generated using pymatgen
data_In86Cu29Se144
_symmetry_space_group_name_H-M   'P 1'
_cell_length_a   17.56977249
_cell_length_b   17.56817983
_cell_length_c   23.42443062
_cell_angle_alpha   89.97793862
_cell_angle_beta   90.01392593
_cell_angle_gamma   90.01082933
_symmetry_Int_Tables_number   1
_chemical_formula_structural   In86Cu29Se144
_chemical_formula_sum   'In86 Cu29 Se144'
_cell_volume   7230.39288751
_cell_formula_units_Z   1
loop_
 _symmetry_equiv_pos_site_id
 _symmetry_equiv_pos_as_xyz
  1  'x, y, z'
loop_
 _atom_site_type_symbol
 _atom_site_label
 _atom_site_symmetry_multiplicity
 _atom_site_fract_x
 _atom_site_fract_y
 _atom_site_fract_z
 _atom_site_occupancy
  In  In0  1  -0.01530395  0.17068501  0.12849598  1
  In  In1  1  -0.00482408  0.16984776  0.60835130  1
  In  In2  1  0.00206201  0.50918776  0.13486250  1
  In  In3  1  0.00585230  0.49176936  0.62435159  1
  In  In4  1  -0.00150494  0.83139064  0.13675023  1
  In  In5  1  0.01070381  0.82297854  0.62470122  1
  In  In6  1  0.33826851  0.18002165  0.12885862  1
  In  In7  1  0.32818230  0.17789236  0.61552839  1
  In  In8  1  0.32750306  0.50433327  0.13159455  1
  In  In9  1  0.34785793  0.51488984  0.60459726  1
  In  In10  1  0.31565022  0.82951194  0.12454337  1
  In  In11  1  0.33116233  0.82647187  0.61494135  1
  In  In12  1  0.67173252  0.15119907  0.13088886  1
  In  In13  1  0.67775652  0.15592950  0.62537702  1
  In  In14  1  0.67609611  0.50813484  0.11720575  1
  In  In15  1  0.64571058  0.50826508  0.62744367  1
  In  In16  1  0.69471246  0.81255152  0.15408743  1
  In  In17  1  0.66657012  0.85155244  0.62196557  1
  In  In18  1  0.16096789  0.00215603  0.37916230  1
  In  In19  1  0.15628231  -0.00126179  0.87656161  1
  In  In20  1  0.16612331  0.33414017  0.36320660  1
  In  In21  1  0.17735017  0.34492506  0.87636048  1
  In  In22  1  0.17324483  0.66185756  0.37457180  1
  In  In23  1  0.17121226  0.66658490  0.87932025  1
  In  In24  1  0.49967613  -0.01498840  0.37948199  1
  In  In25  1  0.52138889  -0.01911172  0.87064418  1
  In  In26  1  0.50889882  0.36700838  0.38376381  1
  In  In27  1  0.50905734  0.32780482  0.87759098  1
  In  In28  1  0.49791582  0.66391439  0.37247187  1
  In  In29  1  0.48003774  0.67095268  0.87448955  1
  In  In30  1  0.84211846  -0.00025314  0.35949109  1
  In  In31  1  0.82731896  0.00645708  0.88485780  1
  In  In32  1  0.84092536  0.32355130  0.37790526  1
  In  In33  1  0.82390472  0.34039453  0.88721527  1
  In  In34  1  0.83325012  0.67832225  0.35335528  1
  In  In35  1  0.84073712  0.66170564  0.89107122  1
  In  In36  1  0.00146691  0.16419752  0.36560441  1
  In  In37  1  -0.00595556  0.15119330  0.87989838  1
  In  In38  1  0.02855436  0.51605798  0.34388695  1
  In  In39  1  0.00354372  0.50045954  0.88753758  1
  In  In40  1  -0.00199583  0.84172521  0.36442845  1
  In  In41  1  0.00475704  0.82486663  0.88816568  1
  In  In42  1  0.31733841  0.16468093  0.37709562  1
  In  In43  1  0.33557564  0.17795096  0.87341377  1
  In  In44  1  0.33017539  0.50483149  0.36697261  1
  In  In45  1  0.31806006  0.51169909  0.88501606  1
  In  In46  1  0.34683820  0.80929314  0.39262799  1
  In  In47  1  0.33787011  0.81513332  0.87093116  1
  In  In48  1  0.68802371  0.17213785  0.38642936  1
  In  In49  1  0.66887451  0.16838995  0.87336488  1
  In  In50  1  0.65240485  0.50388523  0.38141158  1
  In  In51  1  0.66851628  0.49289666  0.88570836  1
  In  In52  1  0.66553257  0.82949179  0.36365442  1
  In  In53  1  0.66400913  0.84204394  0.87313759  1
  In  In54  1  0.16461850  -0.02212959  0.12543775  1
  In  In55  1  0.16012049  -0.00380905  0.61531895  1
  In  In56  1  0.13869977  0.37178415  0.16508449  1
  In  In57  1  0.17595361  0.34364773  0.60716055  1
  In  In58  1  0.16323182  0.66460524  0.13602041  1
  In  In59  1  0.20022383  0.68998979  0.58945435  1
  In  In60  1  0.51304670  0.00343594  0.12852677  1
  In  In61  1  0.52162161  -0.00394933  0.61729563  1
  In  In62  1  0.48362130  0.34409734  0.13422226  1
  In  In63  1  0.49882634  0.34300877  0.62607948  1
  In  In64  1  0.50883318  0.65621485  0.13057254  1
  In  In65  1  0.48809743  0.66066466  0.60941885  1
  In  In66  1  0.83103576  -0.00386091  0.12938863  1
  In  In67  1  0.81874333  0.00604093  0.61921109  1
  In  In68  1  0.84291689  0.34123626  0.11636820  1
  In  In69  1  0.83153918  0.31615634  0.61948723  1
  In  In70  1  0.83921744  0.66825816  0.13315629  1
  In  In71  1  0.83417109  0.66671515  0.62436872  1
  In  In72  1  0.65665917  0.67495043  0.75114658  1
  In  In73  1  0.50105458  0.16968459  0.00245340  1
  In  In74  1  0.32837267  -0.00724113  0.25387074  1
  In  In75  1  0.00507889  0.66303771  0.75863320  1
  In  In76  1  -0.00304742  -0.00900024  0.73981609  1
  In  In77  1  0.50186517  0.83082056  -0.00318665  1
  In  In78  1  0.83629026  0.49285879  0.49066745  1
  In  In79  1  0.66617606  0.33360676  0.25949834  1
  In  In80  1  0.15944487  0.17780604  0.00698113  1
  In  In81  1  -0.00105316  0.33249852  0.75561494  1
  In  In82  1  0.50032632  0.16914570  0.49974146  1
  In  In83  1  0.83549966  0.84037569  0.49497582  1
  In  In84  1  0.34290876  -0.00523877  0.74876826  1
  In  In85  1  0.33985333  0.34203174  0.74348407  1
  Cu  Cu86  1  0.17509464  0.51752600  0.74698932  1
  Cu  Cu87  1  0.82905649  0.49734730  0.24552565  1
  Cu  Cu88  1  0.16151122  0.17043599  0.73506068  1
  Cu  Cu89  1  0.49305668  0.82951959  0.25345052  1
  Cu  Cu90  1  0.66103629  0.32730230  0.00401876  1
  Cu  Cu91  1  0.00423099  0.33447664  0.48545315  1
  Cu  Cu92  1  0.16440200  0.15765803  0.25058693  1
  Cu  Cu93  1  0.49336942  0.50348229  0.74900204  1
  Cu  Cu94  1  0.00518932  0.65916559  0.48848607  1
  Cu  Cu95  1  0.83185437  0.16745263  0.25020183  1
  Cu  Cu96  1  0.32177553  0.35228524  0.01098098  1
  Cu  Cu97  1  0.67621550  -0.00967600  0.00655216  1
  Cu  Cu98  1  0.50167331  0.17176031  0.26209697  1
  Cu  Cu99  1  0.82056695  0.49015464  0.75636694  1
  Cu  Cu100  1  0.00259996  0.33855579  0.01045712  1
  Cu  Cu101  1  0.51281851  0.15801274  0.74879871  1
  Cu  Cu102  1  0.32964537  0.66571031  0.00424309  1
  Cu  Cu103  1  0.16843805  0.82923869  0.25757891  1
  Cu  Cu104  1  0.32634812  0.00126219  0.00010939  1
  Cu  Cu105  1  0.83152055  0.83888997  0.75621778  1
  Cu  Cu106  1  0.67116100  0.66700638  0.00943167  1
  Cu  Cu107  1  0.50074204  0.50699574  0.25248641  1
  Cu  Cu108  1  0.82348203  0.16391745  0.75235234  1
  Cu  Cu109  1  0.66257730  0.66938536  0.49227696  1
  Cu  Cu110  1  -0.00290575  -0.00911985  0.00606166  1
  Cu  Cu111  1  0.32948187  -0.00528226  0.49751153  1
  Cu  Cu112  1  0.00151333  0.66963805  0.01240202  1
  Cu  Cu113  1  0.32697465  0.33199106  0.49025947  1
  Cu  Cu114  1  -0.00442784  0.00264314  0.49165700  1
  Se  Se115  1  0.07863934  0.07571233  0.06374008  1
  Se  Se116  1  0.08205460  0.08331902  0.54747618  1
  Se  Se117  1  0.08377869  0.41873809  0.06727523  1
  Se  Se118  1  0.07886411  0.41880506  0.54548167  1
  Se  Se119  1  0.08446929  0.75186399  0.06688822  1
  Se  Se120  1  0.07802212  0.75067071  0.54407514  1
  Se  Se121  1  0.40816874  0.07600813  0.06065247  1
  Se  Se122  1  0.40984090  0.07481634  0.55938558  1
  Se  Se123  1  0.41705237  0.42808019  0.05865145  1
  Se  Se124  1  0.41465344  0.40636232  0.54883763  1
  Se  Se125  1  0.41350794  0.74572121  0.06256209  1
  Se  Se126  1  0.40551188  0.74218496  0.54220192  1
  Se  Se127  1  0.75456491  0.08355444  0.05512246  1
  Se  Se128  1  0.75654667  0.09287733  0.54537351  1
  Se  Se129  1  0.74813651  0.41385880  0.05109529  1
  Se  Se130  1  0.75176694  0.42676076  0.56895195  1
  Se  Se131  1  0.75175622  0.75027237  0.06378990  1
  Se  Se132  1  0.74583122  0.74450318  0.55510891  1
  Se  Se133  1  0.24575537  0.26504756  0.06841088  1
  Se  Se134  1  0.24346376  0.24530534  0.54095704  1
  Se  Se135  1  0.24608576  0.58753935  0.06156690  1
  Se  Se136  1  0.22601196  0.55537975  0.55311961  1
  Se  Se137  1  0.24613360  0.91078746  0.04764236  1
  Se  Se138  1  0.24340880  0.91230036  0.54968376  1
  Se  Se139  1  0.58443021  0.25427864  0.07122339  1
  Se  Se140  1  0.58758564  0.25330773  0.56496985  1
  Se  Se141  1  0.58013256  0.58171727  0.05146269  1
  Se  Se142  1  0.58234628  0.58250130  0.54511963  1
  Se  Se143  1  0.59111416  0.91098382  0.06310012  1
  Se  Se144  1  0.59238938  0.91759288  0.54194502  1
  Se  Se145  1  0.91528305  0.24674507  0.04885434  1
  Se  Se146  1  0.91640229  0.25594033  0.54031142  1
  Se  Se147  1  0.91728552  0.58349807  0.06184349  1
  Se  Se148  1  0.92411863  0.58806348  0.55493550  1
  Se  Se149  1  0.91606345  0.91085460  0.06356725  1
  Se  Se150  1  0.92648612  0.92417994  0.56285252  1
  Se  Se151  1  0.08593249  0.24750801  0.43362240  1
  Se  Se152  1  0.07315164  0.26247873  0.93613773  1
  Se  Se153  1  0.08446408  0.57232536  0.43713565  1
  Se  Se154  1  0.08250533  0.59235258  0.94985807  1
  Se  Se155  1  0.07598574  0.91289267  0.44251950  1
  Se  Se156  1  0.08684227  0.91616752  0.95137979  1
  Se  Se157  1  0.41524413  0.25615498  0.43331669  1
  Se  Se158  1  0.40109342  0.26570199  0.95147853  1
  Se  Se159  1  0.42372492  0.57036213  0.43798157  1
  Se  Se160  1  0.41447436  0.58499648  0.94999248  1
  Se  Se161  1  0.41903114  0.91139000  0.45294946  1
  Se  Se162  1  0.41185538  0.92624195  0.93820455  1
  Se  Se163  1  0.74697613  0.27277047  0.45291614  1
  Se  Se164  1  0.74474303  0.24499575  0.94936785  1
  Se  Se165  1  0.75446500  0.59818549  0.43521877  1
  Se  Se166  1  0.74951087  0.57972070  0.95256014  1
  Se  Se167  1  0.74754219  0.92306400  0.43165954  1
  Se  Se168  1  0.75265526  0.90735081  0.94681739  1
  Se  Se169  1  0.24530781  0.08134932  0.44976945  1
  Se  Se170  1  0.25186886  0.08880560  0.94129158  1
  Se  Se171  1  0.24794987  0.41492810  0.43419406  1
  Se  Se172  1  0.23557357  0.42937542  0.95475702  1
  Se  Se173  1  0.24265386  0.74380917  0.45205318  1
  Se  Se174  1  0.25242235  0.75265832  0.94821646  1
  Se  Se175  1  0.58818058  0.07962694  0.43967463  1
  Se  Se176  1  0.59054885  0.07076695  0.94751710  1
  Se  Se177  1  0.60478207  0.41202763  0.45948320  1
  Se  Se178  1  0.57767366  0.41225720  0.95148761  1
  Se  Se179  1  0.58361120  0.75346615  0.43682198  1
  Se  Se180  1  0.59304327  0.73692329  0.93865645  1
  Se  Se181  1  0.91474074  0.08201385  0.43438370  1
  Se  Se182  1  0.91550733  0.08013756  0.95571900  1
  Se  Se183  1  0.93572237  0.42440921  0.42480997  1
  Se  Se184  1  0.91733958  0.41746616  0.95190836  1
  Se  Se185  1  0.91875054  0.74197695  0.43580112  1
  Se  Se186  1  0.91622220  0.75180473  0.95763060  1
  Se  Se187  1  0.25062180  0.24261057  0.29849739  1
  Se  Se188  1  0.24091775  0.24831819  0.79956649  1
  Se  Se189  1  0.23844418  0.57561416  0.29750860  1
  Se  Se190  1  0.25760940  0.59502884  0.80483426  1
  Se  Se191  1  0.25158091  0.90399542  0.32154840  1
  Se  Se192  1  0.24756952  0.91448544  0.81176972  1
  Se  Se193  1  0.57833064  0.24913848  0.32476557  1
  Se  Se194  1  0.58466442  0.24910753  0.80379404  1
  Se  Se195  1  0.58954096  0.58736414  0.30344735  1
  Se  Se196  1  0.57617899  0.57792238  0.81333495  1
  Se  Se197  1  0.57677896  0.91811166  0.30048686  1
  Se  Se198  1  0.58524625  0.90262064  0.79219963  1
  Se  Se199  1  0.91704768  0.25196305  0.29986509  1
  Se  Se200  1  0.90772478  0.24051724  0.81382616  1
  Se  Se201  1  0.91557134  0.58468178  0.29312891  1
  Se  Se202  1  0.90707621  0.56997603  0.81218574  1
  Se  Se203  1  0.90130147  0.89868103  0.29246712  1
  Se  Se204  1  0.91682137  0.91290693  0.81624155  1
  Se  Se205  1  0.08214238  0.07148247  0.30076672  1
  Se  Se206  1  0.08721347  0.09050671  0.79977641  1
  Se  Se207  1  0.07801326  0.39873411  0.28701441  1
  Se  Se208  1  0.09396306  0.43331359  0.80585293  1
  Se  Se209  1  0.08325988  0.74581377  0.30873916  1
  Se  Se210  1  0.09293565  0.76200731  0.80979829  1
  Se  Se211  1  0.41778245  0.08443258  0.31446242  1
  Se  Se212  1  0.42928914  0.08820441  0.81346106  1
  Se  Se213  1  0.42256475  0.41698920  0.30372069  1
  Se  Se214  1  0.41832980  0.42411444  0.81617284  1
  Se  Se215  1  0.40978572  0.74606914  0.30475111  1
  Se  Se216  1  0.43638898  0.76624695  0.79875862  1
  Se  Se217  1  0.74616665  0.09003808  0.30562370  1
  Se  Se218  1  0.74687865  0.07640060  0.80749852  1
  Se  Se219  1  0.75651674  0.42650278  0.31587740  1
  Se  Se220  1  0.73995258  0.40810628  0.81052471  1
  Se  Se221  1  0.74812169  0.76019867  0.28771379  1
  Se  Se222  1  0.76086623  0.74757755  0.81388925  1
  Se  Se223  1  0.24629049  0.08249035  0.18606304  1
  Se  Se224  1  0.24888096  0.08624088  0.68652660  1
  Se  Se225  1  0.27644547  0.39415890  0.19597861  1
  Se  Se226  1  0.24552065  0.42721252  0.68585064  1
  Se  Se227  1  0.25217139  0.74863879  0.20277692  1
  Se  Se228  1  0.24988964  0.74323760  0.68394050  1
  Se  Se229  1  0.57791163  0.09009006  0.20366680  1
  Se  Se230  1  0.59293758  0.07473550  0.69465148  1
  Se  Se231  1  0.58491861  0.42581744  0.19331965  1
  Se  Se232  1  0.57946053  0.41783370  0.70084860  1
  Se  Se233  1  0.57850973  0.74699450  0.20133377  1
  Se  Se234  1  0.57899315  0.75019399  0.67535538  1
  Se  Se235  1  0.91462764  0.08031124  0.19867508  1
  Se  Se236  1  0.91148509  0.09478331  0.68876213  1
  Se  Se237  1  0.91442082  0.41502041  0.19437485  1
  Se  Se238  1  0.90670287  0.41918530  0.69323048  1
  Se  Se239  1  0.91171431  0.75421321  0.20576094  1
  Se  Se240  1  0.91031207  0.75658554  0.69696576  1
  Se  Se241  1  0.08424163  0.23857378  0.19323982  1
  Se  Se242  1  0.08296938  0.25470742  0.67994562  1
  Se  Se243  1  0.09996529  0.56893598  0.20688737  1
  Se  Se244  1  0.08760882  0.58656756  0.68609497  1
  Se  Se245  1  0.08626879  0.91490890  0.20511212  1
  Se  Se246  1  0.10070794  0.90254715  0.69446258  1
  Se  Se247  1  0.41956551  0.24958565  0.20504362  1
  Se  Se248  1  0.42593484  0.23652333  0.69191799  1
  Se  Se249  1  0.41484384  0.58769128  0.19905069  1
  Se  Se250  1  0.41523293  0.58260195  0.68879181  1
  Se  Se251  1  0.41960841  0.90989789  0.18715958  1
  Se  Se252  1  0.42488506  0.91251298  0.67958584  1
  Se  Se253  1  0.75422135  0.25252388  0.19046240  1
  Se  Se254  1  0.74728958  0.25062958  0.69609691  1
  Se  Se255  1  0.74560779  0.58355859  0.19545394  1
  Se  Se256  1  0.75224413  0.57953492  0.69515901  1
  Se  Se257  1  0.71785529  0.94732156  0.19156655  1
  Se  Se258  1  0.75499703  0.91837312  0.69548696  1
