# generated using pymatgen
data_In86Cu29Se144
_symmetry_space_group_name_H-M   'P 1'
_cell_length_a   17.57606532
_cell_length_b   17.57726760
_cell_length_c   23.43872219
_cell_angle_alpha   89.99847368
_cell_angle_beta   90.00021674
_cell_angle_gamma   89.99301295
_symmetry_Int_Tables_number   1
_chemical_formula_structural   In86Cu29Se144
_chemical_formula_sum   'In86 Cu29 Se144'
_cell_volume   7241.14010492
_cell_formula_units_Z   1
loop_
 _symmetry_equiv_pos_site_id
 _symmetry_equiv_pos_as_xyz
  1  'x, y, z'
loop_
 _atom_site_type_symbol
 _atom_site_label
 _atom_site_symmetry_multiplicity
 _atom_site_fract_x
 _atom_site_fract_y
 _atom_site_fract_z
 _atom_site_occupancy
  In  In0  1  -0.00400875  0.17176634  0.13968545  1
  In  In1  1  -0.00869291  0.15916020  0.62317923  1
  In  In2  1  0.00661768  0.48301397  0.13020529  1
  In  In3  1  0.00848863  0.50834163  0.60603381  1
  In  In4  1  0.01075408  0.84609397  0.11924580  1
  In  In5  1  0.00952783  0.84926545  0.62700503  1
  In  In6  1  0.33606456  0.16356990  0.12749033  1
  In  In7  1  0.34180319  0.16066896  0.62819594  1
  In  In8  1  0.33718424  0.50249779  0.12542690  1
  In  In9  1  0.32196404  0.50412143  0.63284368  1
  In  In10  1  0.33101000  0.83526559  0.12205103  1
  In  In11  1  0.32789102  0.82407203  0.63555635  1
  In  In12  1  0.66593372  0.16785384  0.11752537  1
  In  In13  1  0.67254498  0.17485209  0.61980818  1
  In  In14  1  0.65939889  0.50604779  0.12232872  1
  In  In15  1  0.66171681  0.48721628  0.62434159  1
  In  In16  1  0.66577972  0.83278119  0.11525103  1
  In  In17  1  0.67132967  0.82551140  0.62896985  1
  In  In18  1  0.16825792  0.00921966  0.35782971  1
  In  In19  1  0.16033297  -0.00864010  0.86733843  1
  In  In20  1  0.18057164  0.33178192  0.35946089  1
  In  In21  1  0.19607196  0.33157656  0.88283275  1
  In  In22  1  0.17061625  0.65360015  0.38080644  1
  In  In23  1  0.17497736  0.65405975  0.88646735  1
  In  In24  1  0.50478457  0.00747734  0.37443004  1
  In  In25  1  0.48475756  0.01191219  0.88338967  1
  In  In26  1  0.47993743  0.32986446  0.36950374  1
  In  In27  1  0.49597515  0.33176262  0.88084934  1
  In  In28  1  0.49165296  0.66359257  0.36799870  1
  In  In29  1  0.48672199  0.68008114  0.88396348  1
  In  In30  1  0.84280088  -0.00124280  0.37767797  1
  In  In31  1  0.83989629  0.00044707  0.88082008  1
  In  In32  1  0.84484446  0.32026472  0.38110267  1
  In  In33  1  0.81979612  0.33484122  0.87377312  1
  In  In34  1  0.84965044  0.66498542  0.39255718  1
  In  In35  1  0.84514067  0.67044129  0.87545222  1
  In  In36  1  -0.00882658  0.15895435  0.35715385  1
  In  In37  1  0.00505951  0.15260490  0.87730915  1
  In  In38  1  0.01646023  0.48680977  0.38584466  1
  In  In39  1  0.00456854  0.50750405  0.87801879  1
  In  In40  1  -0.00799449  0.83332177  0.37643478  1
  In  In41  1  -0.00442325  0.83944454  0.88332308  1
  In  In42  1  0.33828059  0.17345353  0.36604699  1
  In  In43  1  0.34296178  0.17201221  0.87023819  1
  In  In44  1  0.33175852  0.49316219  0.36644483  1
  In  In45  1  0.33108377  0.49844799  0.88103000  1
  In  In46  1  0.32861834  0.83230106  0.36759241  1
  In  In47  1  0.32617567  0.83563499  0.87682271  1
  In  In48  1  0.66915857  0.16224046  0.38323344  1
  In  In49  1  0.65498183  0.17858567  0.88311507  1
  In  In50  1  0.66627834  0.51203617  0.37573946  1
  In  In51  1  0.66523908  0.48068368  0.86873147  1
  In  In52  1  0.67586340  0.84133217  0.37641624  1
  In  In53  1  0.66830150  0.83488695  0.88063328  1
  In  In54  1  0.17764701  0.00447821  0.13698647  1
  In  In55  1  0.16900487  -0.01200997  0.64104448  1
  In  In56  1  0.16582066  0.33277610  0.12850620  1
  In  In57  1  0.16780017  0.34641496  0.62307606  1
  In  In58  1  0.17573570  0.68116905  0.11796713  1
  In  In59  1  0.17866413  0.66289273  0.62049849  1
  In  In60  1  0.49242648  -0.00694876  0.11390014  1
  In  In61  1  0.48621794  0.00408818  0.62820314  1
  In  In62  1  0.49092034  0.33126429  0.11400309  1
  In  In63  1  0.50700341  0.32973574  0.63078413  1
  In  In64  1  0.47547450  0.64754584  0.10868086  1
  In  In65  1  0.48659038  0.65344187  0.62845053  1
  In  In66  1  0.84427971  0.00999235  0.12141588  1
  In  In67  1  0.84034406  0.00932233  0.62088087  1
  In  In68  1  0.84714315  0.32366743  0.13295607  1
  In  In69  1  0.83111395  0.32456364  0.61529405  1
  In  In70  1  0.82332339  0.67072846  0.12550668  1
  In  In71  1  0.84616426  0.67553343  0.60750173  1
  In  In72  1  0.50228157  0.83369335  0.51110779  1
  In  In73  1  0.66771721  -0.00215253  0.25314864  1
  In  In74  1  0.49781420  0.49485739  0.49823931  1
  In  In75  1  0.00244783  0.33173323  0.74513783  1
  In  In76  1  0.16477574  0.16869424  0.49194346  1
  In  In77  1  0.66282381  0.33132992  0.24222966  1
  In  In78  1  0.16023438  0.82827830  0.50085282  1
  In  In79  1  0.00856783  0.67068893  0.74855971  1
  In  In80  1  0.00343200  0.66725740  0.25810797  1
  In  In81  1  0.83331437  0.50114609  0.00108176  1
  In  In82  1  0.66009740  0.67205795  0.25427543  1
  In  In83  1  0.16983933  0.16752002  0.00701387  1
  In  In84  1  0.66014757  0.65649311  0.74453761  1
  In  In85  1  0.66254888  0.00320770  0.76092560  1
  Cu  Cu86  1  0.83299636  0.49244306  0.25689337  1
  Cu  Cu87  1  0.66952106  0.67432707  0.49875130  1
  Cu  Cu88  1  0.83575003  0.83853921  0.75590116  1
  Cu  Cu89  1  0.84031786  0.83751794  0.25174260  1
  Cu  Cu90  1  0.17271989  0.49360957  0.75535295  1
  Cu  Cu91  1  0.00070895  0.00409199  0.49817297  1
  Cu  Cu92  1  -0.00238649  0.00186360  0.00208937  1
  Cu  Cu93  1  0.83334289  0.16854525  0.74472089  1
  Cu  Cu94  1  0.49661142  0.16323834  0.24743769  1
  Cu  Cu95  1  0.49013610  0.49599481  0.75528340  1
  Cu  Cu96  1  0.66597232  0.66839075  -0.00199341  1
  Cu  Cu97  1  0.67325791  0.00451108  0.49887191  1
  Cu  Cu98  1  0.48417655  0.83237645  0.75632330  1
  Cu  Cu99  1  0.83210509  0.49435736  0.73897928  1
  Cu  Cu100  1  0.49043489  0.82890922  0.23864808  1
  Cu  Cu101  1  0.00212115  0.32638317  0.00760135  1
  Cu  Cu102  1  0.00293200  0.33270730  0.49579342  1
  Cu  Cu103  1  0.32563115  -0.00011876  0.00065620  1
  Cu  Cu104  1  0.33176331  0.33311281  0.49327051  1
  Cu  Cu105  1  0.17164623  0.50383861  0.24850537  1
  Cu  Cu106  1  0.66549438  0.33135464  0.00042856  1
  Cu  Cu107  1  0.17298748  0.83628940  0.24442573  1
  Cu  Cu108  1  0.33583386  -0.00013499  0.50285921  1
  Cu  Cu109  1  0.17056549  0.16353483  0.75407138  1
  Cu  Cu110  1  0.66973748  -0.00082042  -0.00190904  1
  Cu  Cu111  1  0.00019165  0.67055015  0.00147310  1
  Cu  Cu112  1  0.33269928  0.66844058  0.00085874  1
  Cu  Cu113  1  0.49983769  0.17216957  0.75534877  1
  Cu  Cu114  1  0.66531309  0.33155843  0.50039068  1
  Se  Se115  1  0.07743834  0.07967762  0.06580359  1
  Se  Se116  1  0.08849557  0.07382442  0.56039799  1
  Se  Se117  1  0.08637457  0.41397002  0.05383752  1
  Se  Se118  1  0.09106877  0.41594308  0.54471061  1
  Se  Se119  1  0.08521031  0.75646031  0.05078938  1
  Se  Se120  1  0.07150520  0.74046769  0.56285531  1
  Se  Se121  1  0.41109078  0.08511323  0.05141958  1
  Se  Se122  1  0.42006401  0.08662954  0.55088436  1
  Se  Se123  1  0.42724673  0.43478192  0.05268673  1
  Se  Se124  1  0.40927776  0.40824239  0.56097077  1
  Se  Se125  1  0.41637174  0.75816759  0.05026643  1
  Se  Se126  1  0.40507940  0.73923460  0.55797060  1
  Se  Se127  1  0.75096904  0.08205776  0.05357378  1
  Se  Se128  1  0.75536612  0.08951705  0.55329372  1
  Se  Se129  1  0.74820126  0.40800382  0.06382996  1
  Se  Se130  1  0.74772830  0.41609587  0.55254608  1
  Se  Se131  1  0.75315984  0.74953760  0.04919265  1
  Se  Se132  1  0.75077134  0.76083037  0.55054451  1
  Se  Se133  1  0.26254213  0.26167662  0.05790594  1
  Se  Se134  1  0.25420201  0.25312461  0.55722719  1
  Se  Se135  1  0.25051965  0.58499329  0.05584836  1
  Se  Se136  1  0.24883837  0.57143314  0.55280829  1
  Se  Se137  1  0.24267607  0.92185132  0.05842442  1
  Se  Se138  1  0.25514444  0.91916562  0.56009007  1
  Se  Se139  1  0.57974107  0.24679906  0.05059740  1
  Se  Se140  1  0.57950685  0.25063411  0.55389425  1
  Se  Se141  1  0.58326903  0.58261705  0.04834734  1
  Se  Se142  1  0.58865353  0.59203138  0.55737210  1
  Se  Se143  1  0.58288364  0.91564711  0.04811425  1
  Se  Se144  1  0.59495844  0.92936963  0.56558221  1
  Se  Se145  1  0.91864592  0.24245604  0.05805073  1
  Se  Se146  1  0.92354877  0.24666837  0.55035405  1
  Se  Se147  1  0.92385206  0.58792948  0.06503376  1
  Se  Se148  1  0.90535949  0.57210836  0.54565123  1
  Se  Se149  1  0.91328692  0.91491343  0.05310639  1
  Se  Se150  1  0.92174704  0.92066197  0.55550925  1
  Se  Se151  1  0.07829618  0.25544543  0.42905877  1
  Se  Se152  1  0.08213274  0.25586294  0.93917304  1
  Se  Se153  1  0.06438908  0.60172183  0.44405127  1
  Se  Se154  1  0.08114029  0.57983328  0.95403958  1
  Se  Se155  1  0.08558258  0.92955423  0.43725969  1
  Se  Se156  1  0.08408159  0.92273460  0.94788351  1
  Se  Se157  1  0.41522722  0.24458629  0.44550785  1
  Se  Se158  1  0.41570447  0.24445545  0.94734027  1
  Se  Se159  1  0.40840366  0.58626667  0.44110720  1
  Se  Se160  1  0.41643416  0.58345623  0.94858948  1
  Se  Se161  1  0.41480409  0.91717106  0.44232589  1
  Se  Se162  1  0.41147000  0.91638806  0.94771142  1
  Se  Se163  1  0.75157291  0.24807972  0.44877014  1
  Se  Se164  1  0.75298074  0.25019732  0.94891655  1
  Se  Se165  1  0.74875490  0.58477819  0.44832186  1
  Se  Se166  1  0.74394292  0.58682170  0.93492463  1
  Se  Se167  1  0.75581428  0.91953362  0.44720992  1
  Se  Se168  1  0.75468294  0.91590570  0.94607204  1
  Se  Se169  1  0.25804511  0.07501335  0.43787523  1
  Se  Se170  1  0.24992620  0.08111708  0.93729482  1
  Se  Se171  1  0.24916962  0.41304663  0.43765302  1
  Se  Se172  1  0.23687182  0.43380837  0.95286889  1
  Se  Se173  1  0.25968672  0.74508555  0.44446594  1
  Se  Se174  1  0.24736053  0.75264009  0.94937653  1
  Se  Se175  1  0.58129040  0.08249143  0.45013984  1
  Se  Se176  1  0.58294925  0.08250313  0.94733571  1
  Se  Se177  1  0.58622244  0.40621777  0.43490400  1
  Se  Se178  1  0.58508087  0.41700689  0.94699932  1
  Se  Se179  1  0.58479174  0.74760678  0.43788563  1
  Se  Se180  1  0.58272236  0.75443481  0.94734923  1
  Se  Se181  1  0.92323813  0.09004380  0.44236442  1
  Se  Se182  1  0.91599221  0.08902992  0.95097954  1
  Se  Se183  1  0.91418684  0.41697668  0.44726742  1
  Se  Se184  1  0.92361456  0.40695592  0.94222817  1
  Se  Se185  1  0.91712404  0.76465218  0.45446930  1
  Se  Se186  1  0.91316132  0.75202584  0.95056896  1
  Se  Se187  1  0.24369404  0.23117270  0.29282627  1
  Se  Se188  1  0.25360479  0.25060827  0.80180380  1
  Se  Se189  1  0.25198434  0.58797148  0.30314289  1
  Se  Se190  1  0.25052916  0.58174203  0.80825534  1
  Se  Se191  1  0.25670861  0.92100922  0.29791563  1
  Se  Se192  1  0.26133684  0.92681048  0.80436003  1
  Se  Se193  1  0.57963305  0.23938889  0.30894662  1
  Se  Se194  1  0.58326712  0.25675611  0.80658739  1
  Se  Se195  1  0.56935627  0.56902925  0.30107103  1
  Se  Se196  1  0.57270045  0.57867483  0.81385804  1
  Se  Se197  1  0.57255910  0.90109262  0.30523231  1
  Se  Se198  1  0.56923562  0.90936450  0.81376813  1
  Se  Se199  1  0.91578742  0.25879475  0.29796276  1
  Se  Se200  1  0.91367540  0.24576673  0.80948194  1
  Se  Se201  1  0.91300523  0.57417938  0.31495101  1
  Se  Se202  1  0.91005376  0.57319718  0.80170558  1
  Se  Se203  1  0.92334073  0.92101049  0.30350904  1
  Se  Se204  1  0.91906226  0.92003620  0.80845746  1
  Se  Se205  1  0.08228009  0.08571320  0.29138414  1
  Se  Se206  1  0.08061682  0.08149006  0.80001840  1
  Se  Se207  1  0.08757121  0.42146867  0.30265305  1
  Se  Se208  1  0.08863958  0.41492098  0.81373865  1
  Se  Se209  1  0.09696000  0.76045167  0.31259542  1
  Se  Se210  1  0.08776152  0.74915793  0.82112039  1
  Se  Se211  1  0.41793490  0.07771705  0.30296764  1
  Se  Se212  1  0.41647348  0.08114446  0.80023534  1
  Se  Se213  1  0.40941519  0.40943298  0.29621062  1
  Se  Se214  1  0.41090621  0.41275736  0.81145134  1
  Se  Se215  1  0.41328662  0.74916230  0.30033830  1
  Se  Se216  1  0.40427381  0.74482096  0.80676200  1
  Se  Se217  1  0.75748046  0.08958276  0.30928935  1
  Se  Se218  1  0.75547886  0.09654503  0.81385849  1
  Se  Se219  1  0.74728618  0.41571389  0.31319296  1
  Se  Se220  1  0.75134091  0.41239163  0.79440479  1
  Se  Se221  1  0.76463539  0.75222902  0.31177681  1
  Se  Se222  1  0.75211419  0.75000250  0.80528345  1
  Se  Se223  1  0.24094077  0.10724920  0.20201502  1
  Se  Se224  1  0.25402672  0.08314809  0.69658388  1
  Se  Se225  1  0.25115451  0.41916444  0.19345850  1
  Se  Se226  1  0.25259634  0.40802487  0.70088618  1
  Se  Se227  1  0.25553117  0.74944811  0.19534476  1
  Se  Se228  1  0.23494003  0.74800027  0.69800531  1
  Se  Se229  1  0.57850684  0.08320317  0.18831769  1
  Se  Se230  1  0.58004153  0.09088935  0.69310601  1
  Se  Se231  1  0.57214318  0.42405606  0.18896431  1
  Se  Se232  1  0.58001199  0.42043671  0.70101079  1
  Se  Se233  1  0.57617027  0.75032097  0.18294805  1
  Se  Se234  1  0.56640502  0.75673709  0.69340343  1
  Se  Se235  1  0.91632030  0.07707126  0.20116794  1
  Se  Se236  1  0.91827301  0.08016039  0.69940885  1
  Se  Se237  1  0.91822675  0.41454957  0.20231773  1
  Se  Se238  1  0.92012718  0.42241810  0.67997159  1
  Se  Se239  1  0.91660669  0.75369509  0.19065838  1
  Se  Se240  1  0.90964589  0.75737240  0.69161153  1
  Se  Se241  1  0.07486894  0.26588953  0.19897838  1
  Se  Se242  1  0.09338123  0.23938122  0.68619225  1
  Se  Se243  1  0.08959943  0.58498607  0.18932019  1
  Se  Se244  1  0.08936758  0.56841190  0.69223679  1
  Se  Se245  1  0.08423466  0.91923070  0.19740558  1
  Se  Se246  1  0.08297436  0.91103019  0.70819448  1
  Se  Se247  1  0.42177674  0.25134727  0.19230335  1
  Se  Se248  1  0.41656684  0.25115312  0.69659381  1
  Se  Se249  1  0.41202183  0.59146950  0.19632307  1
  Se  Se250  1  0.40817404  0.58219173  0.70361834  1
  Se  Se251  1  0.41300226  0.92237430  0.19100259  1
  Se  Se252  1  0.41102148  0.91662374  0.69632723  1
  Se  Se253  1  0.75618623  0.23362779  0.19483261  1
  Se  Se254  1  0.75148128  0.25378966  0.69328269  1
  Se  Se255  1  0.75509199  0.57487694  0.19781523  1
  Se  Se256  1  0.75941520  0.58283777  0.68067964  1
  Se  Se257  1  0.75428178  0.90817366  0.18996106  1
  Se  Se258  1  0.75281170  0.91668470  0.69556448  1
