# generated using pymatgen
data_In86Cu29Se144
_symmetry_space_group_name_H-M   'P 1'
_cell_length_a   17.58917912
_cell_length_b   17.58703263
_cell_length_c   23.45071289
_cell_angle_alpha   90.00111745
_cell_angle_beta   90.00927690
_cell_angle_gamma   89.99333019
_symmetry_Int_Tables_number   1
_chemical_formula_structural   In86Cu29Se144
_chemical_formula_sum   'In86 Cu29 Se144'
_cell_volume   7254.27778641
_cell_formula_units_Z   1
loop_
 _symmetry_equiv_pos_site_id
 _symmetry_equiv_pos_as_xyz
  1  'x, y, z'
loop_
 _atom_site_type_symbol
 _atom_site_label
 _atom_site_symmetry_multiplicity
 _atom_site_fract_x
 _atom_site_fract_y
 _atom_site_fract_z
 _atom_site_occupancy
  In  In0  1  -0.02635991  0.18731188  0.14790937  1
  In  In1  1  -0.01133113  0.16980075  0.62127702  1
  In  In2  1  0.00393929  0.50208087  0.12300966  1
  In  In3  1  0.01476946  0.50346915  0.61641893  1
  In  In4  1  0.01203281  0.81861346  0.13672067  1
  In  In5  1  0.00354167  0.82912464  0.63478267  1
  In  In6  1  0.34114203  0.17338305  0.12851608  1
  In  In7  1  0.33270706  0.16819519  0.63064110  1
  In  In8  1  0.32072123  0.51239968  0.13440356  1
  In  In9  1  0.33561314  0.49956144  0.62107647  1
  In  In10  1  0.31665750  0.84098007  0.12531255  1
  In  In11  1  0.33870684  0.82964856  0.62851775  1
  In  In12  1  0.68615877  0.16990300  0.12820735  1
  In  In13  1  0.67551969  0.15871618  0.62832425  1
  In  In14  1  0.66600195  0.48518427  0.12588657  1
  In  In15  1  0.65144047  0.51029089  0.63104106  1
  In  In16  1  0.66669638  0.81852597  0.12420341  1
  In  In17  1  0.66351052  0.83673759  0.62815520  1
  In  In18  1  0.16363379  0.00803871  0.37706955  1
  In  In19  1  0.15496130  -0.00803504  0.86783595  1
  In  In20  1  0.17435484  0.34515968  0.36810209  1
  In  In21  1  0.17878514  0.33900325  0.87543951  1
  In  In22  1  0.15319678  0.64747026  0.37363703  1
  In  In23  1  0.16679265  0.66513167  0.87434812  1
  In  In24  1  0.49305544  -0.01385225  0.38346174  1
  In  In25  1  0.49856396  -0.00283397  0.86083932  1
  In  In26  1  0.50266382  0.34224976  0.37657813  1
  In  In27  1  0.50150852  0.33317677  0.86465218  1
  In  In28  1  0.48566907  0.67909816  0.39155748  1
  In  In29  1  0.49805918  0.66616001  0.86368552  1
  In  In30  1  0.84587172  0.00577880  0.37133583  1
  In  In31  1  0.84323987  0.00741998  0.87264213  1
  In  In32  1  0.83046720  0.32706149  0.36468881  1
  In  In33  1  0.83038845  0.34077790  0.88133023  1
  In  In34  1  0.83874570  0.65541343  0.37433141  1
  In  In35  1  0.82888872  0.65535472  0.86506448  1
  In  In36  1  -0.00769474  0.16475003  0.36477512  1
  In  In37  1  -0.00288469  0.15595800  0.87666643  1
  In  In38  1  0.01098405  0.50605470  0.37025760  1
  In  In39  1  -0.00607437  0.50580808  0.88054197  1
  In  In40  1  -0.00153284  0.82967224  0.36932816  1
  In  In41  1  0.01029634  0.83750425  0.87149709  1
  In  In42  1  0.32550736  0.17152827  0.37692264  1
  In  In43  1  0.33907888  0.17387919  0.86524693  1
  In  In44  1  0.32583088  0.49869758  0.37934805  1
  In  In45  1  0.32893524  0.49650172  0.87013782  1
  In  In46  1  0.35202540  0.82399433  0.38406039  1
  In  In47  1  0.32098028  0.82105603  0.86522499  1
  In  In48  1  0.66990635  0.18214739  0.37479283  1
  In  In49  1  0.67767022  0.17541985  0.86674802  1
  In  In50  1  0.67054066  0.48923120  0.38035890  1
  In  In51  1  0.67124392  0.50235591  0.86556442  1
  In  In52  1  0.65126455  0.82570697  0.38187272  1
  In  In53  1  0.66417190  0.82890218  0.86334345  1
  In  In54  1  0.16008265  -0.01319379  0.12094755  1
  In  In55  1  0.17081330  -0.00561542  0.63646991  1
  In  In56  1  0.15498322  0.34447388  0.13314728  1
  In  In57  1  0.17115418  0.35045253  0.61530594  1
  In  In58  1  0.16623478  0.66702090  0.12343573  1
  In  In59  1  0.17082240  0.66299064  0.62915559  1
  In  In60  1  0.48854726  0.00052739  0.12513962  1
  In  In61  1  0.50606286  -0.00494705  0.62687339  1
  In  In62  1  0.50080704  0.33707769  0.13800854  1
  In  In63  1  0.48991882  0.34743361  0.62846519  1
  In  In64  1  0.49900128  0.65444300  0.13153869  1
  In  In65  1  0.49826627  0.66160867  0.61895041  1
  In  In66  1  0.83646429  0.01436344  0.12236527  1
  In  In67  1  0.82734593  0.00585556  0.62976313  1
  In  In68  1  0.83339309  0.33823122  0.12512130  1
  In  In69  1  0.83859104  0.31620775  0.61856256  1
  In  In70  1  0.85109598  0.66656621  0.12440169  1
  In  In71  1  0.83049776  0.66568907  0.63423995  1
  In  In72  1  0.83233398  0.49751831  0.49845843  1
  In  In73  1  0.16007751  0.16605988  0.00195658  1
  In  In74  1  0.50196124  0.17032094  0.49895207  1
  In  In75  1  0.00468230  0.33316254  0.74106258  1
  In  In76  1  0.17080077  0.82759857  0.51042385  1
  In  In77  1  0.32794324  -0.00181873  0.25495685  1
  In  In78  1  0.66765495  0.00299644  0.25490784  1
  In  In79  1  0.49713982  0.83467958  0.00051884  1
  In  In80  1  0.84533675  0.83796065  -0.00891031  1
  In  In81  1  0.16549874  0.17015235  0.49703732  1
  In  In82  1  0.83000069  0.83264177  0.50073095  1
  In  In83  1  0.50398278  0.17099035  -0.00607654  1
  In  In84  1  0.50061307  0.49908863  -0.00388673  1
  In  In85  1  0.66333740  0.66180972  0.25595927  1
  Cu  Cu86  1  0.83919373  0.49860365  0.24966480  1
  Cu  Cu87  1  -0.00096647  0.33366172  0.00827570  1
  Cu  Cu88  1  0.32728400  0.65879963  0.50379483  1
  Cu  Cu89  1  0.67347287  0.00390432  0.50571284  1
  Cu  Cu90  1  0.49269904  0.50132843  0.25821187  1
  Cu  Cu91  1  0.49752370  0.83078601  0.74300278  1
  Cu  Cu92  1  0.00767590  0.66323768  0.00093048  1
  Cu  Cu93  1  0.66852255  0.33231379  0.50117048  1
  Cu  Cu94  1  0.32319199  -0.00268068  -0.00892255  1
  Cu  Cu95  1  -0.00213114  0.00225782  0.49905590  1
  Cu  Cu96  1  0.50219071  0.17213138  0.25359108  1
  Cu  Cu97  1  0.32681155  0.34634887  0.00366410  1
  Cu  Cu98  1  0.16920497  0.16825801  0.75314132  1
  Cu  Cu99  1  0.16680517  0.83202036  0.75124105  1
  Cu  Cu100  1  0.83272611  0.83748927  0.25002174  1
  Cu  Cu101  1  0.67676075  0.66021728  -0.00937591  1
  Cu  Cu102  1  0.00000408  0.00262291  0.00192659  1
  Cu  Cu103  1  0.83521181  0.83249094  0.75164195  1
  Cu  Cu104  1  0.66915360  0.00422892  -0.00124653  1
  Cu  Cu105  1  0.17065160  0.50363391  0.74644849  1
  Cu  Cu106  1  0.49743783  0.50047923  0.74471401  1
  Cu  Cu107  1  0.32469748  0.67226547  0.00093714  1
  Cu  Cu108  1  0.16505321  0.16545390  0.25441183  1
  Cu  Cu109  1  0.16997246  0.82409288  0.25310146  1
  Cu  Cu110  1  0.83120966  0.49146619  0.74931304  1
  Cu  Cu111  1  0.67652897  0.32871666  0.00105438  1
  Cu  Cu112  1  0.16834783  0.50213151  0.24923113  1
  Cu  Cu113  1  0.50399550  0.16585657  0.74297227  1
  Cu  Cu114  1  0.83611883  0.16402959  0.74847484  1
  Se  Se115  1  0.07091066  0.08527152  0.06740331  1
  Se  Se116  1  0.08335333  0.07439655  0.56103399  1
  Se  Se117  1  0.08748122  0.41885476  0.05275837  1
  Se  Se118  1  0.06706064  0.40121933  0.54926323  1
  Se  Se119  1  0.08423513  0.75272782  0.05406327  1
  Se  Se120  1  0.07154900  0.73970040  0.56007152  1
  Se  Se121  1  0.40434780  0.07848866  0.04987531  1
  Se  Se122  1  0.41503775  0.08114698  0.56042194  1
  Se  Se123  1  0.41382313  0.41728788  0.06451414  1
  Se  Se124  1  0.42120455  0.42206726  0.55077608  1
  Se  Se125  1  0.41171197  0.74306700  0.06246240  1
  Se  Se126  1  0.40970133  0.74668062  0.55393590  1
  Se  Se127  1  0.75194471  0.08799638  0.05030872  1
  Se  Se128  1  0.75957783  0.08840253  0.55232203  1
  Se  Se129  1  0.75301431  0.42030510  0.05181722  1
  Se  Se130  1  0.74442610  0.41339864  0.56466603  1
  Se  Se131  1  0.75294323  0.74410422  0.05076982  1
  Se  Se132  1  0.74330056  0.74202042  0.56038904  1
  Se  Se133  1  0.25314644  0.25684260  0.06089403  1
  Se  Se134  1  0.26038963  0.25633369  0.55548480  1
  Se  Se135  1  0.24840121  0.58233813  0.05376196  1
  Se  Se136  1  0.24124993  0.57786405  0.55562739  1
  Se  Se137  1  0.24400377  0.91484014  0.04696946  1
  Se  Se138  1  0.25886037  0.92648162  0.56057397  1
  Se  Se139  1  0.58684404  0.25782806  0.06135348  1
  Se  Se140  1  0.58961852  0.25437035  0.56435117  1
  Se  Se141  1  0.59389021  0.58983485  0.05632096  1
  Se  Se142  1  0.57771013  0.57511721  0.55077759  1
  Se  Se143  1  0.59206912  0.92528427  0.06053951  1
  Se  Se144  1  0.58832604  0.91894542  0.55362186  1
  Se  Se145  1  0.91484831  0.24828707  0.05792815  1
  Se  Se146  1  0.92753853  0.25428279  0.54518742  1
  Se  Se147  1  0.91910089  0.58201112  0.05097099  1
  Se  Se148  1  0.91717307  0.59142292  0.55895469  1
  Se  Se149  1  0.92634585  0.91659869  0.06414176  1
  Se  Se150  1  0.92307395  0.91961266  0.56168618  1
  Se  Se151  1  0.08160332  0.25248067  0.43001013  1
  Se  Se152  1  0.07535522  0.25987090  0.93914247  1
  Se  Se153  1  0.07929551  0.57781085  0.45194060  1
  Se  Se154  1  0.08857810  0.57990171  0.94515864  1
  Se  Se155  1  0.07874663  0.91722355  0.44452619  1
  Se  Se156  1  0.08211677  0.91974526  0.94771181  1
  Se  Se157  1  0.40798309  0.26001273  0.44366763  1
  Se  Se158  1  0.40727963  0.26609235  0.94338880  1
  Se  Se159  1  0.41280589  0.57739590  0.45004787  1
  Se  Se160  1  0.41033603  0.59513540  0.94172071  1
  Se  Se161  1  0.41568234  0.91328537  0.45704126  1
  Se  Se162  1  0.41009657  0.92005751  0.93509155  1
  Se  Se163  1  0.75468738  0.25520580  0.44635964  1
  Se  Se164  1  0.75534063  0.24394994  0.94583762  1
  Se  Se165  1  0.73991999  0.59456712  0.44453175  1
  Se  Se166  1  0.75599924  0.57321073  0.94037420  1
  Se  Se167  1  0.74546009  0.92556474  0.43662422  1
  Se  Se168  1  0.74137421  0.91941926  0.93716571  1
  Se  Se169  1  0.26210939  0.07190125  0.44708964  1
  Se  Se170  1  0.25076601  0.08610654  0.93380750  1
  Se  Se171  1  0.23631175  0.42395707  0.44807443  1
  Se  Se172  1  0.24679031  0.42789621  0.94802812  1
  Se  Se173  1  0.24907245  0.73936478  0.44102455  1
  Se  Se174  1  0.24415356  0.75444240  0.94507442  1
  Se  Se175  1  0.59330472  0.07786185  0.43851537  1
  Se  Se176  1  0.58756625  0.07582854  0.93475565  1
  Se  Se177  1  0.58344397  0.41657333  0.45177110  1
  Se  Se178  1  0.59189227  0.40576944  0.94036412  1
  Se  Se179  1  0.58174114  0.74941268  0.45742595  1
  Se  Se180  1  0.58819147  0.74218520  0.94046655  1
  Se  Se181  1  0.91961026  0.08731285  0.44485633  1
  Se  Se182  1  0.91395285  0.08505178  0.95139970  1
  Se  Se183  1  0.91727978  0.41517480  0.43132206  1
  Se  Se184  1  0.91925365  0.41581935  0.94908946  1
  Se  Se185  1  0.92298115  0.74275529  0.44346245  1
  Se  Se186  1  0.92632440  0.73747441  0.93545192  1
  Se  Se187  1  0.25139328  0.24963945  0.30281342  1
  Se  Se188  1  0.25117014  0.25741944  0.80130182  1
  Se  Se189  1  0.25070941  0.58375430  0.30534737  1
  Se  Se190  1  0.25235613  0.58642683  0.80331113  1
  Se  Se191  1  0.24464748  0.90470066  0.31719754  1
  Se  Se192  1  0.25022056  0.92031503  0.80203651  1
  Se  Se193  1  0.58320122  0.25725659  0.30618069  1
  Se  Se194  1  0.58535809  0.24852643  0.79992134  1
  Se  Se195  1  0.57477399  0.57834216  0.31962927  1
  Se  Se196  1  0.58279517  0.58186498  0.79979784  1
  Se  Se197  1  0.57374334  0.90885927  0.30591350  1
  Se  Se198  1  0.58369611  0.91356044  0.79608790  1
  Se  Se199  1  0.91693546  0.25108094  0.29549598  1
  Se  Se200  1  0.91565986  0.24822940  0.80792123  1
  Se  Se201  1  0.92111033  0.58475224  0.30080889  1
  Se  Se202  1  0.91868768  0.57462743  0.80007277  1
  Se  Se203  1  0.91950846  0.91756872  0.30225042  1
  Se  Se204  1  0.91795265  0.91551885  0.80663546  1
  Se  Se205  1  0.08242652  0.07761338  0.30250811  1
  Se  Se206  1  0.08063143  0.08661685  0.80230262  1
  Se  Se207  1  0.08244186  0.41714718  0.29869144  1
  Se  Se208  1  0.08855160  0.42256325  0.80689917  1
  Se  Se209  1  0.08298272  0.74385625  0.30565616  1
  Se  Se210  1  0.08366317  0.74664495  0.80362244  1
  Se  Se211  1  0.42548342  0.08761648  0.31279799  1
  Se  Se212  1  0.41675301  0.08641494  0.79805572  1
  Se  Se213  1  0.41001196  0.41548658  0.30934409  1
  Se  Se214  1  0.41544851  0.41809206  0.80174656  1
  Se  Se215  1  0.41953748  0.74589508  0.30741237  1
  Se  Se216  1  0.41379808  0.74861902  0.79815799  1
  Se  Se217  1  0.75888640  0.09697097  0.30629385  1
  Se  Se218  1  0.75293491  0.07996203  0.80294736  1
  Se  Se219  1  0.74958132  0.42169395  0.30231304  1
  Se  Se220  1  0.74951874  0.40724213  0.80283093  1
  Se  Se221  1  0.75447985  0.75889988  0.31264692  1
  Se  Se222  1  0.74955594  0.74481015  0.79960341  1
  Se  Se223  1  0.24320727  0.08763357  0.18866038  1
  Se  Se224  1  0.25267605  0.08393282  0.69985367  1
  Se  Se225  1  0.25244575  0.41359096  0.19899776  1
  Se  Se226  1  0.25124361  0.41813860  0.69317115  1
  Se  Se227  1  0.25220209  0.74717976  0.19444141  1
  Se  Se228  1  0.24990898  0.75103761  0.69566006  1
  Se  Se229  1  0.57528021  0.09061016  0.18945713  1
  Se  Se230  1  0.58876419  0.07879704  0.69531519  1
  Se  Se231  1  0.58190293  0.42379094  0.20399939  1
  Se  Se232  1  0.58463338  0.41303904  0.69893340  1
  Se  Se233  1  0.57318731  0.75604871  0.19662854  1
  Se  Se234  1  0.57981589  0.74629048  0.68998908  1
  Se  Se235  1  0.91898988  0.07140960  0.20082029  1
  Se  Se236  1  0.92115028  0.08284311  0.69518154  1
  Se  Se237  1  0.92154252  0.41915013  0.19219354  1
  Se  Se238  1  0.91195151  0.42191754  0.68316664  1
  Se  Se239  1  0.91568149  0.74754657  0.20229680  1
  Se  Se240  1  0.91772202  0.74665656  0.70059202  1
  Se  Se241  1  0.08436186  0.25219380  0.20176398  1
  Se  Se242  1  0.09636357  0.24283408  0.68315057  1
  Se  Se243  1  0.08472184  0.58503057  0.19359787  1
  Se  Se244  1  0.08106383  0.58271719  0.69596563  1
  Se  Se245  1  0.08924784  0.91322809  0.20067933  1
  Se  Se246  1  0.08023104  0.91783486  0.70224227  1
  Se  Se247  1  0.41381967  0.25317434  0.20265423  1
  Se  Se248  1  0.41820586  0.25236964  0.69565524  1
  Se  Se249  1  0.41286686  0.58528425  0.20301517  1
  Se  Se250  1  0.41425799  0.58440759  0.69195390  1
  Se  Se251  1  0.41982761  0.90761309  0.19489750  1
  Se  Se252  1  0.41510883  0.92074954  0.69561849  1
  Se  Se253  1  0.74429577  0.26546211  0.19601580  1
  Se  Se254  1  0.75514659  0.24896983  0.69496355  1
  Se  Se255  1  0.75573580  0.57998764  0.18953181  1
  Se  Se256  1  0.74725162  0.57926034  0.69919418  1
  Se  Se257  1  0.75147209  0.91052807  0.18707373  1
  Se  Se258  1  0.75213335  0.91474378  0.69596311  1
