# generated using pymatgen
data_In86Cu29Se144
_symmetry_space_group_name_H-M   'P 1'
_cell_length_a   17.56411498
_cell_length_b   17.56498253
_cell_length_c   23.42363348
_cell_angle_alpha   89.98500197
_cell_angle_beta   90.01691304
_cell_angle_gamma   90.01479029
_symmetry_Int_Tables_number   1
_chemical_formula_structural   In86Cu29Se144
_chemical_formula_sum   'In86 Cu29 Se144'
_cell_volume   7226.50336382
_cell_formula_units_Z   1
loop_
 _symmetry_equiv_pos_site_id
 _symmetry_equiv_pos_as_xyz
  1  'x, y, z'
loop_
 _atom_site_type_symbol
 _atom_site_label
 _atom_site_symmetry_multiplicity
 _atom_site_fract_x
 _atom_site_fract_y
 _atom_site_fract_z
 _atom_site_occupancy
  In  In0  1  -0.00448201  0.16812861  0.12386057  1
  In  In1  1  0.00111364  0.18147984  0.62496765  1
  In  In2  1  -0.01216036  0.48707637  0.11196603  1
  In  In3  1  -0.01779062  0.50336335  0.62301256  1
  In  In4  1  -0.00446428  0.84929618  0.12689000  1
  In  In5  1  0.00624230  0.81347222  0.62259565  1
  In  In6  1  0.34095269  0.18377319  0.12403124  1
  In  In7  1  0.35102171  0.16410206  0.62291094  1
  In  In8  1  0.32308505  0.50050853  0.11937152  1
  In  In9  1  0.35643598  0.48182997  0.64921222  1
  In  In10  1  0.33852898  0.82449447  0.11373962  1
  In  In11  1  0.32637255  0.82619744  0.62570519  1
  In  In12  1  0.67523574  0.15898458  0.12945908  1
  In  In13  1  0.66887899  0.16815747  0.62621282  1
  In  In14  1  0.66914357  0.48698926  0.12436900  1
  In  In15  1  0.66656548  0.49234113  0.62839176  1
  In  In16  1  0.67211313  0.83749018  0.11743490  1
  In  In17  1  0.66825966  0.83800547  0.64088946  1
  In  In18  1  0.15328430  0.00204272  0.37245719  1
  In  In19  1  0.18536087  0.00909209  0.88638648  1
  In  In20  1  0.16313414  0.33663244  0.36554911  1
  In  In21  1  0.16813759  0.33434161  0.87763037  1
  In  In22  1  0.17930201  0.66756729  0.38019703  1
  In  In23  1  0.15705626  0.65164956  0.87971575  1
  In  In24  1  0.52375956  0.00003829  0.36784501  1
  In  In25  1  0.50039489  -0.01887742  0.87969443  1
  In  In26  1  0.50110258  0.33361238  0.38013376  1
  In  In27  1  0.50372849  0.34632853  0.85823422  1
  In  In28  1  0.49001816  0.65981646  0.37955353  1
  In  In29  1  0.50992806  0.66792167  0.85935628  1
  In  In30  1  0.83719335  0.01414578  0.36961524  1
  In  In31  1  0.82642008  0.00416951  0.87765659  1
  In  In32  1  0.82866706  0.33295352  0.37426454  1
  In  In33  1  0.83591381  0.33221536  0.87533109  1
  In  In34  1  0.82399233  0.66288265  0.37923928  1
  In  In35  1  0.82469589  0.67155136  0.88669389  1
  In  In36  1  -0.01305222  0.16011145  0.36833976  1
  In  In37  1  -0.00674728  0.17711376  0.88302175  1
  In  In38  1  -0.00084193  0.48507808  0.37202284  1
  In  In39  1  0.00920252  0.49522933  0.88561642  1
  In  In40  1  -0.00450254  0.84804927  0.37321893  1
  In  In41  1  -0.01744406  0.82296368  0.88160801  1
  In  In42  1  0.33215826  0.18234125  0.37650394  1
  In  In43  1  0.32431193  0.16745456  0.88141232  1
  In  In44  1  0.34212810  0.50147929  0.37944728  1
  In  In45  1  0.32831774  0.49376381  0.86737284  1
  In  In46  1  0.33373610  0.81798016  0.37533011  1
  In  In47  1  0.35052480  0.83378754  0.88218318  1
  In  In48  1  0.66710157  0.17037782  0.37600037  1
  In  In49  1  0.67446181  0.17876068  0.86840580  1
  In  In50  1  0.67964775  0.48627443  0.38758197  1
  In  In51  1  0.67040298  0.50892470  0.86109149  1
  In  In52  1  0.65783893  0.85167928  0.37062742  1
  In  In53  1  0.67059116  0.83023184  0.86901151  1
  In  In54  1  0.14598371  -0.00125763  0.12694141  1
  In  In55  1  0.17846506  -0.00882498  0.62436881  1
  In  In56  1  0.16730137  0.33013570  0.12146470  1
  In  In57  1  0.16267895  0.33969109  0.63359709  1
  In  In58  1  0.17787144  0.65612896  0.11325744  1
  In  In59  1  0.16970203  0.67395792  0.62491025  1
  In  In60  1  0.51412488  -0.00395677  0.12716527  1
  In  In61  1  0.50779994  0.01284452  0.62149005  1
  In  In62  1  0.50631360  0.32839664  0.13575779  1
  In  In63  1  0.50728749  0.33446263  0.62881360  1
  In  In64  1  0.48725384  0.67443734  0.11613745  1
  In  In65  1  0.51802072  0.64445554  0.64735802  1
  In  In66  1  0.83080061  0.00571929  0.12180005  1
  In  In67  1  0.81810425  0.00046237  0.62741478  1
  In  In68  1  0.83496742  0.33150292  0.12316142  1
  In  In69  1  0.83164450  0.33219707  0.62546573  1
  In  In70  1  0.83756988  0.66649215  0.10527621  1
  In  In71  1  0.83498452  0.65238494  0.62788704  1
  In  In72  1  0.83843797  0.82737546  0.50576763  1
  In  In73  1  0.00074882  0.66807101  0.23993871  1
  In  In74  1  0.16520235  0.16633380  0.49686512  1
  In  In75  1  0.50233273  0.50399679  -0.01013758  1
  In  In76  1  0.15864638  0.83717434  0.00098908  1
  In  In77  1  0.49931513  0.82951674  0.49745016  1
  In  In78  1  0.33655270  0.66217119  0.24817941  1
  In  In79  1  0.33349069  0.00273835  0.23996082  1
  In  In80  1  0.66534128  0.66230953  0.24866511  1
  In  In81  1  0.16462222  0.50839718  0.50232121  1
  In  In82  1  0.49918030  0.16469734  0.00112638  1
  In  In83  1  0.34119897  0.00508654  0.75081952  1
  In  In84  1  -0.00266481  0.00359552  0.76297651  1
  In  In85  1  -0.00804547  0.66163009  0.75041639  1
  Cu  Cu86  1  0.15994343  0.17505758  0.24812470  1
  Cu  Cu87  1  0.82929536  0.17080374  0.24755554  1
  Cu  Cu88  1  0.66583685  0.33180585  0.50411548  1
  Cu  Cu89  1  0.16404876  0.83558129  0.24807330  1
  Cu  Cu90  1  0.16468635  0.48881160  0.24264916  1
  Cu  Cu91  1  -0.00789603  0.00452955  0.00092998  1
  Cu  Cu92  1  0.50260896  0.49084510  0.25534498  1
  Cu  Cu93  1  0.83387829  0.49449650  0.24746217  1
  Cu  Cu94  1  0.67922876  0.33256556  -0.00159447  1
  Cu  Cu95  1  0.16420165  0.83632917  0.75272366  1
  Cu  Cu96  1  0.83429771  0.49245965  0.75168685  1
  Cu  Cu97  1  0.16238873  0.49573713  0.75584169  1
  Cu  Cu98  1  0.66761973  -0.00385487  -0.00161487  1
  Cu  Cu99  1  0.67105783  0.00745127  0.49918030  1
  Cu  Cu100  1  -0.01373196  0.33292620  0.49771485  1
  Cu  Cu101  1  0.50644198  0.16840557  0.74786440  1
  Cu  Cu102  1  0.49903913  0.17128308  0.25370100  1
  Cu  Cu103  1  0.33714150  -0.00607966  0.50227226  1
  Cu  Cu104  1  0.83321445  0.16949131  0.75155195  1
  Cu  Cu105  1  0.82509043  0.84712954  0.24667946  1
  Cu  Cu106  1  0.50376775  0.83462107  0.75309402  1
  Cu  Cu107  1  0.33812183  0.33439643  0.50521615  1
  Cu  Cu108  1  0.00039583  -0.00289892  0.49579270  1
  Cu  Cu109  1  0.66019595  0.66759439  -0.01043099  1
  Cu  Cu110  1  0.00356214  0.33041906  0.00061060  1
  Cu  Cu111  1  0.16873919  0.17774202  0.75483107  1
  Cu  Cu112  1  0.33565271  0.33971056  -0.00259558  1
  Cu  Cu113  1  0.33782470  0.66028516  0.50905827  1
  Cu  Cu114  1  0.66326359  0.65831864  0.50588005  1
  Se  Se115  1  0.07914087  0.08505644  0.05313042  1
  Se  Se116  1  0.07995794  0.07508823  0.56121871  1
  Se  Se117  1  0.08947396  0.41589433  0.05110804  1
  Se  Se118  1  0.07419985  0.40902660  0.55620664  1
  Se  Se119  1  0.07493818  0.74763227  0.06584202  1
  Se  Se120  1  0.08963352  0.74523968  0.54976847  1
  Se  Se121  1  0.41340804  0.07671950  0.06511065  1
  Se  Se122  1  0.42151395  0.08236648  0.54767828  1
  Se  Se123  1  0.42376580  0.41058462  0.05884734  1
  Se  Se124  1  0.41813440  0.41715546  0.56102151  1
  Se  Se125  1  0.41138816  0.74557975  0.04003148  1
  Se  Se126  1  0.42339028  0.74040580  0.56606983  1
  Se  Se127  1  0.74703354  0.08558462  0.05016019  1
  Se  Se128  1  0.75382108  0.08865028  0.55382525  1
  Se  Se129  1  0.75724448  0.42024402  0.05203162  1
  Se  Se130  1  0.75086415  0.41673888  0.55590231  1
  Se  Se131  1  0.74397937  0.74912748  0.04631286  1
  Se  Se132  1  0.73807108  0.74588694  0.56390001  1
  Se  Se133  1  0.25550680  0.25271610  0.05042813  1
  Se  Se134  1  0.25171122  0.25481506  0.56215762  1
  Se  Se135  1  0.26642731  0.58826157  0.04333731  1
  Se  Se136  1  0.26185831  0.57629478  0.56946901  1
  Se  Se137  1  0.24850025  0.92516084  0.06303517  1
  Se  Se138  1  0.25227446  0.90967900  0.55126295  1
  Se  Se139  1  0.59245292  0.25687960  0.05798017  1
  Se  Se140  1  0.58218346  0.24779179  0.55734924  1
  Se  Se141  1  0.58997753  0.58844535  0.05939948  1
  Se  Se142  1  0.57990684  0.57802989  0.56041442  1
  Se  Se143  1  0.58035807  0.91433925  0.04926266  1
  Se  Se144  1  0.59446972  0.91827707  0.55654089  1
  Se  Se145  1  0.91488639  0.24881578  0.05201938  1
  Se  Se146  1  0.91049841  0.24615030  0.55314364  1
  Se  Se147  1  0.92383725  0.58329309  0.04357186  1
  Se  Se148  1  0.92480977  0.59813229  0.55195890  1
  Se  Se149  1  0.91079517  0.91744124  0.05253872  1
  Se  Se150  1  0.92562998  0.92276160  0.56500459  1
  Se  Se151  1  0.07435265  0.25710422  0.43849574  1
  Se  Se152  1  0.08998274  0.24783621  0.94826187  1
  Se  Se153  1  0.07474392  0.58827892  0.43528665  1
  Se  Se154  1  0.07314492  0.59040360  0.95608089  1
  Se  Se155  1  0.08640931  0.91387843  0.44642904  1
  Se  Se156  1  0.07145692  0.92777726  0.93630627  1
  Se  Se157  1  0.41795507  0.24932587  0.45058736  1
  Se  Se158  1  0.42180822  0.26415205  0.93744215  1
  Se  Se159  1  0.42004126  0.57732937  0.45462327  1
  Se  Se160  1  0.41368854  0.59055143  0.92970721  1
  Se  Se161  1  0.41511964  0.92202328  0.43379048  1
  Se  Se162  1  0.39867958  0.93701710  0.95061591  1
  Se  Se163  1  0.74939552  0.25108751  0.44663002  1
  Se  Se164  1  0.75719825  0.24420759  0.94588286  1
  Se  Se165  1  0.75348238  0.58084715  0.45362781  1
  Se  Se166  1  0.74193962  0.57432487  0.94502552  1
  Se  Se167  1  0.75113515  0.92097405  0.44291487  1
  Se  Se168  1  0.74900026  0.91202572  0.94318820  1
  Se  Se169  1  0.25766124  0.07395259  0.43878153  1
  Se  Se170  1  0.25593434  0.09100287  0.95924490  1
  Se  Se171  1  0.25158155  0.40863002  0.44412590  1
  Se  Se172  1  0.25024396  0.42192924  0.94545687  1
  Se  Se173  1  0.25766181  0.74598327  0.45355866  1
  Se  Se174  1  0.24518184  0.75104947  0.93663274  1
  Se  Se175  1  0.58340045  0.08493203  0.44547559  1
  Se  Se176  1  0.59020692  0.08041167  0.93756287  1
  Se  Se177  1  0.58101226  0.41688306  0.45149406  1
  Se  Se178  1  0.59481520  0.40832942  0.93758401  1
  Se  Se179  1  0.59575327  0.74144712  0.43818822  1
  Se  Se180  1  0.57865468  0.75083516  0.93619936  1
  Se  Se181  1  0.91626645  0.08412816  0.44766905  1
  Se  Se182  1  0.91005527  0.08720262  0.94556697  1
  Se  Se183  1  0.90889492  0.42088886  0.44447768  1
  Se  Se184  1  0.91751924  0.41190469  0.94734795  1
  Se  Se185  1  0.92493675  0.74474289  0.43805401  1
  Se  Se186  1  0.91536672  0.74271241  0.95655343  1
  Se  Se187  1  0.24897290  0.25148221  0.30150242  1
  Se  Se188  1  0.25706896  0.25486810  0.80810017  1
  Se  Se189  1  0.24120557  0.57011748  0.30573782  1
  Se  Se190  1  0.24229647  0.58528109  0.80513343  1
  Se  Se191  1  0.24910816  0.91138646  0.30860858  1
  Se  Se192  1  0.24805819  0.91527083  0.81022704  1
  Se  Se193  1  0.58276526  0.25392502  0.30823365  1
  Se  Se194  1  0.58895392  0.25538258  0.79843628  1
  Se  Se195  1  0.58055199  0.57399654  0.31485352  1
  Se  Se196  1  0.56546593  0.56179270  0.79426917  1
  Se  Se197  1  0.58057265  0.91348489  0.29079715  1
  Se  Se198  1  0.58683468  0.92092217  0.80312018  1
  Se  Se199  1  0.91274044  0.25324722  0.30321046  1
  Se  Se200  1  0.91998183  0.25037388  0.80404239  1
  Se  Se201  1  0.91064644  0.58184581  0.30543753  1
  Se  Se202  1  0.91000097  0.57320386  0.81581039  1
  Se  Se203  1  0.91375486  0.92328767  0.30154145  1
  Se  Se204  1  0.90394376  0.90528962  0.80844262  1
  Se  Se205  1  0.08088798  0.08683413  0.30119414  1
  Se  Se206  1  0.09685543  0.09171511  0.81549427  1
  Se  Se207  1  0.07575624  0.41183014  0.29552038  1
  Se  Se208  1  0.07879784  0.41359112  0.80914114  1
  Se  Se209  1  0.08927849  0.75104241  0.30951675  1
  Se  Se210  1  0.08230726  0.75564286  0.81066991  1
  Se  Se211  1  0.41756599  0.08703325  0.31076312  1
  Se  Se212  1  0.42811129  0.09261382  0.81436671  1
  Se  Se213  1  0.41390293  0.41400044  0.30924316  1
  Se  Se214  1  0.41143802  0.42038359  0.79448488  1
  Se  Se215  1  0.43119238  0.75550393  0.30293262  1
  Se  Se216  1  0.41353106  0.75500765  0.80208101  1
  Se  Se217  1  0.74533940  0.08705226  0.30258524  1
  Se  Se218  1  0.75037985  0.08442440  0.80313139  1
  Se  Se219  1  0.74738213  0.41840513  0.30367238  1
  Se  Se220  1  0.74974197  0.40911759  0.80394344  1
  Se  Se221  1  0.75402378  0.76019151  0.30855656  1
  Se  Se222  1  0.74579136  0.73308522  0.80673732  1
  Se  Se223  1  0.23965581  0.09535839  0.18613215  1
  Se  Se224  1  0.24416346  0.09453675  0.69215245  1
  Se  Se225  1  0.25489251  0.41187423  0.19112850  1
  Se  Se226  1  0.24856301  0.41196291  0.70492791  1
  Se  Se227  1  0.24267423  0.75422579  0.18946906  1
  Se  Se228  1  0.24641043  0.75149122  0.70065551  1
  Se  Se229  1  0.58004652  0.08887005  0.19743124  1
  Se  Se230  1  0.58886002  0.08125033  0.69714954  1
  Se  Se231  1  0.59085958  0.41436932  0.20088290  1
  Se  Se232  1  0.57273650  0.42808505  0.70006440  1
  Se  Se233  1  0.57946218  0.75036011  0.18575115  1
  Se  Se234  1  0.59022427  0.74721929  0.70592590  1
  Se  Se235  1  0.91249969  0.08565820  0.19389451  1
  Se  Se236  1  0.91608540  0.08908364  0.69222298  1
  Se  Se237  1  0.91916792  0.41480478  0.19323504  1
  Se  Se238  1  0.91843781  0.41306418  0.69560239  1
  Se  Se239  1  0.89995917  0.75777987  0.18871738  1
  Se  Se240  1  0.90419303  0.75801940  0.69349060  1
  Se  Se241  1  0.07803031  0.25518143  0.19125800  1
  Se  Se242  1  0.08025516  0.25380121  0.70059973  1
  Se  Se243  1  0.08997811  0.57436504  0.18336401  1
  Se  Se244  1  0.08721585  0.57491814  0.68992732  1
  Se  Se245  1  0.07466276  0.92050950  0.20434287  1
  Se  Se246  1  0.08313813  0.91412018  0.69305063  1
  Se  Se247  1  0.41374103  0.25545626  0.20358795  1
  Se  Se248  1  0.41883942  0.24889162  0.69607813  1
  Se  Se249  1  0.42829115  0.57080810  0.18967516  1
  Se  Se250  1  0.38942788  0.61173038  0.69365582  1
  Se  Se251  1  0.42112900  0.90363502  0.18871312  1
  Se  Se252  1  0.42616285  0.91216774  0.68691939  1
  Se  Se253  1  0.74723408  0.25541016  0.19406198  1
  Se  Se254  1  0.74917108  0.25201621  0.69646845  1
  Se  Se255  1  0.76209223  0.58173474  0.18645025  1
  Se  Se256  1  0.75126688  0.57689485  0.69802753  1
  Se  Se257  1  0.74190198  0.92514565  0.19038321  1
  Se  Se258  1  0.75251457  0.92186247  0.70446029  1
