# generated using pymatgen
data_In86Cu29Se144
_symmetry_space_group_name_H-M   'P 1'
_cell_length_a   17.59192759
_cell_length_b   17.58125010
_cell_length_c   23.44524213
_cell_angle_alpha   90.01954103
_cell_angle_beta   89.99781010
_cell_angle_gamma   89.98229279
_symmetry_Int_Tables_number   1
_chemical_formula_structural   In86Cu29Se144
_chemical_formula_sum   'In86 Cu29 Se144'
_cell_volume   7251.33311747
_cell_formula_units_Z   1
loop_
 _symmetry_equiv_pos_site_id
 _symmetry_equiv_pos_as_xyz
  1  'x, y, z'
loop_
 _atom_site_type_symbol
 _atom_site_label
 _atom_site_symmetry_multiplicity
 _atom_site_fract_x
 _atom_site_fract_y
 _atom_site_fract_z
 _atom_site_occupancy
  In  In0  1  -0.00084249  0.18896779  0.12212636  1
  In  In1  1  0.01604471  0.18283224  0.61257139  1
  In  In2  1  0.03205691  0.52436639  0.08970757  1
  In  In3  1  -0.00394059  0.49628678  0.62286442  1
  In  In4  1  -0.00280366  0.81951891  0.11411274  1
  In  In5  1  0.00605183  0.81977647  0.62648360  1
  In  In6  1  0.32354362  0.17445815  0.14502054  1
  In  In7  1  0.31736896  0.17937119  0.63080915  1
  In  In8  1  0.33212718  0.50167016  0.12517060  1
  In  In9  1  0.32136325  0.49059584  0.61386501  1
  In  In10  1  0.32926044  0.83156460  0.12411303  1
  In  In11  1  0.33513495  0.84462396  0.62850827  1
  In  In12  1  0.67038365  0.15802638  0.12527006  1
  In  In13  1  0.67450223  0.15835575  0.62167160  1
  In  In14  1  0.67525330  0.52055702  0.10675044  1
  In  In15  1  0.67416389  0.50398528  0.62623289  1
  In  In16  1  0.67785480  0.83632538  0.11228593  1
  In  In17  1  0.65176187  0.82990920  0.63351137  1
  In  In18  1  0.17223857  -0.00509097  0.37716398  1
  In  In19  1  0.16828161  -0.01095978  0.87594181  1
  In  In20  1  0.17371071  0.33277980  0.37477637  1
  In  In21  1  0.16674613  0.34227343  0.86639425  1
  In  In22  1  0.16933172  0.66435837  0.37336796  1
  In  In23  1  0.17033184  0.65659330  0.88562113  1
  In  In24  1  0.49659278  -0.00683877  0.36653363  1
  In  In25  1  0.48373857  -0.00473464  0.87406429  1
  In  In26  1  0.49506024  0.35141897  0.37987163  1
  In  In27  1  0.49135420  0.34445548  0.87341316  1
  In  In28  1  0.48770773  0.66556568  0.37264201  1
  In  In29  1  0.50432743  0.66235603  0.88473941  1
  In  In30  1  0.83820146  0.00826183  0.36813373  1
  In  In31  1  0.83264857  -0.00876502  0.88180370  1
  In  In32  1  0.83642241  0.33623662  0.38095247  1
  In  In33  1  0.84518786  0.33374494  0.88555413  1
  In  In34  1  0.83293715  0.65165878  0.37267443  1
  In  In35  1  0.82948763  0.66579096  0.88988533  1
  In  In36  1  0.00005436  0.17036416  0.38089401  1
  In  In37  1  -0.01118011  0.16832434  0.87548100  1
  In  In38  1  0.00045387  0.50301638  0.37592108  1
  In  In39  1  0.01430183  0.48783242  0.89992724  1
  In  In40  1  0.01597373  0.83071176  0.37151013  1
  In  In41  1  0.00855784  0.81430764  0.89887678  1
  In  In42  1  0.31875733  0.15935792  0.35969953  1
  In  In43  1  0.32592294  0.16882915  0.86628749  1
  In  In44  1  0.33153167  0.50239736  0.37335243  1
  In  In45  1  0.32854810  0.49751701  0.87629263  1
  In  In46  1  0.32459468  0.81841699  0.36384153  1
  In  In47  1  0.33239209  0.83538079  0.88281855  1
  In  In48  1  0.68133765  0.16674730  0.37040159  1
  In  In49  1  0.67815904  0.16838211  0.87283563  1
  In  In50  1  0.67291671  0.49833227  0.38192379  1
  In  In51  1  0.65540311  0.51200329  0.88855409  1
  In  In52  1  0.65468052  0.83223447  0.36799976  1
  In  In53  1  0.66933917  0.81549152  0.89083631  1
  In  In54  1  0.18108689  -0.00095075  0.13132914  1
  In  In55  1  0.17036493  0.00942680  0.61697088  1
  In  In56  1  0.16201524  0.35464285  0.13333504  1
  In  In57  1  0.16703840  0.33919676  0.62338999  1
  In  In58  1  0.16737026  0.66496931  0.12337399  1
  In  In59  1  0.16233937  0.66451185  0.61442769  1
  In  In60  1  0.50385098  -0.00431506  0.13080544  1
  In  In61  1  0.48471552  -0.01240243  0.62566913  1
  In  In62  1  0.48871330  0.34377663  0.12708816  1
  In  In63  1  0.48002109  0.33568940  0.62618646  1
  In  In64  1  0.49115391  0.65707832  0.11416759  1
  In  In65  1  0.51386928  0.66991516  0.63148473  1
  In  In66  1  0.82810272  -0.00308218  0.11950082  1
  In  In67  1  0.82605733  0.00882197  0.62474691  1
  In  In68  1  0.85925693  0.34279291  0.10582865  1
  In  In69  1  0.84644748  0.34259736  0.62163287  1
  In  In70  1  0.85164273  0.67529711  0.10065240  1
  In  In71  1  0.83526650  0.65183123  0.63261791  1
  In  In72  1  0.33451386  0.66257179  0.75685037  1
  In  In73  1  -0.00102816  0.00020898  0.75473766  1
  In  In74  1  0.16252405  0.16822698  0.00638892  1
  In  In75  1  0.83677417  0.83487732  0.50538159  1
  In  In76  1  0.49621211  0.82959814  0.50386828  1
  In  In77  1  0.66320517  -0.00272116  0.75245907  1
  In  In78  1  0.01028849  0.33832699  0.25351502  1
  In  In79  1  0.66377116  0.33754037  0.75753145  1
  In  In80  1  0.00392117  -0.00111535  0.25390137  1
  In  In81  1  0.66497378  0.67003095  0.23713154  1
  In  In82  1  0.50106198  0.17222514  0.50221798  1
  In  In83  1  0.00273292  0.65668177  0.75841740  1
  In  In84  1  0.49728190  0.16104616  0.00075079  1
  In  In85  1  0.66296377  0.33086215  0.24430924  1
  Cu  Cu86  1  0.16539835  0.82535919  0.24787931  1
  Cu  Cu87  1  0.17390368  0.83517071  0.75347838  1
  Cu  Cu88  1  0.66840334  -0.00021652  0.00040668  1
  Cu  Cu89  1  0.49883828  0.50599347  0.24752269  1
  Cu  Cu90  1  0.16698870  0.17056465  0.74202555  1
  Cu  Cu91  1  0.00169172  0.00244474  0.49377220  1
  Cu  Cu92  1  -0.00222628  -0.00171789  0.00267054  1
  Cu  Cu93  1  0.00032290  0.34004863  0.49829643  1
  Cu  Cu94  1  0.67429570  0.00626123  0.49511729  1
  Cu  Cu95  1  0.82964558  0.82883621  0.76511537  1
  Cu  Cu96  1  0.84317649  0.50017942  0.24609167  1
  Cu  Cu97  1  0.49060566  0.16143479  0.74933139  1
  Cu  Cu98  1  0.33062344  0.66305592  0.49263786  1
  Cu  Cu99  1  0.33383628  -0.00212067  0.00641668  1
  Cu  Cu100  1  0.49144609  0.50197408  0.75517125  1
  Cu  Cu101  1  0.50241350  0.16389616  0.25072082  1
  Cu  Cu102  1  0.00329915  0.66719131  0.49883430  1
  Cu  Cu103  1  0.83022587  0.50269255  0.75606474  1
  Cu  Cu104  1  0.33095886  0.66632405  0.00110107  1
  Cu  Cu105  1  0.66355878  0.32634594  -0.00605345  1
  Cu  Cu106  1  0.67330673  0.33754207  0.50100653  1
  Cu  Cu107  1  0.32838442  0.34272403  0.00121755  1
  Cu  Cu108  1  0.84449644  0.17819884  0.74694782  1
  Cu  Cu109  1  0.83021113  0.16399524  0.24498823  1
  Cu  Cu110  1  0.49806536  0.84194094  0.24341276  1
  Cu  Cu111  1  0.67003660  0.65865348  0.50579045  1
  Cu  Cu112  1  0.32991690  0.33319708  0.49809379  1
  Cu  Cu113  1  0.83386503  0.82566904  0.23471157  1
  Cu  Cu114  1  0.32898476  0.00088703  0.49779030  1
  Se  Se115  1  0.07563722  0.07487250  0.06728125  1
  Se  Se116  1  0.08606356  0.08653937  0.54697283  1
  Se  Se117  1  0.07287154  0.39231708  0.05186218  1
  Se  Se118  1  0.08394000  0.42120184  0.55340852  1
  Se  Se119  1  0.08939092  0.74612865  0.04981455  1
  Se  Se120  1  0.08547093  0.75592225  0.54778474  1
  Se  Se121  1  0.40470706  0.08483506  0.06762788  1
  Se  Se122  1  0.40768543  0.08113056  0.55935872  1
  Se  Se123  1  0.41743487  0.42289831  0.05148010  1
  Se  Se124  1  0.41739971  0.41662535  0.54746213  1
  Se  Se125  1  0.41259267  0.75291171  0.05258633  1
  Se  Se126  1  0.40669322  0.73810730  0.56204252  1
  Se  Se127  1  0.75170696  0.08618300  0.05021988  1
  Se  Se128  1  0.75819966  0.08921938  0.54680194  1
  Se  Se129  1  0.73731999  0.40114613  0.06070819  1
  Se  Se130  1  0.75468111  0.42089124  0.55695143  1
  Se  Se131  1  0.73149002  0.72689535  0.05135787  1
  Se  Se132  1  0.74327359  0.74659468  0.56520441  1
  Se  Se133  1  0.25646814  0.25732676  0.06369847  1
  Se  Se134  1  0.24495259  0.25105926  0.55196650  1
  Se  Se135  1  0.24958403  0.57955102  0.05314976  1
  Se  Se136  1  0.24577644  0.58162363  0.54740272  1
  Se  Se137  1  0.24483225  0.91539403  0.05434807  1
  Se  Se138  1  0.25096361  0.91557369  0.55472319  1
  Se  Se139  1  0.58335206  0.25351339  0.06125675  1
  Se  Se140  1  0.59206862  0.26157670  0.56447039  1
  Se  Se141  1  0.57366837  0.58052393  0.04319635  1
  Se  Se142  1  0.58222641  0.58108253  0.55930565  1
  Se  Se143  1  0.58218987  0.92207012  0.05476571  1
  Se  Se144  1  0.59284058  0.92752300  0.55631917  1
  Se  Se145  1  0.91338155  0.23626917  0.04208815  1
  Se  Se146  1  0.91596128  0.25296334  0.54995513  1
  Se  Se147  1  0.89662846  0.55022505  0.05139578  1
  Se  Se148  1  0.91838263  0.58851991  0.55569636  1
  Se  Se149  1  0.91373847  0.91351824  0.05419804  1
  Se  Se150  1  0.92880289  0.92728245  0.56405299  1
  Se  Se151  1  0.08357654  0.25737100  0.44382444  1
  Se  Se152  1  0.08151040  0.25285210  0.93777225  1
  Se  Se153  1  0.08526600  0.58458690  0.44421796  1
  Se  Se154  1  0.07071915  0.60103994  0.95563814  1
  Se  Se155  1  0.08464448  0.91523341  0.44531470  1
  Se  Se156  1  0.08654203  0.91929850  0.95093300  1
  Se  Se157  1  0.40920442  0.25150689  0.43729895  1
  Se  Se158  1  0.40475984  0.25406207  0.94309842  1
  Se  Se159  1  0.42006021  0.58015475  0.44573115  1
  Se  Se160  1  0.40961696  0.58042363  0.94479906  1
  Se  Se161  1  0.40852132  0.91689163  0.43976544  1
  Se  Se162  1  0.41790512  0.91655212  0.95297379  1
  Se  Se163  1  0.74968944  0.25114885  0.44503450  1
  Se  Se164  1  0.75328070  0.24659747  0.94549416  1
  Se  Se165  1  0.75596352  0.58102691  0.45046280  1
  Se  Se166  1  0.74421903  0.58306042  0.95666687  1
  Se  Se167  1  0.74623313  0.91661769  0.43714586  1
  Se  Se168  1  0.75094944  0.91148163  0.95068675  1
  Se  Se169  1  0.25108279  0.08700538  0.44251388  1
  Se  Se170  1  0.25567769  0.08007259  0.94484482  1
  Se  Se171  1  0.25032707  0.42017453  0.44440827  1
  Se  Se172  1  0.24178049  0.41782603  0.94481956  1
  Se  Se173  1  0.24870571  0.75243487  0.44442879  1
  Se  Se174  1  0.24775851  0.75113542  0.94813739  1
  Se  Se175  1  0.58535628  0.07945363  0.43754789  1
  Se  Se176  1  0.58953754  0.07704935  0.93630101  1
  Se  Se177  1  0.58675560  0.41929116  0.44993428  1
  Se  Se178  1  0.57684781  0.41122040  0.94662331  1
  Se  Se179  1  0.59108869  0.73961627  0.44426793  1
  Se  Se180  1  0.57040677  0.75302797  0.95703504  1
  Se  Se181  1  0.91361195  0.08320384  0.44385245  1
  Se  Se182  1  0.91748978  0.07849746  0.94472201  1
  Se  Se183  1  0.91563684  0.42404083  0.44621100  1
  Se  Se184  1  0.89951909  0.43383798  0.95627915  1
  Se  Se185  1  0.91980348  0.74646098  0.43923020  1
  Se  Se186  1  0.90692134  0.75123442  0.95992963  1
  Se  Se187  1  0.25963626  0.26640506  0.29977102  1
  Se  Se188  1  0.24700102  0.25451367  0.79940660  1
  Se  Se189  1  0.27089968  0.60374452  0.30707591  1
  Se  Se190  1  0.23407595  0.57341979  0.80524637  1
  Se  Se191  1  0.24481826  0.91251346  0.30214564  1
  Se  Se192  1  0.25719556  0.91712470  0.80626441  1
  Se  Se193  1  0.57613350  0.24746580  0.31394213  1
  Se  Se194  1  0.57168961  0.23862985  0.81079914  1
  Se  Se195  1  0.58575865  0.57982180  0.30802415  1
  Se  Se196  1  0.57762741  0.58023457  0.80887684  1
  Se  Se197  1  0.58661083  0.91988484  0.29652053  1
  Se  Se198  1  0.58525266  0.91038415  0.81916483  1
  Se  Se199  1  0.90900876  0.24491077  0.30571356  1
  Se  Se200  1  0.91989668  0.26044164  0.80547967  1
  Se  Se201  1  0.92228628  0.58453841  0.30150070  1
  Se  Se202  1  0.91208757  0.57444780  0.82107479  1
  Se  Se203  1  0.90890104  0.90135722  0.30481735  1
  Se  Se204  1  0.92208972  0.90141057  0.81808142  1
  Se  Se205  1  0.09019001  0.09252951  0.31110654  1
  Se  Se206  1  0.09320009  0.09258924  0.81022157  1
  Se  Se207  1  0.09933251  0.43299668  0.30783344  1
  Se  Se208  1  0.07160939  0.42742878  0.81029981  1
  Se  Se209  1  0.08193913  0.74113468  0.30028249  1
  Se  Se210  1  0.09264689  0.75552825  0.81301561  1
  Se  Se211  1  0.41607505  0.07976833  0.30068958  1
  Se  Se212  1  0.40827914  0.07896476  0.80287582  1
  Se  Se213  1  0.41886312  0.42170389  0.30259551  1
  Se  Se214  1  0.40568669  0.41580165  0.80167618  1
  Se  Se215  1  0.42331591  0.75189903  0.29776484  1
  Se  Se216  1  0.42255543  0.75330644  0.81439174  1
  Se  Se217  1  0.74846101  0.07834915  0.29677563  1
  Se  Se218  1  0.76728233  0.08807926  0.80243596  1
  Se  Se219  1  0.75781504  0.42200565  0.30420726  1
  Se  Se220  1  0.75202012  0.42371186  0.81931570  1
  Se  Se221  1  0.75632047  0.75351160  0.30528891  1
  Se  Se222  1  0.74866648  0.74218016  0.81427497  1
  Se  Se223  1  0.24665607  0.08114681  0.20660640  1
  Se  Se224  1  0.24889230  0.07867418  0.69535153  1
  Se  Se225  1  0.26807398  0.40668049  0.19645988  1
  Se  Se226  1  0.25847052  0.41135324  0.69228353  1
  Se  Se227  1  0.25112005  0.74568529  0.19383652  1
  Se  Se228  1  0.24364164  0.74946393  0.69031706  1
  Se  Se229  1  0.58663763  0.08364628  0.19661691  1
  Se  Se230  1  0.57344653  0.08793684  0.68825033  1
  Se  Se231  1  0.58518444  0.43347496  0.18648439  1
  Se  Se232  1  0.57272921  0.42101530  0.69325795  1
  Se  Se233  1  0.57372190  0.75977954  0.18036087  1
  Se  Se234  1  0.58305996  0.74937244  0.70719012  1
  Se  Se235  1  0.91856162  0.08807408  0.18781612  1
  Se  Se236  1  0.92021647  0.09306085  0.68725606  1
  Se  Se237  1  0.92301830  0.42087747  0.18798575  1
  Se  Se238  1  0.91366693  0.42402215  0.69882771  1
  Se  Se239  1  0.91785661  0.73951803  0.18718232  1
  Se  Se240  1  0.91064113  0.75357625  0.69985862  1
  Se  Se241  1  0.09736754  0.24186956  0.19569924  1
  Se  Se242  1  0.08169992  0.25615691  0.69388345  1
  Se  Se243  1  0.08318470  0.57263739  0.18424969  1
  Se  Se244  1  0.09091214  0.57736966  0.69027743  1
  Se  Se245  1  0.08350426  0.90593869  0.18868343  1
  Se  Se246  1  0.08908298  0.91097857  0.69262314  1
  Se  Se247  1  0.42451270  0.25379768  0.20003563  1
  Se  Se248  1  0.41067113  0.25055028  0.69918176  1
  Se  Se249  1  0.41534114  0.58839268  0.19394258  1
  Se  Se250  1  0.41711048  0.57748461  0.68717953  1
  Se  Se251  1  0.40738889  0.92107458  0.19368779  1
  Se  Se252  1  0.42742559  0.90239411  0.70181839  1
  Se  Se253  1  0.76168121  0.25239521  0.18405909  1
  Se  Se254  1  0.75220153  0.25023613  0.69152184  1
  Se  Se255  1  0.76389074  0.58204584  0.18621746  1
  Se  Se256  1  0.74472055  0.58451119  0.70386194  1
  Se  Se257  1  0.74896451  0.91454185  0.19091212  1
  Se  Se258  1  0.76098536  0.90739783  0.69511706  1
