# generated using pymatgen
data_In86Cu29Se144
_symmetry_space_group_name_H-M   'P 1'
_cell_length_a   17.59129493
_cell_length_b   17.59278771
_cell_length_c   23.44637941
_cell_angle_alpha   90.00451475
_cell_angle_beta   89.99735484
_cell_angle_gamma   89.99629798
_symmetry_Int_Tables_number   1
_chemical_formula_structural   In86Cu29Se144
_chemical_formula_sum   'In86 Cu29 Se144'
_cell_volume   7256.18351339
_cell_formula_units_Z   1
loop_
 _symmetry_equiv_pos_site_id
 _symmetry_equiv_pos_as_xyz
  1  'x, y, z'
loop_
 _atom_site_type_symbol
 _atom_site_label
 _atom_site_symmetry_multiplicity
 _atom_site_fract_x
 _atom_site_fract_y
 _atom_site_fract_z
 _atom_site_occupancy
  In  In0  1  -0.00829507  0.16844093  0.11754324  1
  In  In1  1  -0.00626810  0.15669157  0.62774042  1
  In  In2  1  0.01647230  0.49395304  0.12447464  1
  In  In3  1  -0.00162836  0.51550739  0.62334466  1
  In  In4  1  -0.00528576  0.83184759  0.11225271  1
  In  In5  1  0.01717349  0.82853820  0.64151981  1
  In  In6  1  0.33872629  0.15888198  0.12710034  1
  In  In7  1  0.33610822  0.17240640  0.62883959  1
  In  In8  1  0.32537198  0.51065578  0.13488064  1
  In  In9  1  0.34806583  0.49371731  0.63816649  1
  In  In10  1  0.32262777  0.84008091  0.12575863  1
  In  In11  1  0.31600401  0.84706141  0.64184873  1
  In  In12  1  0.67162144  0.17114665  0.11889339  1
  In  In13  1  0.67180117  0.16820559  0.63121619  1
  In  In14  1  0.65640694  0.49704893  0.12892362  1
  In  In15  1  0.65103338  0.48194072  0.60545150  1
  In  In16  1  0.67366389  0.83555850  0.11252792  1
  In  In17  1  0.67921320  0.84045193  0.63341967  1
  In  In18  1  0.16570470  -0.00962848  0.38183563  1
  In  In19  1  0.15583855  -0.01421069  0.86486101  1
  In  In20  1  0.16347665  0.31800482  0.37588084  1
  In  In21  1  0.18264813  0.32932676  0.87509569  1
  In  In22  1  0.17223745  0.67269294  0.37145281  1
  In  In23  1  0.16322599  0.66922880  0.87583114  1
  In  In24  1  0.49359470  0.01449481  0.37450463  1
  In  In25  1  0.50866262  0.01367707  0.86817913  1
  In  In26  1  0.50642433  0.34379538  0.36961090  1
  In  In27  1  0.48700937  0.32036233  0.86548047  1
  In  In28  1  0.48272926  0.66128269  0.37368298  1
  In  In29  1  0.49018629  0.67064944  0.87155526  1
  In  In30  1  0.84451471  0.00410131  0.37809478  1
  In  In31  1  0.83400573  0.00171165  0.88827923  1
  In  In32  1  0.82645687  0.33642380  0.38676371  1
  In  In33  1  0.81719010  0.33035619  0.87269114  1
  In  In34  1  0.83087664  0.64919795  0.36749064  1
  In  In35  1  0.86265193  0.67566612  0.86774112  1
  In  In36  1  -0.00142867  0.16660579  0.38689589  1
  In  In37  1  0.00024155  0.13850617  0.88024464  1
  In  In38  1  -0.01755122  0.50366918  0.37258258  1
  In  In39  1  0.00437216  0.51887148  0.86913810  1
  In  In40  1  0.01481241  0.83515688  0.37413133  1
  In  In41  1  0.00501200  0.83576957  0.88297797  1
  In  In42  1  0.32204427  0.15905428  0.36854820  1
  In  In43  1  0.34350939  0.17078119  0.86939145  1
  In  In44  1  0.33895554  0.50439445  0.37476456  1
  In  In45  1  0.32674150  0.48623366  0.86561912  1
  In  In46  1  0.31969394  0.82310472  0.36952343  1
  In  In47  1  0.31537926  0.82941819  0.86212888  1
  In  In48  1  0.66311908  0.19212215  0.38147856  1
  In  In49  1  0.66462757  0.16092605  0.88333164  1
  In  In50  1  0.68099305  0.47292942  0.39409672  1
  In  In51  1  0.66712833  0.49344504  0.86833088  1
  In  In52  1  0.67251436  0.83902585  0.37283479  1
  In  In53  1  0.67007614  0.85680339  0.87783438  1
  In  In54  1  0.18690991  -0.00367124  0.11352314  1
  In  In55  1  0.16694309  0.00060923  0.63035720  1
  In  In56  1  0.16297317  0.34670400  0.12326128  1
  In  In57  1  0.18657957  0.33090978  0.62390697  1
  In  In58  1  0.16792060  0.66845728  0.12454406  1
  In  In59  1  0.16306707  0.67575587  0.63363179  1
  In  In60  1  0.47584998  0.00218298  0.11389641  1
  In  In61  1  0.50183069  0.00475401  0.63561033  1
  In  In62  1  0.50346311  0.32768778  0.13308178  1
  In  In63  1  0.50435622  0.33917626  0.62856548  1
  In  In64  1  0.49953114  0.65767376  0.12593436  1
  In  In65  1  0.49152649  0.65305961  0.62533821  1
  In  In66  1  0.83500969  0.00417695  0.10338136  1
  In  In67  1  0.83082101  0.01020656  0.63940805  1
  In  In68  1  0.82991260  0.32408520  0.12798682  1
  In  In69  1  0.82052062  0.32326921  0.61347898  1
  In  In70  1  0.83196676  0.67465100  0.12499906  1
  In  In71  1  0.84393223  0.66893649  0.62681989  1
  In  In72  1  0.16765369  0.50110220  0.50278095  1
  In  In73  1  -0.00228954  0.33051950  0.74600138  1
  In  In74  1  0.84568343  0.83227731  0.50982532  1
  In  In75  1  0.66527240  0.66742779  0.74828983  1
  In  In76  1  0.65900958  0.65967518  0.24960804  1
  In  In77  1  0.49850687  0.17078807  0.50465641  1
  In  In78  1  -0.00137480  0.33878452  0.25250925  1
  In  In79  1  0.49089685  0.83908054  -0.00961812  1
  In  In80  1  0.49586805  0.82819167  0.50170610  1
  In  In81  1  0.83766843  0.50042103  -0.00441676  1
  In  In82  1  0.49891368  0.49814585  0.00394305  1
  In  In83  1  0.66183045  0.00325547  0.24457091  1
  In  In84  1  0.16935479  0.16076380  -0.00592281  1
  In  In85  1  0.00466403  0.00219021  0.23868183  1
  Cu  Cu86  1  0.16728528  0.50220175  0.74745440  1
  Cu  Cu87  1  0.32640920  0.66622118  -0.00021661  1
  Cu  Cu88  1  0.84083340  0.83145670  0.23966719  1
  Cu  Cu89  1  0.17715393  0.16643888  0.75362122  1
  Cu  Cu90  1  0.82605500  0.49732150  0.74481670  1
  Cu  Cu91  1  0.32568140  0.66807067  0.50097013  1
  Cu  Cu92  1  0.32391639  -0.00734740  0.50014214  1
  Cu  Cu93  1  0.66063187  0.32773207  0.00010916  1
  Cu  Cu94  1  0.68143176  0.67418617  -0.00827495  1
  Cu  Cu95  1  0.49023860  0.16705712  0.24921125  1
  Cu  Cu96  1  0.82162520  0.17142713  0.25224073  1
  Cu  Cu97  1  0.66342606  0.66071032  0.49717966  1
  Cu  Cu98  1  0.16744957  0.16416821  0.24809765  1
  Cu  Cu99  1  0.00144527  0.67178023  0.50240490  1
  Cu  Cu100  1  0.17167039  0.50530903  0.24993573  1
  Cu  Cu101  1  0.33331882  0.33505195  -0.00295717  1
  Cu  Cu102  1  0.00525593  0.00036224  0.50789477  1
  Cu  Cu103  1  0.49085579  0.83377077  0.24504964  1
  Cu  Cu104  1  -0.00135126  0.33391773  -0.00149992  1
  Cu  Cu105  1  0.00280820  0.32925899  0.50119053  1
  Cu  Cu106  1  0.17184711  0.83106797  0.24833862  1
  Cu  Cu107  1  0.33761130  0.32875826  0.50323177  1
  Cu  Cu108  1  0.50997604  0.16809425  0.75075342  1
  Cu  Cu109  1  0.67356906  0.00511882  0.50999287  1
  Cu  Cu110  1  0.83773400  0.84295897  0.75822256  1
  Cu  Cu111  1  0.49669932  0.49685483  0.25356929  1
  Cu  Cu112  1  0.83339383  0.16317166  0.75555034  1
  Cu  Cu113  1  0.49706481  0.83706573  0.75487124  1
  Cu  Cu114  1  0.00818206  0.66898375  -0.00165162  1
  Se  Se115  1  0.07912175  0.07638983  0.05835071  1
  Se  Se116  1  0.08782581  0.08531394  0.56001665  1
  Se  Se117  1  0.08575161  0.41799304  0.04530190  1
  Se  Se118  1  0.07942391  0.40947764  0.56437981  1
  Se  Se119  1  0.09126617  0.75201384  0.05249205  1
  Se  Se120  1  0.08161262  0.75140826  0.55947306  1
  Se  Se121  1  0.40300942  0.08761545  0.04441131  1
  Se  Se122  1  0.41129433  0.06996171  0.55721790  1
  Se  Se123  1  0.40750088  0.41242067  0.06478467  1
  Se  Se124  1  0.41485735  0.41448554  0.55842002  1
  Se  Se125  1  0.41504411  0.74192239  0.05711098  1
  Se  Se126  1  0.40295415  0.74863988  0.56452585  1
  Se  Se127  1  0.73642977  0.08073993  0.04806756  1
  Se  Se128  1  0.75699444  0.08640972  0.56206156  1
  Se  Se129  1  0.74142182  0.41455753  0.05625230  1
  Se  Se130  1  0.76399119  0.42838260  0.54931994  1
  Se  Se131  1  0.76194357  0.75461306  0.04787140  1
  Se  Se132  1  0.74005660  0.74359183  0.55805756  1
  Se  Se133  1  0.25023606  0.25605344  0.05800894  1
  Se  Se134  1  0.25420816  0.24195593  0.55130565  1
  Se  Se135  1  0.24909624  0.58019689  0.05603831  1
  Se  Se136  1  0.25488972  0.58550450  0.56683097  1
  Se  Se137  1  0.26071749  0.91262701  0.04310897  1
  Se  Se138  1  0.24472413  0.91297628  0.55866115  1
  Se  Se139  1  0.57579018  0.25045464  0.05640681  1
  Se  Se140  1  0.59478201  0.25740750  0.55795729  1
  Se  Se141  1  0.59908467  0.59536159  0.05198483  1
  Se  Se142  1  0.57425033  0.58470742  0.54945578  1
  Se  Se143  1  0.58111445  0.92364550  0.05497765  1
  Se  Se144  1  0.58902367  0.92057064  0.56104488  1
  Se  Se145  1  0.91192630  0.25598325  0.05133096  1
  Se  Se146  1  0.92176098  0.24598945  0.55714831  1
  Se  Se147  1  0.92622493  0.58720003  0.05904595  1
  Se  Se148  1  0.91424545  0.58782554  0.54985499  1
  Se  Se149  1  0.92707458  0.92447311  0.04437314  1
  Se  Se150  1  0.92707271  0.92347439  0.57299403  1
  Se  Se151  1  0.08883931  0.24446788  0.45312759  1
  Se  Se152  1  0.07672064  0.25364557  0.93564948  1
  Se  Se153  1  0.07783886  0.58860131  0.44033729  1
  Se  Se154  1  0.08705198  0.57962234  0.94779825  1
  Se  Se155  1  0.08144382  0.91283564  0.45294194  1
  Se  Se156  1  0.08875700  0.92050602  0.94888710  1
  Se  Se157  1  0.41093752  0.25071191  0.43584369  1
  Se  Se158  1  0.41651408  0.25003869  0.94687254  1
  Se  Se159  1  0.41178778  0.58399993  0.45157272  1
  Se  Se160  1  0.40872209  0.58512031  0.94203950  1
  Se  Se161  1  0.41015009  0.91972397  0.43892341  1
  Se  Se162  1  0.40804370  0.92111651  0.92296310  1
  Se  Se163  1  0.76447896  0.23521857  0.45172982  1
  Se  Se164  1  0.75041085  0.24951601  0.94938446  1
  Se  Se165  1  0.75285504  0.58329103  0.44594783  1
  Se  Se166  1  0.75319487  0.58966669  0.93025345  1
  Se  Se167  1  0.74980058  0.92197723  0.44830675  1
  Se  Se168  1  0.74972589  0.91733852  0.95601430  1
  Se  Se169  1  0.24784073  0.08129909  0.44511836  1
  Se  Se170  1  0.25181266  0.07729971  0.92668344  1
  Se  Se171  1  0.25421619  0.40793277  0.44213105  1
  Se  Se172  1  0.24969051  0.41993406  0.94711272  1
  Se  Se173  1  0.24358387  0.75273535  0.44879005  1
  Se  Se174  1  0.24992439  0.75114324  0.94344411  1
  Se  Se175  1  0.59266441  0.07838693  0.44479158  1
  Se  Se176  1  0.57269227  0.08599356  0.94993507  1
  Se  Se177  1  0.57402378  0.41153069  0.45211773  1
  Se  Se178  1  0.58417518  0.40985115  0.93970516  1
  Se  Se179  1  0.58969824  0.74506309  0.43607004  1
  Se  Se180  1  0.59010372  0.74647721  0.93612633  1
  Se  Se181  1  0.91808582  0.07958368  0.45408943  1
  Se  Se182  1  0.91056161  0.09142277  0.95757419  1
  Se  Se183  1  0.92253749  0.41512721  0.44830914  1
  Se  Se184  1  0.92445529  0.41255089  0.93126492  1
  Se  Se185  1  0.91997766  0.74574789  0.43656313  1
  Se  Se186  1  0.91769572  0.75111081  0.95198738  1
  Se  Se187  1  0.24761061  0.25138424  0.30027373  1
  Se  Se188  1  0.26015701  0.25518890  0.80001715  1
  Se  Se189  1  0.25482196  0.58621310  0.30626486  1
  Se  Se190  1  0.24619283  0.58290177  0.80723678  1
  Se  Se191  1  0.24638703  0.91968917  0.30502383  1
  Se  Se192  1  0.22758177  0.90258972  0.78951004  1
  Se  Se193  1  0.57711655  0.24711162  0.30256827  1
  Se  Se194  1  0.59143757  0.24771274  0.80892240  1
  Se  Se195  1  0.57895442  0.57262710  0.31705204  1
  Se  Se196  1  0.57342739  0.57768974  0.80669766  1
  Se  Se197  1  0.57159695  0.91128751  0.30742311  1
  Se  Se198  1  0.58552296  0.92086301  0.80151992  1
  Se  Se199  1  0.91314170  0.24184920  0.31048640  1
  Se  Se200  1  0.91658229  0.24318942  0.81458940  1
  Se  Se201  1  0.92331031  0.59007309  0.29619666  1
  Se  Se202  1  0.91453097  0.57953233  0.79335611  1
  Se  Se203  1  0.91463534  0.91270498  0.30376624  1
  Se  Se204  1  0.91813708  0.92126855  0.81684289  1
  Se  Se205  1  0.08394179  0.08883445  0.30951274  1
  Se  Se206  1  0.08577819  0.08578216  0.80005228  1
  Se  Se207  1  0.09250598  0.42650493  0.31353726  1
  Se  Se208  1  0.08883625  0.41791712  0.80840363  1
  Se  Se209  1  0.08511576  0.75070912  0.30134187  1
  Se  Se210  1  0.05538575  0.72959546  0.81502760  1
  Se  Se211  1  0.40916543  0.07925794  0.29954775  1
  Se  Se212  1  0.41887656  0.08535434  0.79727138  1
  Se  Se213  1  0.40947111  0.41367526  0.30405490  1
  Se  Se214  1  0.42580469  0.42190491  0.80146969  1
  Se  Se215  1  0.41384850  0.75039570  0.30260674  1
  Se  Se216  1  0.41203708  0.75023182  0.80078728  1
  Se  Se217  1  0.74852301  0.08651870  0.31385147  1
  Se  Se218  1  0.75339993  0.08247373  0.81454859  1
  Se  Se219  1  0.75659099  0.41595290  0.31072236  1
  Se  Se220  1  0.74650869  0.41242294  0.79738558  1
  Se  Se221  1  0.75592405  0.75848065  0.30137997  1
  Se  Se222  1  0.75359106  0.75610902  0.81283283  1
  Se  Se223  1  0.24718895  0.08008274  0.19291857  1
  Se  Se224  1  0.25696124  0.08431818  0.69515038  1
  Se  Se225  1  0.24815100  0.41460188  0.19780081  1
  Se  Se226  1  0.25182653  0.41482342  0.69959500  1
  Se  Se227  1  0.25482999  0.74661576  0.19514129  1
  Se  Se228  1  0.25861557  0.73927130  0.70203459  1
  Se  Se229  1  0.56931732  0.08866360  0.18526001  1
  Se  Se230  1  0.59330695  0.08191615  0.69968388  1
  Se  Se231  1  0.58295839  0.41543453  0.20138298  1
  Se  Se232  1  0.59292812  0.41966213  0.69356240  1
  Se  Se233  1  0.58015334  0.76113499  0.18676567  1
  Se  Se234  1  0.57406188  0.75942119  0.68834485  1
  Se  Se235  1  0.90025281  0.09120776  0.18996722  1
  Se  Se236  1  0.92421988  0.08116650  0.70762253  1
  Se  Se237  1  0.91039236  0.42408398  0.18835023  1
  Se  Se238  1  0.91039611  0.42014360  0.68439522  1
  Se  Se239  1  0.92616369  0.74963485  0.18980736  1
  Se  Se240  1  0.91158277  0.75766111  0.69869118  1
  Se  Se241  1  0.08426180  0.24390615  0.18934703  1
  Se  Se242  1  0.09537507  0.24381532  0.69008313  1
  Se  Se243  1  0.08613876  0.58314842  0.19476368  1
  Se  Se244  1  0.08069173  0.58465962  0.69789063  1
  Se  Se245  1  0.09517590  0.91004544  0.18362946  1
  Se  Se246  1  0.10011236  0.91335641  0.70703366  1
  Se  Se247  1  0.40789233  0.25206429  0.19639291  1
  Se  Se248  1  0.42611758  0.24942581  0.69475435  1
  Se  Se249  1  0.41924113  0.58647496  0.20071006  1
  Se  Se250  1  0.41399614  0.59047185  0.70460202  1
  Se  Se251  1  0.41191712  0.92018374  0.19250027  1
  Se  Se252  1  0.41597048  0.92301109  0.70115018  1
  Se  Se253  1  0.73968964  0.25291626  0.19765912  1
  Se  Se254  1  0.75796205  0.25045384  0.69859113  1
  Se  Se255  1  0.75557215  0.57603822  0.19034516  1
  Se  Se256  1  0.74907980  0.57955600  0.68331944  1
  Se  Se257  1  0.75939899  0.91687178  0.18597608  1
  Se  Se258  1  0.74977218  0.92299161  0.70660266  1
