# generated using pymatgen
data_In86Cu29Se144
_symmetry_space_group_name_H-M   'P 1'
_cell_length_a   17.58677532
_cell_length_b   17.59116548
_cell_length_c   23.45557858
_cell_angle_alpha   89.99362274
_cell_angle_beta   89.98351926
_cell_angle_gamma   90.00721584
_symmetry_Int_Tables_number   1
_chemical_formula_structural   In86Cu29Se144
_chemical_formula_sum   'In86 Cu29 Se144'
_cell_volume   7256.49592320
_cell_formula_units_Z   1
loop_
 _symmetry_equiv_pos_site_id
 _symmetry_equiv_pos_as_xyz
  1  'x, y, z'
loop_
 _atom_site_type_symbol
 _atom_site_label
 _atom_site_symmetry_multiplicity
 _atom_site_fract_x
 _atom_site_fract_y
 _atom_site_fract_z
 _atom_site_occupancy
  In  In0  1  -0.00296954  0.15923864  0.11731400  1
  In  In1  1  0.01500887  0.18083491  0.60849551  1
  In  In2  1  0.00409652  0.51675572  0.12525948  1
  In  In3  1  0.00873731  0.48294329  0.63077926  1
  In  In4  1  0.00226235  0.83263538  0.13263969  1
  In  In5  1  -0.01082148  0.84379060  0.62412451  1
  In  In6  1  0.34486118  0.17309091  0.11039326  1
  In  In7  1  0.33169583  0.16812392  0.63033410  1
  In  In8  1  0.33579995  0.48580589  0.13325032  1
  In  In9  1  0.32637345  0.50780222  0.63424115  1
  In  In10  1  0.31938231  0.82875308  0.12518768  1
  In  In11  1  0.31956144  0.83854513  0.64114297  1
  In  In12  1  0.66787409  0.17587709  0.12043641  1
  In  In13  1  0.67673657  0.17069256  0.62424176  1
  In  In14  1  0.66333151  0.49669256  0.11910133  1
  In  In15  1  0.65823087  0.49620174  0.62630192  1
  In  In16  1  0.66271506  0.82237304  0.12665832  1
  In  In17  1  0.68094315  0.83148122  0.61830206  1
  In  In18  1  0.16698708  0.01581721  0.37768449  1
  In  In19  1  0.17739603  0.01043733  0.87442503  1
  In  In20  1  0.17327810  0.32757475  0.38173787  1
  In  In21  1  0.15624881  0.31892886  0.86225165  1
  In  In22  1  0.15931567  0.65582929  0.37067802  1
  In  In23  1  0.16546594  0.67176905  0.86106345  1
  In  In24  1  0.51000070  0.00972832  0.37480742  1
  In  In25  1  0.48771155  0.01780289  0.88420396  1
  In  In26  1  0.49381867  0.33067734  0.37260097  1
  In  In27  1  0.49954736  0.33486025  0.87265381  1
  In  In28  1  0.48954297  0.65208003  0.36349607  1
  In  In29  1  0.49042979  0.66252430  0.88059608  1
  In  In30  1  0.84419724  -0.00684851  0.38493963  1
  In  In31  1  0.84960738  0.01210509  0.87887263  1
  In  In32  1  0.82186759  0.33339039  0.37205696  1
  In  In33  1  0.83254312  0.33635363  0.87785568  1
  In  In34  1  0.84292278  0.67272608  0.36487872  1
  In  In35  1  0.83883732  0.65404316  0.87962098  1
  In  In36  1  0.00818190  0.15664765  0.38092775  1
  In  In37  1  -0.00852727  0.16987709  0.88441225  1
  In  In38  1  0.00203854  0.51148320  0.37338365  1
  In  In39  1  -0.00272061  0.49430239  0.87217841  1
  In  In40  1  -0.00489575  0.82837255  0.37210604  1
  In  In41  1  0.02931075  0.83847087  0.86576241  1
  In  In42  1  0.32729017  0.18060898  0.38462857  1
  In  In43  1  0.32792527  0.17137897  0.87302919  1
  In  In44  1  0.32141287  0.48640968  0.36416447  1
  In  In45  1  0.33775948  0.50333433  0.87427253  1
  In  In46  1  0.34077804  0.82562256  0.37696833  1
  In  In47  1  0.32748937  0.83033209  0.86282085  1
  In  In48  1  0.66319725  0.17249348  0.37883484  1
  In  In49  1  0.65560874  0.18184015  0.88288596  1
  In  In50  1  0.66288675  0.49249358  0.36193952  1
  In  In51  1  0.68180485  0.49175457  0.88816635  1
  In  In52  1  0.67828214  0.83239514  0.36939628  1
  In  In53  1  0.66623414  0.82582459  0.87552530  1
  In  In54  1  0.15731121  0.00194462  0.12194463  1
  In  In55  1  0.16227107  0.02855604  0.62900006  1
  In  In56  1  0.18263031  0.33552065  0.12614263  1
  In  In57  1  0.16637769  0.33001875  0.62831710  1
  In  In58  1  0.16132075  0.66055811  0.13991938  1
  In  In59  1  0.17120498  0.65726611  0.63217574  1
  In  In60  1  0.49024493  0.01554759  0.11764413  1
  In  In61  1  0.48016336  0.00295415  0.63219716  1
  In  In62  1  0.49789383  0.33463646  0.12102391  1
  In  In63  1  0.50829843  0.32316519  0.63627689  1
  In  In64  1  0.51308356  0.64499325  0.12941830  1
  In  In65  1  0.49434161  0.66095518  0.62612868  1
  In  In66  1  0.84218757  0.01461001  0.12120965  1
  In  In67  1  0.85769622  0.01377220  0.60460670  1
  In  In68  1  0.82114953  0.32125699  0.12056803  1
  In  In69  1  0.84479661  0.31916732  0.63587423  1
  In  In70  1  0.83840994  0.66065328  0.12558862  1
  In  In71  1  0.83610949  0.67943697  0.61877816  1
  In  In72  1  0.83841141  0.83522575  0.00340034  1
  In  In73  1  0.16091904  0.84098507  0.50654244  1
  In  In74  1  0.32842002  -0.00014714  0.24697388  1
  In  In75  1  0.49872756  0.83128778  -0.00261214  1
  In  In76  1  0.16856587  0.84086330  -0.00694033  1
  In  In77  1  0.67191139  -0.00284065  0.24644601  1
  In  In78  1  0.50282821  0.83683796  0.50018513  1
  In  In79  1  0.16618620  0.49626546  0.00100735  1
  In  In80  1  0.83505565  0.49711123  0.49608391  1
  In  In81  1  0.00063294  0.33824199  0.25016824  1
  In  In82  1  0.66782935  -0.00147754  0.75307898  1
  In  In83  1  0.66399138  0.66162990  0.74672136  1
  In  In84  1  0.00541475  0.00421735  0.74679430  1
  In  In85  1  0.49493976  0.49703638  0.50275178  1
  Cu  Cu86  1  0.33418935  0.01514604  0.50401034  1
  Cu  Cu87  1  0.67044071  0.00379099  0.00060251  1
  Cu  Cu88  1  0.32552192  0.66669258  0.50740217  1
  Cu  Cu89  1  0.67003869  0.32812888  0.50359591  1
  Cu  Cu90  1  0.83423207  0.49754202  0.75590166  1
  Cu  Cu91  1  0.49379793  0.17571513  0.24931322  1
  Cu  Cu92  1  0.83730358  0.82627238  0.24971027  1
  Cu  Cu93  1  0.50029356  0.49688888  0.75251206  1
  Cu  Cu94  1  0.49656408  0.82301583  0.24488777  1
  Cu  Cu95  1  0.83584929  0.16293724  0.24624406  1
  Cu  Cu96  1  0.66236921  0.33211521  -0.00010141  1
  Cu  Cu97  1  0.16592204  0.49625909  0.75133726  1
  Cu  Cu98  1  0.49851234  0.83425670  0.75347014  1
  Cu  Cu99  1  -0.00525827  0.33449625  -0.00426809  1
  Cu  Cu100  1  0.66492024  0.00715140  0.49831124  1
  Cu  Cu101  1  0.83663894  0.83417498  0.74409615  1
  Cu  Cu102  1  0.83230132  0.17472912  0.75426335  1
  Cu  Cu103  1  0.33350133  0.32985617  0.50505652  1
  Cu  Cu104  1  0.00220632  0.66553147  0.49592410  1
  Cu  Cu105  1  0.50175133  0.49603377  0.24349815  1
  Cu  Cu106  1  0.16241706  0.83078610  0.25264413  1
  Cu  Cu107  1  0.00462802  0.32888191  0.50283724  1
  Cu  Cu108  1  0.82679617  0.49635387  0.24456307  1
  Cu  Cu109  1  0.16830889  0.17099285  0.25390706  1
  Cu  Cu110  1  0.67237878  0.67211733  0.48996093  1
  Cu  Cu111  1  0.00082811  0.67261043  -0.00019167  1
  Cu  Cu112  1  0.33647542  0.33181709  -0.00449723  1
  Cu  Cu113  1  0.33637743  0.66055625  0.00308363  1
  Cu  Cu114  1  0.49344917  0.16741082  0.75612298  1
  Se  Se115  1  0.09775406  0.09654044  0.05193089  1
  Se  Se116  1  0.06315027  0.06344156  0.55383579  1
  Se  Se117  1  0.07401915  0.40886074  0.06202103  1
  Se  Se118  1  0.08810888  0.41345155  0.55402358  1
  Se  Se119  1  0.08565219  0.74670407  0.05966381  1
  Se  Se120  1  0.07723537  0.74167365  0.56305006  1
  Se  Se121  1  0.41271943  0.08053939  0.04064751  1
  Se  Se122  1  0.42134885  0.09266417  0.55756524  1
  Se  Se123  1  0.41151498  0.41784278  0.05343976  1
  Se  Se124  1  0.41213278  0.40903467  0.56803735  1
  Se  Se125  1  0.41364171  0.74330378  0.06359184  1
  Se  Se126  1  0.40764313  0.75154668  0.56167058  1
  Se  Se127  1  0.75046578  0.08749433  0.05536992  1
  Se  Se128  1  0.75107458  0.08716801  0.55168861  1
  Se  Se129  1  0.74996203  0.41306185  0.05207217  1
  Se  Se130  1  0.74919314  0.41084767  0.56267112  1
  Se  Se131  1  0.74509524  0.74196203  0.05516680  1
  Se  Se132  1  0.75571180  0.75309255  0.54340154  1
  Se  Se133  1  0.24942618  0.25344654  0.04954367  1
  Se  Se134  1  0.24935953  0.24704841  0.55805523  1
  Se  Se135  1  0.25071179  0.58788359  0.06384326  1
  Se  Se136  1  0.24619277  0.57726494  0.55654423  1
  Se  Se137  1  0.25943142  0.92757373  0.05553237  1
  Se  Se138  1  0.25767821  0.92850852  0.56226693  1
  Se  Se139  1  0.57726627  0.24766842  0.05171079  1
  Se  Se140  1  0.58464434  0.24978178  0.55875319  1
  Se  Se141  1  0.57920927  0.57542153  0.04861019  1
  Se  Se142  1  0.59317498  0.59540025  0.55308989  1
  Se  Se143  1  0.59029864  0.92348960  0.05998381  1
  Se  Se144  1  0.58813444  0.92845704  0.56350816  1
  Se  Se145  1  0.91603212  0.25032936  0.05397237  1
  Se  Se146  1  0.90982919  0.25191836  0.55043199  1
  Se  Se147  1  0.91966370  0.58558771  0.05030159  1
  Se  Se148  1  0.92418833  0.58329081  0.55903041  1
  Se  Se149  1  0.93253484  0.92450949  0.05810031  1
  Se  Se150  1  0.91077703  0.90440691  0.54425502  1
  Se  Se151  1  0.08731583  0.24559419  0.44763908  1
  Se  Se152  1  0.08396270  0.25434643  0.94589452  1
  Se  Se153  1  0.08707738  0.57919458  0.44899324  1
  Se  Se154  1  0.08304284  0.59260211  0.93960229  1
  Se  Se155  1  0.07712535  0.92331321  0.43814870  1
  Se  Se156  1  0.07388487  0.93505509  0.94321464  1
  Se  Se157  1  0.42247889  0.25299505  0.45048644  1
  Se  Se158  1  0.41950380  0.24915130  0.94125413  1
  Se  Se159  1  0.40630615  0.58905177  0.44508364  1
  Se  Se160  1  0.41811214  0.57521298  0.95181190  1
  Se  Se161  1  0.40961078  0.93099844  0.44253883  1
  Se  Se162  1  0.40317849  0.91506399  0.93940213  1
  Se  Se163  1  0.75327203  0.24946435  0.44702892  1
  Se  Se164  1  0.75209749  0.25147319  0.94823019  1
  Se  Se165  1  0.74502141  0.58311820  0.43244501  1
  Se  Se166  1  0.74993996  0.59119967  0.95089313  1
  Se  Se167  1  0.74166203  0.91862935  0.44418358  1
  Se  Se168  1  0.74583391  0.92317444  0.93888618  1
  Se  Se169  1  0.24633858  0.09227779  0.45052719  1
  Se  Se170  1  0.25511086  0.08640281  0.94669966  1
  Se  Se171  1  0.25626937  0.41574195  0.44808147  1
  Se  Se172  1  0.25021840  0.40857934  0.93652940  1
  Se  Se173  1  0.24929216  0.74873056  0.44560076  1
  Se  Se174  1  0.25635266  0.73775692  0.94111623  1
  Se  Se175  1  0.57929190  0.09114923  0.44923222  1
  Se  Se176  1  0.58448452  0.08566093  0.94903698  1
  Se  Se177  1  0.59179255  0.41190538  0.44412859  1
  Se  Se178  1  0.58067173  0.41587918  0.94545090  1
  Se  Se179  1  0.58098654  0.74365407  0.43309022  1
  Se  Se180  1  0.59304380  0.73665160  0.94583072  1
  Se  Se181  1  0.90769832  0.09519074  0.44637444  1
  Se  Se182  1  0.91336622  0.08872054  0.95684129  1
  Se  Se183  1  0.92693034  0.40627240  0.43743367  1
  Se  Se184  1  0.91399013  0.42340080  0.94683070  1
  Se  Se185  1  0.91576273  0.74567015  0.44395815  1
  Se  Se186  1  0.93002306  0.75534911  0.93498391  1
  Se  Se187  1  0.25338487  0.25279039  0.30549414  1
  Se  Se188  1  0.26014858  0.25910966  0.79963328  1
  Se  Se189  1  0.26842747  0.60137792  0.31020509  1
  Se  Se190  1  0.25118130  0.57934668  0.80383144  1
  Se  Se191  1  0.24382879  0.91020749  0.31361140  1
  Se  Se192  1  0.21620634  0.89514056  0.81224366  1
  Se  Se193  1  0.58219651  0.24998947  0.30578283  1
  Se  Se194  1  0.58315791  0.25102745  0.80245659  1
  Se  Se195  1  0.58392532  0.58170437  0.29713826  1
  Se  Se196  1  0.58153748  0.57611725  0.81361975  1
  Se  Se197  1  0.57362737  0.90788726  0.30443306  1
  Se  Se198  1  0.57393793  0.91383310  0.81608714  1
  Se  Se199  1  0.91368459  0.24362304  0.30924833  1
  Se  Se200  1  0.91732720  0.25268079  0.81021660  1
  Se  Se201  1  0.91277096  0.57568323  0.29971826  1
  Se  Se202  1  0.91856133  0.58401835  0.80385210  1
  Se  Se203  1  0.91215441  0.91494727  0.30520061  1
  Se  Se204  1  0.91354616  0.91203634  0.80856920  1
  Se  Se205  1  0.08414225  0.08403182  0.30163828  1
  Se  Se206  1  0.08554722  0.09629387  0.81078794  1
  Se  Se207  1  0.09177408  0.42066578  0.31303074  1
  Se  Se208  1  0.07803482  0.41469478  0.80153019  1
  Se  Se209  1  0.07980467  0.74607977  0.30558324  1
  Se  Se210  1  0.07305255  0.74068675  0.79298476  1
  Se  Se211  1  0.41748925  0.09051569  0.30903918  1
  Se  Se212  1  0.40998864  0.08061096  0.80444796  1
  Se  Se213  1  0.41911025  0.41472397  0.30100218  1
  Se  Se214  1  0.41398907  0.41603413  0.80429077  1
  Se  Se215  1  0.41103732  0.74668396  0.30082383  1
  Se  Se216  1  0.42055987  0.74454363  0.80514643  1
  Se  Se217  1  0.75537885  0.08561071  0.31042586  1
  Se  Se218  1  0.75410160  0.09127815  0.81374180  1
  Se  Se219  1  0.74643336  0.40854886  0.29557213  1
  Se  Se220  1  0.74731074  0.41655061  0.80671657  1
  Se  Se221  1  0.74731540  0.74442507  0.29777928  1
  Se  Se222  1  0.75812536  0.75304915  0.80470614  1
  Se  Se223  1  0.24694591  0.09504301  0.18751080  1
  Se  Se224  1  0.26398872  0.07195714  0.69879444  1
  Se  Se225  1  0.23614905  0.42644349  0.20095393  1
  Se  Se226  1  0.24950789  0.41397696  0.69718479  1
  Se  Se227  1  0.24859191  0.74978206  0.20054549  1
  Se  Se228  1  0.25806530  0.73391279  0.70024316  1
  Se  Se229  1  0.57459235  0.08919231  0.19366212  1
  Se  Se230  1  0.57688287  0.08882923  0.69431995  1
  Se  Se231  1  0.58468788  0.41180727  0.19083284  1
  Se  Se232  1  0.58743952  0.41623198  0.70087113  1
  Se  Se233  1  0.58495525  0.74118674  0.19665768  1
  Se  Se234  1  0.57895709  0.76217233  0.68794101  1
  Se  Se235  1  0.92443699  0.08271010  0.19716519  1
  Se  Se236  1  0.90877545  0.09242472  0.69208040  1
  Se  Se237  1  0.90987790  0.41921421  0.18397655  1
  Se  Se238  1  0.91672350  0.41370411  0.70077633  1
  Se  Se239  1  0.92022882  0.74346066  0.19538225  1
  Se  Se240  1  0.91942435  0.74934158  0.69321775  1
  Se  Se241  1  0.08794568  0.24665875  0.18954642  1
  Se  Se242  1  0.07972697  0.24444850  0.69234261  1
  Se  Se243  1  0.07672642  0.58072762  0.20642438  1
  Se  Se244  1  0.08054777  0.57746599  0.69698846  1
  Se  Se245  1  0.08697185  0.91861687  0.19729555  1
  Se  Se246  1  0.09347931  0.91303853  0.68652246  1
  Se  Se247  1  0.41147268  0.25170528  0.19004484  1
  Se  Se248  1  0.41264794  0.25233026  0.70121229  1
  Se  Se249  1  0.41384581  0.58121031  0.19575562  1
  Se  Se250  1  0.41940256  0.58472818  0.70049860  1
  Se  Se251  1  0.42378089  0.91159244  0.18672638  1
  Se  Se252  1  0.41095702  0.91806825  0.70546912  1
  Se  Se253  1  0.74714775  0.24530997  0.19849635  1
  Se  Se254  1  0.74400015  0.25324779  0.70127446  1
  Se  Se255  1  0.74680973  0.58059518  0.18922325  1
  Se  Se256  1  0.76127298  0.57608603  0.68718238  1
  Se  Se257  1  0.76341845  0.90818500  0.18499696  1
  Se  Se258  1  0.76111532  0.92060760  0.68678835  1
