# generated using pymatgen
data_In86Cu29Se144
_symmetry_space_group_name_H-M   'P 1'
_cell_length_a   17.58469934
_cell_length_b   17.58171003
_cell_length_c   23.43991526
_cell_angle_alpha   89.98664241
_cell_angle_beta   89.96645344
_cell_angle_gamma   89.97668041
_symmetry_Int_Tables_number   1
_chemical_formula_structural   In86Cu29Se144
_chemical_formula_sum   'In86 Cu29 Se144'
_cell_volume   7246.89510488
_cell_formula_units_Z   1
loop_
 _symmetry_equiv_pos_site_id
 _symmetry_equiv_pos_as_xyz
  1  'x, y, z'
loop_
 _atom_site_type_symbol
 _atom_site_label
 _atom_site_symmetry_multiplicity
 _atom_site_fract_x
 _atom_site_fract_y
 _atom_site_fract_z
 _atom_site_occupancy
  In  In0  1  0.01203614  0.15031983  0.12300299  1
  In  In1  1  -0.01139609  0.17856750  0.63950396  1
  In  In2  1  -0.00214749  0.51314837  0.12138231  1
  In  In3  1  -0.01849900  0.49206272  0.60825659  1
  In  In4  1  0.01485524  0.85613949  0.09973936  1
  In  In5  1  0.01543794  0.83818709  0.63222561  1
  In  In6  1  0.32438150  0.14840792  0.11281372  1
  In  In7  1  0.35141176  0.16408803  0.62279316  1
  In  In8  1  0.34702238  0.49941699  0.13366420  1
  In  In9  1  0.33611443  0.49914164  0.61367191  1
  In  In10  1  0.33562886  0.83641679  0.12583927  1
  In  In11  1  0.32489289  0.84495552  0.62554231  1
  In  In12  1  0.65653090  0.17592827  0.13070168  1
  In  In13  1  0.67142819  0.16782052  0.62063614  1
  In  In14  1  0.67150251  0.49503279  0.13157288  1
  In  In15  1  0.67550341  0.49824298  0.61994401  1
  In  In16  1  0.66807388  0.83592563  0.12519721  1
  In  In17  1  0.65971222  0.83725452  0.63609912  1
  In  In18  1  0.15930546  -0.01088644  0.37051421  1
  In  In19  1  0.15778735  0.00052174  0.88277819  1
  In  In20  1  0.17710196  0.33604652  0.37618983  1
  In  In21  1  0.15122726  0.32600552  0.86925210  1
  In  In22  1  0.17365217  0.65898921  0.38342455  1
  In  In23  1  0.16824789  0.67854548  0.87489298  1
  In  In24  1  0.50950757  0.01116804  0.36399407  1
  In  In25  1  0.50879234  -0.00669839  0.88649515  1
  In  In26  1  0.51898908  0.32039749  0.39018736  1
  In  In27  1  0.50307475  0.31825087  0.87369427  1
  In  In28  1  0.49531212  0.66732490  0.37003875  1
  In  In29  1  0.51356871  0.67117104  0.87250269  1
  In  In30  1  0.82456659  0.01354329  0.38077998  1
  In  In31  1  0.82436551  -0.00514526  0.87099135  1
  In  In32  1  0.79912069  0.34726022  0.40174398  1
  In  In33  1  0.83776215  0.34022195  0.86946556  1
  In  In34  1  0.82151467  0.66987327  0.37412346  1
  In  In35  1  0.82034779  0.67376590  0.87888460  1
  In  In36  1  -0.01390273  0.15776842  0.37510782  1
  In  In37  1  0.00080293  0.16844856  0.87044899  1
  In  In38  1  -0.00067296  0.50451787  0.38969227  1
  In  In39  1  -0.00523069  0.48256176  0.86978870  1
  In  In40  1  0.00652380  0.84279702  0.37865480  1
  In  In41  1  -0.00651329  0.83822475  0.87792002  1
  In  In42  1  0.34477148  0.16777925  0.36896884  1
  In  In43  1  0.34423525  0.14289782  0.89207276  1
  In  In44  1  0.33332530  0.50707926  0.38266907  1
  In  In45  1  0.33060622  0.50557496  0.87347817  1
  In  In46  1  0.32816651  0.82899218  0.36614948  1
  In  In47  1  0.32330995  0.85459406  0.90121935  1
  In  In48  1  0.66108862  0.16394928  0.37677550  1
  In  In49  1  0.66274282  0.16220998  0.86556105  1
  In  In50  1  0.66230747  0.50005865  0.38082516  1
  In  In51  1  0.67635168  0.50772807  0.86482861  1
  In  In52  1  0.67084383  0.83225238  0.36380833  1
  In  In53  1  0.66517135  0.83463033  0.87665680  1
  In  In54  1  0.18500044  0.01161698  0.10000086  1
  In  In55  1  0.16399363  -0.01197819  0.62701301  1
  In  In56  1  0.17623428  0.32272734  0.12557665  1
  In  In57  1  0.15199481  0.33023708  0.62699973  1
  In  In58  1  0.16781721  0.68007769  0.12656145  1
  In  In59  1  0.16489287  0.67395114  0.61402025  1
  In  In60  1  0.50198028  0.00237876  0.12402889  1
  In  In61  1  0.50837617  0.01373995  0.61929165  1
  In  In62  1  0.51148868  0.33282013  0.12746017  1
  In  In63  1  0.52987986  0.35010449  0.59853487  1
  In  In64  1  0.49160527  0.67561048  0.13807173  1
  In  In65  1  0.51596126  0.66735288  0.62599655  1
  In  In66  1  0.83966318  -0.01069121  0.12329956  1
  In  In67  1  0.82185524  0.01439033  0.63172139  1
  In  In68  1  0.81661408  0.33068777  0.12324593  1
  In  In69  1  0.82953498  0.33233716  0.61923258  1
  In  In70  1  0.82925401  0.66503333  0.12245821  1
  In  In71  1  0.83477821  0.65244124  0.62189940  1
  In  In72  1  0.16158843  0.50080758  -0.00450671  1
  In  In73  1  0.49864556  0.83491762  0.50287397  1
  In  In74  1  -0.00710774  0.67489087  0.24972681  1
  In  In75  1  -0.00266954  -0.00094374  0.24843355  1
  In  In76  1  -0.00911279  0.32953777  0.24924954  1
  In  In77  1  0.83856202  0.83207681  0.49919334  1
  In  In78  1  0.33467585  0.32714727  0.75454206  1
  In  In79  1  0.83463110  0.16481532  -0.00060297  1
  In  In80  1  0.34292883  0.33429852  0.25899978  1
  In  In81  1  -0.00610406  0.66219720  0.74478431  1
  In  In82  1  0.16804548  0.16791169  0.50165593  1
  In  In83  1  0.50603197  0.49841624  0.00724673  1
  In  In84  1  0.33382915  -0.00040315  0.75977255  1
  In  In85  1  0.33925540  0.67446032  0.75025840  1
  Cu  Cu86  1  0.33074611  -0.00570428  0.49527956  1
  Cu  Cu87  1  0.33460043  0.33723617  0.49550541  1
  Cu  Cu88  1  0.16935277  0.50398669  0.26110017  1
  Cu  Cu89  1  0.83009595  0.49433386  0.74098495  1
  Cu  Cu90  1  0.32886022  0.32047796  -0.00264849  1
  Cu  Cu91  1  0.00193032  -0.00104081  0.50501626  1
  Cu  Cu92  1  -0.01348205  0.66597618  -0.00330614  1
  Cu  Cu93  1  0.33460325  0.66949390  0.49481575  1
  Cu  Cu94  1  0.49879095  0.16367911  0.24901549  1
  Cu  Cu95  1  0.51105516  0.49414684  0.74300275  1
  Cu  Cu96  1  0.81945899  0.17197944  0.25489945  1
  Cu  Cu97  1  0.16959051  0.15911041  0.75538501  1
  Cu  Cu98  1  0.51215580  0.17196218  0.74431518  1
  Cu  Cu99  1  0.50111313  0.83783676  0.24577305  1
  Cu  Cu100  1  0.66897135  0.33716041  0.00076098  1
  Cu  Cu101  1  0.66581939  0.67278706  0.00036845  1
  Cu  Cu102  1  -0.00062482  0.33148760  0.50462318  1
  Cu  Cu103  1  0.83345086  0.83217488  0.24282906  1
  Cu  Cu104  1  0.82381942  0.49649185  0.25458553  1
  Cu  Cu105  1  0.49854686  0.83842198  0.75817181  1
  Cu  Cu106  1  0.66626730  0.00013806  -0.00040277  1
  Cu  Cu107  1  0.15874979  0.49892833  0.74182475  1
  Cu  Cu108  1  0.50857929  0.50243931  0.25704400  1
  Cu  Cu109  1  0.34086274  0.66541720  0.00949937  1
  Cu  Cu110  1  0.17497061  0.83379000  0.24578673  1
  Cu  Cu111  1  0.82829391  0.83362452  0.75538352  1
  Cu  Cu112  1  0.83427022  0.16836093  0.74923280  1
  Cu  Cu113  1  -0.00269746  0.32999529  -0.00442968  1
  Cu  Cu114  1  0.66960879  0.66374827  0.50036296  1
  Se  Se115  1  0.06696842  0.06388349  0.04677253  1
  Se  Se116  1  0.07764823  0.08486710  0.56563304  1
  Se  Se117  1  0.07766976  0.40821575  0.06059223  1
  Se  Se118  1  0.08689436  0.41571848  0.55241318  1
  Se  Se119  1  0.07787533  0.73819716  0.05158429  1
  Se  Se120  1  0.07845446  0.76012331  0.55325039  1
  Se  Se121  1  0.43116756  0.09150220  0.05258369  1
  Se  Se122  1  0.41444092  0.07712375  0.54750623  1
  Se  Se123  1  0.40627451  0.40393822  0.05761358  1
  Se  Se124  1  0.42123186  0.42127265  0.54484716  1
  Se  Se125  1  0.42332074  0.75163703  0.05871815  1
  Se  Se126  1  0.40869617  0.74395266  0.56470746  1
  Se  Se127  1  0.74277648  0.08189130  0.06288919  1
  Se  Se128  1  0.75835222  0.08891881  0.55083786  1
  Se  Se129  1  0.74973417  0.42287882  0.05278014  1
  Se  Se130  1  0.74976958  0.41328494  0.54833976  1
  Se  Se131  1  0.75134146  0.75342655  0.05477197  1
  Se  Se132  1  0.74141248  0.74958220  0.56207451  1
  Se  Se133  1  0.24160699  0.24112523  0.04916942  1
  Se  Se134  1  0.25948848  0.25858005  0.56205344  1
  Se  Se135  1  0.25699618  0.57964435  0.06222228  1
  Se  Se136  1  0.25174240  0.58737224  0.55159661  1
  Se  Se137  1  0.23133587  0.88666734  0.05656793  1
  Se  Se138  1  0.24525729  0.91694046  0.55029007  1
  Se  Se139  1  0.58482135  0.25334245  0.05186259  1
  Se  Se140  1  0.56540785  0.22332174  0.55331854  1
  Se  Se141  1  0.58916219  0.59393128  0.06574800  1
  Se  Se142  1  0.58482409  0.58191150  0.55363135  1
  Se  Se143  1  0.58501650  0.91693141  0.05545415  1
  Se  Se144  1  0.59616534  0.92340109  0.55537275  1
  Se  Se145  1  0.92418228  0.25355286  0.06407167  1
  Se  Se146  1  0.91898567  0.24480878  0.55637259  1
  Se  Se147  1  0.90846970  0.57983005  0.05075766  1
  Se  Se148  1  0.91871309  0.59356334  0.54477596  1
  Se  Se149  1  0.90746045  0.91897619  0.04275927  1
  Se  Se150  1  0.91858509  0.92247776  0.56599062  1
  Se  Se151  1  0.07615671  0.25384267  0.43863610  1
  Se  Se152  1  0.08181047  0.24603284  0.94571090  1
  Se  Se153  1  0.08667352  0.58567361  0.45177654  1
  Se  Se154  1  0.06975214  0.58936482  0.93404155  1
  Se  Se155  1  0.08702072  0.91900371  0.45165146  1
  Se  Se156  1  0.09478486  0.89577120  0.94495160  1
  Se  Se157  1  0.41317605  0.24676653  0.44583880  1
  Se  Se158  1  0.42191337  0.24543909  0.94759855  1
  Se  Se159  1  0.42429298  0.58771617  0.44739062  1
  Se  Se160  1  0.41508890  0.58704370  0.94402027  1
  Se  Se161  1  0.41453515  0.91879526  0.43485768  1
  Se  Se162  1  0.41780631  0.93121999  0.95941908  1
  Se  Se163  1  0.76169668  0.22104568  0.44793654  1
  Se  Se164  1  0.74654838  0.25566404  0.93846498  1
  Se  Se165  1  0.75367591  0.58258371  0.44655146  1
  Se  Se166  1  0.74268788  0.58343161  0.94611868  1
  Se  Se167  1  0.74087667  0.91736591  0.44243360  1
  Se  Se168  1  0.74880806  0.91654044  0.94641394  1
  Se  Se169  1  0.25222948  0.07908078  0.43639961  1
  Se  Se170  1  0.24908470  0.07016956  0.95288991  1
  Se  Se171  1  0.24709215  0.42138821  0.44811292  1
  Se  Se172  1  0.25386099  0.40613251  0.93746560  1
  Se  Se173  1  0.25219759  0.75619254  0.44443100  1
  Se  Se174  1  0.25504549  0.73983398  0.95040842  1
  Se  Se175  1  0.57123961  0.08592931  0.44478458  1
  Se  Se176  1  0.59045977  0.09014440  0.94546022  1
  Se  Se177  1  0.59395161  0.41185268  0.45456472  1
  Se  Se178  1  0.58845556  0.41458472  0.93737134  1
  Se  Se179  1  0.59168508  0.74799540  0.44102235  1
  Se  Se180  1  0.58008203  0.75423016  0.94808031  1
  Se  Se181  1  0.91673771  0.07980697  0.45236874  1
  Se  Se182  1  0.91988640  0.07596652  0.93769731  1
  Se  Se183  1  0.91558022  0.41284277  0.44969306  1
  Se  Se184  1  0.91343681  0.41642010  0.94762362  1
  Se  Se185  1  0.92594946  0.74240398  0.43711770  1
  Se  Se186  1  0.90836849  0.75325193  0.94399041  1
  Se  Se187  1  0.24113765  0.24077241  0.30412949  1
  Se  Se188  1  0.25319121  0.23339966  0.81768977  1
  Se  Se189  1  0.25642984  0.58742828  0.30812066  1
  Se  Se190  1  0.23816113  0.57807198  0.80214471  1
  Se  Se191  1  0.25113269  0.92229033  0.30022573  1
  Se  Se192  1  0.24446530  0.90578494  0.81322206  1
  Se  Se193  1  0.57938797  0.24726093  0.30555913  1
  Se  Se194  1  0.59187469  0.25833495  0.79809913  1
  Se  Se195  1  0.59065510  0.58839844  0.30838074  1
  Se  Se196  1  0.58266774  0.58427736  0.80008817  1
  Se  Se197  1  0.58657047  0.91799371  0.29961797  1
  Se  Se198  1  0.58471895  0.92261617  0.80779078  1
  Se  Se199  1  0.89990178  0.25115794  0.31515256  1
  Se  Se200  1  0.91793526  0.25211062  0.80300087  1
  Se  Se201  1  0.91208004  0.57460197  0.30960334  1
  Se  Se202  1  0.90523379  0.57455343  0.80786901  1
  Se  Se203  1  0.90551906  0.91132036  0.31102811  1
  Se  Se204  1  0.91508050  0.91614742  0.80421450  1
  Se  Se205  1  0.08669106  0.09303645  0.30693934  1
  Se  Se206  1  0.08337370  0.07794221  0.80648749  1
  Se  Se207  1  0.08257260  0.42136715  0.31126010  1
  Se  Se208  1  0.08088952  0.41268715  0.79652774  1
  Se  Se209  1  0.09173666  0.75721322  0.30855085  1
  Se  Se210  1  0.08182921  0.75355348  0.80387094  1
  Se  Se211  1  0.41131722  0.07877353  0.29644978  1
  Se  Se212  1  0.43320686  0.09185888  0.80781997  1
  Se  Se213  1  0.43157873  0.42108808  0.32056188  1
  Se  Se214  1  0.42719009  0.42602361  0.80938989  1
  Se  Se215  1  0.41902845  0.75253756  0.29992528  1
  Se  Se216  1  0.41430056  0.76496424  0.81965328  1
  Se  Se217  1  0.74235885  0.07961924  0.30421425  1
  Se  Se218  1  0.75049934  0.08231724  0.80007917  1
  Se  Se219  1  0.74523020  0.41375055  0.31138993  1
  Se  Se220  1  0.74862402  0.41314865  0.79897089  1
  Se  Se221  1  0.75196298  0.74671609  0.29584845  1
  Se  Se222  1  0.74236573  0.74893263  0.80385842  1
  Se  Se223  1  0.24127064  0.07957797  0.18694587  1
  Se  Se224  1  0.25204648  0.08977079  0.69012283  1
  Se  Se225  1  0.24392351  0.42191804  0.19681438  1
  Se  Se226  1  0.24978205  0.41992613  0.68986403  1
  Se  Se227  1  0.25834366  0.74596667  0.19727477  1
  Se  Se228  1  0.24119528  0.75763480  0.69337839  1
  Se  Se229  1  0.58530977  0.08158939  0.19695528  1
  Se  Se230  1  0.59137602  0.08217074  0.69381659  1
  Se  Se231  1  0.58413152  0.41653090  0.20006056  1
  Se  Se232  1  0.59061697  0.41198567  0.68772340  1
  Se  Se233  1  0.58894142  0.75253816  0.19773526  1
  Se  Se234  1  0.57838142  0.75149169  0.70365683  1
  Se  Se235  1  0.90408479  0.09607338  0.19335522  1
  Se  Se236  1  0.91856483  0.07860080  0.70167894  1
  Se  Se237  1  0.90782875  0.42699997  0.18900887  1
  Se  Se238  1  0.91719138  0.41421126  0.68875170  1
  Se  Se239  1  0.92045689  0.76521339  0.17986396  1
  Se  Se240  1  0.90470010  0.75799923  0.68779488  1
  Se  Se241  1  0.08834502  0.24096276  0.19462085  1
  Se  Se242  1  0.08801579  0.24803180  0.70465487  1
  Se  Se243  1  0.09080417  0.57986664  0.19619662  1
  Se  Se244  1  0.08271760  0.57729993  0.67999221  1
  Se  Se245  1  0.08735018  0.91032599  0.18942376  1
  Se  Se246  1  0.08503953  0.92352733  0.70472927  1
  Se  Se247  1  0.41851950  0.24583793  0.18868879  1
  Se  Se248  1  0.43073989  0.25547941  0.68815851  1
  Se  Se249  1  0.41880505  0.58184661  0.20609550  1
  Se  Se250  1  0.42236684  0.57512761  0.69043089  1
  Se  Se251  1  0.41680287  0.92123969  0.19371470  1
  Se  Se252  1  0.42575741  0.91655867  0.69112915  1
  Se  Se253  1  0.74113130  0.25837956  0.20007495  1
  Se  Se254  1  0.75221954  0.24952797  0.69217478  1
  Se  Se255  1  0.75151789  0.58543788  0.19676600  1
  Se  Se256  1  0.74717577  0.58458519  0.69468081  1
  Se  Se257  1  0.75063013  0.92126761  0.19495645  1
  Se  Se258  1  0.74890782  0.91924316  0.69876683  1
