# generated using pymatgen
data_In86Cu29Se144
_symmetry_space_group_name_H-M   'P 1'
_cell_length_a   17.58856614
_cell_length_b   17.59209501
_cell_length_c   23.45270699
_cell_angle_alpha   90.00028165
_cell_angle_beta   89.98260218
_cell_angle_gamma   90.04074152
_symmetry_Int_Tables_number   1
_chemical_formula_structural   In86Cu29Se144
_chemical_formula_sum   'In86 Cu29 Se144'
_cell_volume   7256.72801415
_cell_formula_units_Z   1
loop_
 _symmetry_equiv_pos_site_id
 _symmetry_equiv_pos_as_xyz
  1  'x, y, z'
loop_
 _atom_site_type_symbol
 _atom_site_label
 _atom_site_symmetry_multiplicity
 _atom_site_fract_x
 _atom_site_fract_y
 _atom_site_fract_z
 _atom_site_occupancy
  In  In0  1  0.01170961  0.15577295  0.13672471  1
  In  In1  1  0.00144506  0.16290131  0.62372758  1
  In  In2  1  0.00072382  0.48234447  0.13148104  1
  In  In3  1  0.00134038  0.50495314  0.61382924  1
  In  In4  1  0.01808133  0.85401510  0.10640794  1
  In  In5  1  0.00278371  0.82703226  0.61483895  1
  In  In6  1  0.33010534  0.16319939  0.11910324  1
  In  In7  1  0.34205242  0.14908480  0.62632474  1
  In  In8  1  0.33950592  0.50844684  0.12142888  1
  In  In9  1  0.34334686  0.50561017  0.62130422  1
  In  In10  1  0.33387572  0.83575124  0.12371661  1
  In  In11  1  0.32794787  0.83681417  0.63108536  1
  In  In12  1  0.65959477  0.18034006  0.12253994  1
  In  In13  1  0.66236383  0.18225014  0.62893442  1
  In  In14  1  0.66027258  0.49827163  0.12425387  1
  In  In15  1  0.66451954  0.50379578  0.62518823  1
  In  In16  1  0.66925730  0.83499629  0.11293386  1
  In  In17  1  0.66322450  0.81880841  0.62607108  1
  In  In18  1  0.16601627  -0.00380612  0.36750578  1
  In  In19  1  0.18581188  -0.02108282  0.89367211  1
  In  In20  1  0.16664734  0.34624611  0.37382016  1
  In  In21  1  0.16558974  0.33373976  0.88695947  1
  In  In22  1  0.17483680  0.66245390  0.37699540  1
  In  In23  1  0.17179056  0.66014371  0.88128491  1
  In  In24  1  0.49577116  0.01733416  0.37486890  1
  In  In25  1  0.48398430  0.00771324  0.87912776  1
  In  In26  1  0.51016746  0.32611144  0.37699252  1
  In  In27  1  0.51718548  0.32808950  0.88942535  1
  In  In28  1  0.48199367  0.66936876  0.37319223  1
  In  In29  1  0.49805145  0.66511298  0.87554840  1
  In  In30  1  0.83812467  -0.01073380  0.37408361  1
  In  In31  1  0.83194598  -0.00816531  0.88045221  1
  In  In32  1  0.83679590  0.34665354  0.35991512  1
  In  In33  1  0.81070524  0.34443754  0.87799404  1
  In  In34  1  0.83325651  0.66554692  0.38167220  1
  In  In35  1  0.83096138  0.67001552  0.87141292  1
  In  In36  1  0.00000075  0.16525515  0.36467395  1
  In  In37  1  0.00455269  0.16540576  0.88393028  1
  In  In38  1  0.00133645  0.50036029  0.37447636  1
  In  In39  1  -0.00196311  0.50492745  0.87824199  1
  In  In40  1  -0.00053209  0.83694497  0.37418941  1
  In  In41  1  0.00433681  0.83277788  0.88886602  1
  In  In42  1  0.35102784  0.16067714  0.37237090  1
  In  In43  1  0.34919832  0.15632173  0.88088316  1
  In  In44  1  0.32468428  0.50840813  0.38175917  1
  In  In45  1  0.32963689  0.50622129  0.87859355  1
  In  In46  1  0.32630780  0.82941863  0.36655046  1
  In  In47  1  0.33478428  0.83052882  0.87563117  1
  In  In48  1  0.64860582  0.18236316  0.37480728  1
  In  In49  1  0.64365662  0.17509888  0.87746928  1
  In  In50  1  0.67315465  0.49078204  0.38056113  1
  In  In51  1  0.65199132  0.48393187  0.85976710  1
  In  In52  1  0.67733437  0.83951790  0.37847278  1
  In  In53  1  0.67183050  0.82075567  0.87880956  1
  In  In54  1  0.16869099  0.00488638  0.12296514  1
  In  In55  1  0.19268504  -0.00947846  0.62511261  1
  In  In56  1  0.16241762  0.32353520  0.12190773  1
  In  In57  1  0.15676334  0.33588095  0.62125953  1
  In  In58  1  0.17567706  0.67865149  0.11858698  1
  In  In59  1  0.17479241  0.67628727  0.62055006  1
  In  In60  1  0.49704933  -0.00409270  0.11878145  1
  In  In61  1  0.48295830  0.00264343  0.62342243  1
  In  In62  1  0.50418578  0.33533724  0.11472710  1
  In  In63  1  0.50599052  0.33960062  0.61752559  1
  In  In64  1  0.49057892  0.66180523  0.12016433  1
  In  In65  1  0.50999896  0.65646870  0.63515770  1
  In  In66  1  0.84430187  -0.00158562  0.12425499  1
  In  In67  1  0.84707045  -0.00300526  0.62298531  1
  In  In68  1  0.83145477  0.34085236  0.14021329  1
  In  In69  1  0.81447726  0.34063829  0.63019567  1
  In  In70  1  0.82528977  0.67044270  0.12657344  1
  In  In71  1  0.82332051  0.65727467  0.61323753  1
  In  In72  1  0.49934031  0.83311448  0.49973139  1
  In  In73  1  0.83096079  0.50152052  0.00454479  1
  In  In74  1  0.17426425  0.16868427  0.49896592  1
  In  In75  1  0.66226377  0.65943830  0.24348471  1
  In  In76  1  0.66465163  0.00625469  0.25461797  1
  In  In77  1  -0.00541368  0.33176826  0.74511268  1
  In  In78  1  0.65856247  -0.00061234  0.75319077  1
  In  In79  1  0.83223309  0.17100766  0.50500743  1
  In  In80  1  0.33333937  0.33235859  0.25016259  1
  In  In81  1  0.00422682  0.00194033  0.75073682  1
  In  In82  1  -0.00183997  0.66488468  0.75508325  1
  In  In83  1  0.33895407  0.33384184  0.75025216  1
  In  In84  1  -0.00060739  0.66722095  0.25185822  1
  In  In85  1  0.83662850  0.16139287  0.00498868  1
  Cu  Cu86  1  0.66511026  0.33778276  0.50069326  1
  Cu  Cu87  1  0.16680183  0.16518680  0.24588811  1
  Cu  Cu88  1  0.00736497  -0.00664736  0.49694438  1
  Cu  Cu89  1  0.82349644  0.17602285  0.75937562  1
  Cu  Cu90  1  0.00098289  0.32695869  0.00823991  1
  Cu  Cu91  1  0.83086887  0.82713694  0.74887453  1
  Cu  Cu92  1  0.17173759  0.83908287  0.24017238  1
  Cu  Cu93  1  0.00325737  0.66345185  -0.00092454  1
  Cu  Cu94  1  0.49646796  0.49823794  0.24687262  1
  Cu  Cu95  1  0.33373952  0.67117776  -0.00099229  1
  Cu  Cu96  1  0.83198107  0.16641547  0.24688468  1
  Cu  Cu97  1  0.49769552  0.50324761  0.74913459  1
  Cu  Cu98  1  0.17460424  0.83593635  0.75204974  1
  Cu  Cu99  1  0.33543027  0.66527255  0.50254592  1
  Cu  Cu100  1  0.49391728  0.83000226  0.75276933  1
  Cu  Cu101  1  0.66204177  0.66254831  -0.00113860  1
  Cu  Cu102  1  0.66125456  -0.00410234  -0.00530475  1
  Cu  Cu103  1  0.17699964  0.15843024  0.75785927  1
  Cu  Cu104  1  0.66873367  0.00033938  0.49613857  1
  Cu  Cu105  1  0.33141068  -0.00141649  0.00193434  1
  Cu  Cu106  1  -0.00245887  0.34229035  0.49594775  1
  Cu  Cu107  1  0.00411987  0.66918644  0.49395835  1
  Cu  Cu108  1  0.49466328  0.83729679  0.24684175  1
  Cu  Cu109  1  0.33653288  0.33505058  0.49500734  1
  Cu  Cu110  1  0.16709309  0.50205558  0.25342058  1
  Cu  Cu111  1  0.84003354  0.83322733  0.24807974  1
  Cu  Cu112  1  0.66558250  0.66397721  0.50456424  1
  Cu  Cu113  1  0.16937450  0.50311585  0.75363203  1
  Cu  Cu114  1  0.33153297  0.34039594  0.00128391  1
  Se  Se115  1  0.08141864  0.08701256  0.05694934  1
  Se  Se116  1  0.08469785  0.07312208  0.55964251  1
  Se  Se117  1  0.08439480  0.41640401  0.05552421  1
  Se  Se118  1  0.08670167  0.42045338  0.54847306  1
  Se  Se119  1  0.08766549  0.75057579  0.04748339  1
  Se  Se120  1  0.09009737  0.75013500  0.54766246  1
  Se  Se121  1  0.41738453  0.08348902  0.05123995  1
  Se  Se122  1  0.41595675  0.08247509  0.54644994  1
  Se  Se123  1  0.41741716  0.42272203  0.05252419  1
  Se  Se124  1  0.41781315  0.41906902  0.55101352  1
  Se  Se125  1  0.41740984  0.75391155  0.05318223  1
  Se  Se126  1  0.41740101  0.74224497  0.56445821  1
  Se  Se127  1  0.73876971  0.07278451  0.06148840  1
  Se  Se128  1  0.74299573  0.07796716  0.56445901  1
  Se  Se129  1  0.74508556  0.40424504  0.05969618  1
  Se  Se130  1  0.74869319  0.42154309  0.55346371  1
  Se  Se131  1  0.75048081  0.74396752  0.04956843  1
  Se  Se132  1  0.74877756  0.75533316  0.54988412  1
  Se  Se133  1  0.25035981  0.25113679  0.05194624  1
  Se  Se134  1  0.26140978  0.25772557  0.56303078  1
  Se  Se135  1  0.25137715  0.58579557  0.05289903  1
  Se  Se136  1  0.25018974  0.58198859  0.55562758  1
  Se  Se137  1  0.24790302  0.91576335  0.05518802  1
  Se  Se138  1  0.25724138  0.90784959  0.55047826  1
  Se  Se139  1  0.57805331  0.24503051  0.04634452  1
  Se  Se140  1  0.58383046  0.24799469  0.55007913  1
  Se  Se141  1  0.58088529  0.58159528  0.05540250  1
  Se  Se142  1  0.57811684  0.58244317  0.55431206  1
  Se  Se143  1  0.57804953  0.91232408  0.04885054  1
  Se  Se144  1  0.58990409  0.92329959  0.56138335  1
  Se  Se145  1  0.91823004  0.25320017  0.06993989  1
  Se  Se146  1  0.92439667  0.26421346  0.56329263  1
  Se  Se147  1  0.92627494  0.58752128  0.06482627  1
  Se  Se148  1  0.91806990  0.58655771  0.54644966  1
  Se  Se149  1  0.89677906  0.89930823  0.05494431  1
  Se  Se150  1  0.91898074  0.91457050  0.55012990  1
  Se  Se151  1  0.07528830  0.25397301  0.44084916  1
  Se  Se152  1  0.08491371  0.24634967  0.95339590  1
  Se  Se153  1  0.08531783  0.58240309  0.44192388  1
  Se  Se154  1  0.08479287  0.57720281  0.94774065  1
  Se  Se155  1  0.09024170  0.91388912  0.44125056  1
  Se  Se156  1  0.07857386  0.92183134  0.95418416  1
  Se  Se157  1  0.41872913  0.24936782  0.44462532  1
  Se  Se158  1  0.41376583  0.25652867  0.94721223  1
  Se  Se159  1  0.41870827  0.58265481  0.44881590  1
  Se  Se160  1  0.41631188  0.58446929  0.94733117  1
  Se  Se161  1  0.41363608  0.91816166  0.43537542  1
  Se  Se162  1  0.41407090  0.91454302  0.94719680  1
  Se  Se163  1  0.74897989  0.25926235  0.44026281  1
  Se  Se164  1  0.74250830  0.24938392  0.94716579  1
  Se  Se165  1  0.74828849  0.58278590  0.44720762  1
  Se  Se166  1  0.74331443  0.58329623  0.93822584  1
  Se  Se167  1  0.75758822  0.91743809  0.45044307  1
  Se  Se168  1  0.74816921  0.91120822  0.94706843  1
  Se  Se169  1  0.25724130  0.07741829  0.43791929  1
  Se  Se170  1  0.25253464  0.08872813  0.94868515  1
  Se  Se171  1  0.24696824  0.41757591  0.44886889  1
  Se  Se172  1  0.24725932  0.42387760  0.94871146  1
  Se  Se173  1  0.25699838  0.74802387  0.44421188  1
  Se  Se174  1  0.24759478  0.75276941  0.94611512  1
  Se  Se175  1  0.58722519  0.08568105  0.44555411  1
  Se  Se176  1  0.57708340  0.08228632  0.94678218  1
  Se  Se177  1  0.57871271  0.41848442  0.44719506  1
  Se  Se178  1  0.59193075  0.42625330  0.94902942  1
  Se  Se179  1  0.59013187  0.74208068  0.43763692  1
  Se  Se180  1  0.57973880  0.74822280  0.94649701  1
  Se  Se181  1  0.92476194  0.08126821  0.44397946  1
  Se  Se182  1  0.92649346  0.06788664  0.94774705  1
  Se  Se183  1  0.91179560  0.41794714  0.43973762  1
  Se  Se184  1  0.92078050  0.40473177  0.94486293  1
  Se  Se185  1  0.91824390  0.75322332  0.44313044  1
  Se  Se186  1  0.91574388  0.74079644  0.94481465  1
  Se  Se187  1  0.24329696  0.24219190  0.31260416  1
  Se  Se188  1  0.24786250  0.24899187  0.81464080  1
  Se  Se189  1  0.25381835  0.58487348  0.30262100  1
  Se  Se190  1  0.25119895  0.58725679  0.80506996  1
  Se  Se191  1  0.25365646  0.92039259  0.29748675  1
  Se  Se192  1  0.25425352  0.91982787  0.80709438  1
  Se  Se193  1  0.57384372  0.24929598  0.29605458  1
  Se  Se194  1  0.57945567  0.26010728  0.80369127  1
  Se  Se195  1  0.57396495  0.57861156  0.31078723  1
  Se  Se196  1  0.58153963  0.58794706  0.80214358  1
  Se  Se197  1  0.57662548  0.90802754  0.31198275  1
  Se  Se198  1  0.57474325  0.90825982  0.81550356  1
  Se  Se199  1  0.91653344  0.25030976  0.30011443  1
  Se  Se200  1  0.91167583  0.24851877  0.81750184  1
  Se  Se201  1  0.90437108  0.57850747  0.30673570  1
  Se  Se202  1  0.90449034  0.56837479  0.80515758  1
  Se  Se203  1  0.92206877  0.91827995  0.30046028  1
  Se  Se204  1  0.91401646  0.90576681  0.80751324  1
  Se  Se205  1  0.08330735  0.08064141  0.29985880  1
  Se  Se206  1  0.09328181  0.08208246  0.81678054  1
  Se  Se207  1  0.08097993  0.41820701  0.30206474  1
  Se  Se208  1  0.08717464  0.41919440  0.80812250  1
  Se  Se209  1  0.09598299  0.75794360  0.30545083  1
  Se  Se210  1  0.08936747  0.75877813  0.81090080  1
  Se  Se211  1  0.41779254  0.08063191  0.29581622  1
  Se  Se212  1  0.42115477  0.08831442  0.80051226  1
  Se  Se213  1  0.41813604  0.42329226  0.31330561  1
  Se  Se214  1  0.42365965  0.42219380  0.81371467  1
  Se  Se215  1  0.41266513  0.74950234  0.29717274  1
  Se  Se216  1  0.41210962  0.74483459  0.80553224  1
  Se  Se217  1  0.75623303  0.09383011  0.31700057  1
  Se  Se218  1  0.75106861  0.08723858  0.81649438  1
  Se  Se219  1  0.72846030  0.40640848  0.30111029  1
  Se  Se220  1  0.75377056  0.41960393  0.79628195  1
  Se  Se221  1  0.75497351  0.75290998  0.30407785  1
  Se  Se222  1  0.74574112  0.74572886  0.80024433  1
  Se  Se223  1  0.25276281  0.08468143  0.19395460  1
  Se  Se224  1  0.25643109  0.07847294  0.70002832  1
  Se  Se225  1  0.24490314  0.42272505  0.18918741  1
  Se  Se226  1  0.24263622  0.42054361  0.69052076  1
  Se  Se227  1  0.25505990  0.74926896  0.19485012  1
  Se  Se228  1  0.25180965  0.74633194  0.69929519  1
  Se  Se229  1  0.57733979  0.08780104  0.18926575  1
  Se  Se230  1  0.57497065  0.08827361  0.69011610  1
  Se  Se231  1  0.57716246  0.41605711  0.19230235  1
  Se  Se232  1  0.57902682  0.42021356  0.69283665  1
  Se  Se233  1  0.57901635  0.75956770  0.18771018  1
  Se  Se234  1  0.58323568  0.75016467  0.70226993  1
  Se  Se235  1  0.91554676  0.07857381  0.19974107  1
  Se  Se236  1  0.90494590  0.09756911  0.69859877  1
  Se  Se237  1  0.91776169  0.41876174  0.20700332  1
  Se  Se238  1  0.91233802  0.42901933  0.68782153  1
  Se  Se239  1  0.91978176  0.75833865  0.18524558  1
  Se  Se240  1  0.91383770  0.75160470  0.68781685  1
  Se  Se241  1  0.08300296  0.25532564  0.20048227  1
  Se  Se242  1  0.09537964  0.23532393  0.69608539  1
  Se  Se243  1  0.09123265  0.58234641  0.18874921  1
  Se  Se244  1  0.08832110  0.57974420  0.69082723  1
  Se  Se245  1  0.08251883  0.92048749  0.19179058  1
  Se  Se246  1  0.09004271  0.90889898  0.68941878  1
  Se  Se247  1  0.41999647  0.24825083  0.18623508  1
  Se  Se248  1  0.42514917  0.24677168  0.68713705  1
  Se  Se249  1  0.41487247  0.58638914  0.19765024  1
  Se  Se250  1  0.41026152  0.58581082  0.69956716  1
  Se  Se251  1  0.41501344  0.92151051  0.19290991  1
  Se  Se252  1  0.41658134  0.91629817  0.69807899  1
  Se  Se253  1  0.74501086  0.24771976  0.19739798  1
  Se  Se254  1  0.74279286  0.25638898  0.70336842  1
  Se  Se255  1  0.76077856  0.56842099  0.19370660  1
  Se  Se256  1  0.74308556  0.59471734  0.69064397  1
  Se  Se257  1  0.74981435  0.91080392  0.19362521  1
  Se  Se258  1  0.75595365  0.91495190  0.69113452  1
