# generated using pymatgen
data_In86Cu29Se144
_symmetry_space_group_name_H-M   'P 1'
_cell_length_a   17.55636073
_cell_length_b   17.55334458
_cell_length_c   23.41457196
_cell_angle_alpha   90.00606540
_cell_angle_beta   90.00097797
_cell_angle_gamma   89.98147216
_symmetry_Int_Tables_number   1
_chemical_formula_structural   In86Cu29Se144
_chemical_formula_sum   'In86 Cu29 Se144'
_cell_volume   7215.73494002
_cell_formula_units_Z   1
loop_
 _symmetry_equiv_pos_site_id
 _symmetry_equiv_pos_as_xyz
  1  'x, y, z'
loop_
 _atom_site_type_symbol
 _atom_site_label
 _atom_site_symmetry_multiplicity
 _atom_site_fract_x
 _atom_site_fract_y
 _atom_site_fract_z
 _atom_site_occupancy
  In  In0  1  -0.00464490  0.16782135  0.12437657  1
  In  In1  1  -0.01196800  0.17192027  0.63309240  1
  In  In2  1  -0.01326357  0.49324691  0.12353547  1
  In  In3  1  -0.00210672  0.49418995  0.63164609  1
  In  In4  1  0.01448349  0.84719728  0.10856084  1
  In  In5  1  -0.00777165  0.84413351  0.65537597  1
  In  In6  1  0.31146614  0.15574904  0.12647609  1
  In  In7  1  0.33592775  0.15412239  0.62206052  1
  In  In8  1  0.34831613  0.50223064  0.13032212  1
  In  In9  1  0.34782155  0.50782746  0.62093794  1
  In  In10  1  0.33039615  0.83558879  0.12587380  1
  In  In11  1  0.34129794  0.82355166  0.64210304  1
  In  In12  1  0.68328134  0.14692798  0.13443651  1
  In  In13  1  0.68199010  0.17006903  0.61670699  1
  In  In14  1  0.65947992  0.49821187  0.13056175  1
  In  In15  1  0.65616711  0.50508694  0.62943597  1
  In  In16  1  0.68274325  0.86390591  0.09564329  1
  In  In17  1  0.65581720  0.83411419  0.62532399  1
  In  In18  1  0.16819856  0.00592637  0.35693563  1
  In  In19  1  0.16522614  -0.00470727  0.87627364  1
  In  In20  1  0.15640772  0.32704130  0.36534505  1
  In  In21  1  0.14689849  0.32435755  0.87539147  1
  In  In22  1  0.17427850  0.64928395  0.37311971  1
  In  In23  1  0.17946064  0.69860874  0.84988782  1
  In  In24  1  0.50243663  -0.00390324  0.37249983  1
  In  In25  1  0.48339790  0.00032028  0.87429578  1
  In  In26  1  0.51064473  0.31915974  0.38332449  1
  In  In27  1  0.51564831  0.32603612  0.87011925  1
  In  In28  1  0.49463033  0.68642133  0.39100788  1
  In  In29  1  0.51215584  0.68078577  0.86300626  1
  In  In30  1  0.84714612  0.01494250  0.36593370  1
  In  In31  1  0.84738523  -0.01921789  0.89112844  1
  In  In32  1  0.82603796  0.32815148  0.37429197  1
  In  In33  1  0.83442524  0.33085590  0.87549732  1
  In  In34  1  0.82412756  0.66416805  0.37914720  1
  In  In35  1  0.84905946  0.69463633  0.84933093  1
  In  In36  1  -0.00455143  0.16341536  0.37213901  1
  In  In37  1  0.00246628  0.16633004  0.88114737  1
  In  In38  1  0.00767209  0.49341273  0.37633729  1
  In  In39  1  -0.00135088  0.49591757  0.86972571  1
  In  In40  1  -0.01058054  0.84900596  0.37443315  1
  In  In41  1  -0.00059142  0.84239999  0.87088337  1
  In  In42  1  0.34248717  0.16579006  0.37282298  1
  In  In43  1  0.32979118  0.14125751  0.87170049  1
  In  In44  1  0.33454827  0.51529926  0.37324646  1
  In  In45  1  0.32072291  0.51644067  0.87277054  1
  In  In46  1  0.34492836  0.84038981  0.36581762  1
  In  In47  1  0.33184403  0.83973568  0.87407552  1
  In  In48  1  0.66626625  0.16653383  0.37260355  1
  In  In49  1  0.67024286  0.17616667  0.87327231  1
  In  In50  1  0.66799119  0.49209557  0.38039260  1
  In  In51  1  0.67247890  0.50174829  0.86719594  1
  In  In52  1  0.65547642  0.83280344  0.37606694  1
  In  In53  1  0.67258119  0.83081045  0.88316704  1
  In  In54  1  0.16347757  0.00252804  0.13088500  1
  In  In55  1  0.17178655  -0.00794347  0.64409002  1
  In  In56  1  0.14991664  0.30938302  0.11549990  1
  In  In57  1  0.15396319  0.32458176  0.62900690  1
  In  In58  1  0.16783515  0.68242877  0.11809573  1
  In  In59  1  0.16200709  0.67865239  0.64148285  1
  In  In60  1  0.50592268  -0.01265069  0.13024022  1
  In  In61  1  0.50247569  -0.00792894  0.61562761  1
  In  In62  1  0.50703468  0.34073037  0.13209246  1
  In  In63  1  0.51038041  0.34395854  0.61444999  1
  In  In64  1  0.48881814  0.67559878  0.12930952  1
  In  In65  1  0.50030973  0.66604324  0.62624116  1
  In  In66  1  0.83174369  0.00954802  0.11731642  1
  In  In67  1  0.83074558  0.00759297  0.62858210  1
  In  In68  1  0.85478479  0.30967640  0.13867150  1
  In  In69  1  0.84450184  0.31648462  0.62923860  1
  In  In70  1  0.82574563  0.67361984  0.11971307  1
  In  In71  1  0.82817345  0.67344899  0.64479795  1
  In  In72  1  0.33266535  0.33029981  0.24761958  1
  In  In73  1  0.66206847  0.67278114  0.25251198  1
  In  In74  1  0.16625557  0.16307735  0.49615094  1
  In  In75  1  0.67420085  -0.00436795  0.75154973  1
  In  In76  1  0.17002712  0.83232830  0.50927113  1
  In  In77  1  0.33512579  0.34000368  0.74540413  1
  In  In78  1  0.50082979  0.16381998  0.00163535  1
  In  In79  1  0.82686756  0.83901819  0.51140164  1
  In  In80  1  0.82412336  0.49569976  0.49760953  1
  In  In81  1  0.16264816  0.50683358  -0.00400231  1
  In  In82  1  0.82898389  0.50135845  -0.00619197  1
  In  In83  1  0.17199969  0.49477042  0.50965797  1
  In  In84  1  0.01018353  0.67255331  0.24636517  1
  In  In85  1  0.50155733  0.50696459  0.00431619  1
  Cu  Cu86  1  0.50313909  0.49922743  0.25540160  1
  Cu  Cu87  1  0.16162425  0.16472148  0.75394966  1
  Cu  Cu88  1  0.82890798  0.16775886  0.24894528  1
  Cu  Cu89  1  0.33282686  0.33440587  0.49496246  1
  Cu  Cu90  1  0.16997198  0.82872106  0.24449753  1
  Cu  Cu91  1  0.67007272  0.00337387  0.49426247  1
  Cu  Cu92  1  0.49594413  0.50118536  0.74441062  1
  Cu  Cu93  1  0.00778863  0.00673462  0.50273942  1
  Cu  Cu94  1  0.32295530  -0.00646806  0.00173202  1
  Cu  Cu95  1  0.66699424  0.32956316  0.50074082  1
  Cu  Cu96  1  0.67725384  0.33103027  0.00521409  1
  Cu  Cu97  1  0.00048006  0.00132578  -0.00024558  1
  Cu  Cu98  1  0.33110160  0.67982855  -0.00386164  1
  Cu  Cu99  1  0.50127204  0.16263372  0.25437460  1
  Cu  Cu100  1  0.49557662  0.83598305  0.74775827  1
  Cu  Cu101  1  -0.00083439  0.67168067  -0.01711987  1
  Cu  Cu102  1  0.84181794  0.16065186  0.75521562  1
  Cu  Cu103  1  0.83619076  0.84644884  0.23891233  1
  Cu  Cu104  1  0.50819078  0.16744959  0.74514914  1
  Cu  Cu105  1  0.34590837  -0.00748804  0.49872757  1
  Cu  Cu106  1  0.83581593  0.49243565  0.25437748  1
  Cu  Cu107  1  -0.00772213  0.66779893  0.51148127  1
  Cu  Cu108  1  0.32669515  0.32170274  -0.00299546  1
  Cu  Cu109  1  0.16488199  0.50179270  0.75323371  1
  Cu  Cu110  1  0.66844098  0.67958429  -0.00874383  1
  Cu  Cu111  1  0.17118359  0.49552053  0.24777940  1
  Cu  Cu112  1  0.82374822  0.48410668  0.74684304  1
  Cu  Cu113  1  0.33876235  0.67698181  0.50264093  1
  Cu  Cu114  1  0.50324376  0.83024179  0.24911088  1
  Se  Se115  1  0.08056410  0.08058923  0.05896196  1
  Se  Se116  1  0.08800425  0.07764987  0.56857780  1
  Se  Se117  1  0.07332870  0.41345332  0.05322896  1
  Se  Se118  1  0.07008966  0.40427745  0.55473869  1
  Se  Se119  1  0.08392632  0.74901265  0.04271133  1
  Se  Se120  1  0.06787960  0.75327227  0.56976587  1
  Se  Se121  1  0.40740826  0.07484387  0.06096693  1
  Se  Se122  1  0.42317938  0.08429190  0.55002286  1
  Se  Se123  1  0.40960899  0.40377405  0.05527052  1
  Se  Se124  1  0.41437643  0.41809208  0.54943478  1
  Se  Se125  1  0.41607816  0.75567739  0.05443053  1
  Se  Se126  1  0.41784669  0.75838112  0.56071816  1
  Se  Se127  1  0.74170360  0.08369615  0.04738685  1
  Se  Se128  1  0.75859131  0.07936831  0.54900221  1
  Se  Se129  1  0.75091310  0.41562348  0.06670739  1
  Se  Se130  1  0.74488608  0.40616345  0.56599937  1
  Se  Se131  1  0.75871933  0.75616789  0.04423307  1
  Se  Se132  1  0.74287138  0.73709345  0.56299158  1
  Se  Se133  1  0.24489358  0.23909759  0.04908657  1
  Se  Se134  1  0.25436020  0.25801969  0.55851479  1
  Se  Se135  1  0.26390816  0.58772307  0.05742591  1
  Se  Se136  1  0.25150087  0.60157057  0.56224509  1
  Se  Se137  1  0.24044352  0.91420185  0.05969397  1
  Se  Se138  1  0.26173451  0.92431987  0.56530049  1
  Se  Se139  1  0.58923515  0.25582542  0.06312904  1
  Se  Se140  1  0.58389014  0.24382104  0.55343586  1
  Se  Se141  1  0.59593738  0.59917687  0.05973343  1
  Se  Se142  1  0.56683241  0.57065452  0.55773665  1
  Se  Se143  1  0.56558097  0.91774914  0.04457361  1
  Se  Se144  1  0.59085176  0.91560143  0.54688810  1
  Se  Se145  1  0.91329262  0.24762889  0.05171139  1
  Se  Se146  1  0.91575252  0.23872349  0.55232735  1
  Se  Se147  1  0.92511511  0.59598602  0.05180229  1
  Se  Se148  1  0.91006766  0.58514064  0.56515229  1
  Se  Se149  1  0.91198613  0.91834207  0.05002645  1
  Se  Se150  1  0.93175656  0.92123725  0.56452629  1
  Se  Se151  1  0.07460289  0.25700992  0.44358600  1
  Se  Se152  1  0.08869993  0.24178752  0.95293626  1
  Se  Se153  1  0.07635708  0.58951042  0.45036773  1
  Se  Se154  1  0.08596461  0.59509013  0.92630664  1
  Se  Se155  1  0.08624880  0.92399825  0.44249630  1
  Se  Se156  1  0.08171105  0.91424581  0.94657322  1
  Se  Se157  1  0.41567696  0.24443253  0.44797446  1
  Se  Se158  1  0.41300635  0.25151114  0.93424868  1
  Se  Se159  1  0.41465228  0.58605962  0.44871481  1
  Se  Se160  1  0.41390021  0.59592740  0.93948869  1
  Se  Se161  1  0.42519302  0.90761333  0.44399486  1
  Se  Se162  1  0.41271201  0.91689725  0.94900891  1
  Se  Se163  1  0.74840648  0.24637600  0.44580625  1
  Se  Se164  1  0.75420460  0.24861541  0.94729549  1
  Se  Se165  1  0.73060854  0.59637273  0.45001377  1
  Se  Se166  1  0.74758544  0.59663684  0.93352498  1
  Se  Se167  1  0.75450687  0.92388529  0.43515954  1
  Se  Se168  1  0.73957547  0.92340888  0.95248379  1
  Se  Se169  1  0.25758169  0.06809005  0.43983420  1
  Se  Se170  1  0.24439570  0.08175633  0.94888629  1
  Se  Se171  1  0.25117791  0.41054030  0.43361014  1
  Se  Se172  1  0.25440250  0.41246962  0.93842108  1
  Se  Se173  1  0.25332992  0.74657797  0.43825320  1
  Se  Se174  1  0.24279125  0.75553261  0.94054104  1
  Se  Se175  1  0.58235735  0.08311576  0.44058327  1
  Se  Se176  1  0.58549545  0.07945530  0.93464921  1
  Se  Se177  1  0.58221381  0.41463132  0.44973111  1
  Se  Se178  1  0.59283687  0.41228116  0.94646965  1
  Se  Se179  1  0.59191464  0.75436220  0.45461314  1
  Se  Se180  1  0.57256679  0.75600483  0.94645942  1
  Se  Se181  1  0.91997802  0.08322670  0.44803614  1
  Se  Se182  1  0.91438740  0.08631842  0.94979012  1
  Se  Se183  1  0.92188762  0.40891221  0.44320936  1
  Se  Se184  1  0.92747866  0.40880774  0.94657127  1
  Se  Se185  1  0.91906920  0.74780883  0.44524762  1
  Se  Se186  1  0.90986763  0.75720843  0.93807228  1
  Se  Se187  1  0.24223035  0.23569646  0.30383790  1
  Se  Se188  1  0.24938546  0.24779271  0.80958515  1
  Se  Se189  1  0.25485998  0.58312733  0.29448534  1
  Se  Se190  1  0.25284587  0.59211509  0.79352532  1
  Se  Se191  1  0.25326345  0.91353329  0.29841310  1
  Se  Se192  1  0.26202417  0.93353155  0.80652584  1
  Se  Se193  1  0.58382769  0.25128498  0.30232221  1
  Se  Se194  1  0.59340502  0.25037261  0.79546580  1
  Se  Se195  1  0.57724495  0.58350785  0.31733479  1
  Se  Se196  1  0.58189433  0.57964424  0.80161524  1
  Se  Se197  1  0.58668904  0.91545273  0.30093087  1
  Se  Se198  1  0.57623783  0.91266058  0.81092851  1
  Se  Se199  1  0.91226382  0.24997296  0.30527833  1
  Se  Se200  1  0.92087307  0.24846536  0.80901500  1
  Se  Se201  1  0.91486294  0.58314807  0.30974087  1
  Se  Se202  1  0.90137700  0.56758289  0.80659703  1
  Se  Se203  1  0.92141458  0.92484026  0.29543628  1
  Se  Se204  1  0.90649997  0.91685210  0.80403763  1
  Se  Se205  1  0.06777206  0.07751449  0.30036907  1
  Se  Se206  1  0.08056168  0.08203770  0.80959874  1
  Se  Se207  1  0.08099292  0.41828343  0.29858824  1
  Se  Se208  1  0.08276353  0.41289421  0.80111183  1
  Se  Se209  1  0.09305886  0.75799319  0.31698997  1
  Se  Se210  1  0.05228770  0.73398777  0.80315872  1
  Se  Se211  1  0.41599609  0.07779847  0.30357390  1
  Se  Se212  1  0.42193085  0.08584521  0.79574478  1
  Se  Se213  1  0.42121755  0.41546568  0.31336559  1
  Se  Se214  1  0.42195303  0.42556054  0.81383281  1
  Se  Se215  1  0.42343852  0.74415968  0.30377242  1
  Se  Se216  1  0.41199712  0.75359702  0.80279037  1
  Se  Se217  1  0.74644895  0.08243714  0.30233998  1
  Se  Se218  1  0.76105310  0.08229196  0.81548296  1
  Se  Se219  1  0.74572973  0.41546142  0.30617506  1
  Se  Se220  1  0.74386295  0.40270046  0.80458920  1
  Se  Se221  1  0.76358388  0.76397305  0.30546664  1
  Se  Se222  1  0.72588406  0.74333156  0.80323784  1
  Se  Se223  1  0.25089203  0.07356331  0.20394281  1
  Se  Se224  1  0.25370162  0.09129579  0.70031237  1
  Se  Se225  1  0.24412411  0.41499694  0.18097651  1
  Se  Se226  1  0.24197340  0.42794788  0.68415209  1
  Se  Se227  1  0.25415826  0.74294033  0.19529290  1
  Se  Se228  1  0.23498501  0.77077962  0.70669143  1
  Se  Se229  1  0.58149360  0.07926720  0.19685101  1
  Se  Se230  1  0.58816904  0.08428088  0.68565169  1
  Se  Se231  1  0.58869777  0.41595836  0.20549555  1
  Se  Se232  1  0.58024006  0.41236887  0.69729090  1
  Se  Se233  1  0.58898845  0.76289651  0.18281474  1
  Se  Se234  1  0.57992839  0.75102356  0.69697351  1
  Se  Se235  1  0.91074361  0.08444364  0.19334861  1
  Se  Se236  1  0.92096951  0.07405200  0.70086247  1
  Se  Se237  1  0.92213481  0.41302024  0.20198802  1
  Se  Se238  1  0.91741603  0.40721326  0.69825438  1
  Se  Se239  1  0.91667621  0.75808835  0.18478962  1
  Se  Se240  1  0.92720592  0.73529281  0.71142540  1
  Se  Se241  1  0.07523496  0.25058070  0.19674521  1
  Se  Se242  1  0.07717926  0.24870937  0.70299368  1
  Se  Se243  1  0.09215223  0.57601671  0.18312234  1
  Se  Se244  1  0.07869019  0.58123989  0.69778271  1
  Se  Se245  1  0.08010461  0.90925783  0.19531215  1
  Se  Se246  1  0.08935900  0.91764651  0.71477696  1
  Se  Se247  1  0.42190239  0.23765131  0.18723870  1
  Se  Se248  1  0.42466731  0.24850187  0.68677725  1
  Se  Se249  1  0.42278054  0.58500348  0.20266044  1
  Se  Se250  1  0.41169877  0.58979978  0.69836282  1
  Se  Se251  1  0.41504649  0.91275310  0.19771297  1
  Se  Se252  1  0.42102000  0.92791474  0.69449031  1
  Se  Se253  1  0.74308307  0.25346949  0.19773648  1
  Se  Se254  1  0.75581494  0.23915178  0.69798528  1
  Se  Se255  1  0.75946114  0.57964955  0.19622138  1
  Se  Se256  1  0.74402717  0.57764892  0.70057395  1
  Se  Se257  1  0.74666418  0.92160388  0.18533232  1
  Se  Se258  1  0.76027781  0.90152385  0.69144290  1
