# generated using pymatgen
data_In86Cu29Se144
_symmetry_space_group_name_H-M   'P 1'
_cell_length_a   17.59753159
_cell_length_b   17.59519347
_cell_length_c   23.44978439
_cell_angle_alpha   90.00126267
_cell_angle_beta   90.00883601
_cell_angle_gamma   89.99857237
_symmetry_Int_Tables_number   1
_chemical_formula_structural   In86Cu29Se144
_chemical_formula_sum   'In86 Cu29 Se144'
_cell_volume   7260.80291429
_cell_formula_units_Z   1
loop_
 _symmetry_equiv_pos_site_id
 _symmetry_equiv_pos_as_xyz
  1  'x, y, z'
loop_
 _atom_site_type_symbol
 _atom_site_label
 _atom_site_symmetry_multiplicity
 _atom_site_fract_x
 _atom_site_fract_y
 _atom_site_fract_z
 _atom_site_occupancy
  In  In0  1  -0.00183891  0.15624908  0.12434433  1
  In  In1  1  -0.01390398  0.14704229  0.61446240  1
  In  In2  1  -0.00049767  0.51774221  0.12741242  1
  In  In3  1  -0.01161334  0.51529479  0.61594261  1
  In  In4  1  -0.00436611  0.82900528  0.13301485  1
  In  In5  1  0.00814845  0.84139745  0.61445029  1
  In  In6  1  0.33966290  0.17199528  0.12923460  1
  In  In7  1  0.33515804  0.17746056  0.62356618  1
  In  In8  1  0.34229994  0.49584646  0.13184771  1
  In  In9  1  0.33694283  0.48959342  0.62248012  1
  In  In10  1  0.32057299  0.81157131  0.11091422  1
  In  In11  1  0.33169651  0.83248874  0.61674705  1
  In  In12  1  0.67045322  0.16248156  0.13561666  1
  In  In13  1  0.67971752  0.15959872  0.62038884  1
  In  In14  1  0.66827525  0.50186139  0.12570622  1
  In  In15  1  0.67713928  0.51307575  0.61430774  1
  In  In16  1  0.67101801  0.83197688  0.13084728  1
  In  In17  1  0.66209406  0.82063933  0.61652414  1
  In  In18  1  0.15586956  0.00350501  0.37675988  1
  In  In19  1  0.15424327  -0.00913730  0.87262803  1
  In  In20  1  0.16873740  0.32168456  0.37543434  1
  In  In21  1  0.16568687  0.32262694  0.86946885  1
  In  In22  1  0.16579158  0.68233890  0.35824392  1
  In  In23  1  0.16732932  0.68079891  0.88028337  1
  In  In24  1  0.50226949  -0.01812765  0.37633048  1
  In  In25  1  0.49223861  -0.00699144  0.88084554  1
  In  In26  1  0.51198930  0.34595971  0.36960879  1
  In  In27  1  0.50079738  0.35302649  0.87675280  1
  In  In28  1  0.50193025  0.66579430  0.37149048  1
  In  In29  1  0.50628118  0.65539556  0.88971644  1
  In  In30  1  0.83822840  -0.00792225  0.36779204  1
  In  In31  1  0.83201934  -0.01135790  0.87424439  1
  In  In32  1  0.81991029  0.34570867  0.38261923  1
  In  In33  1  0.83138413  0.34033641  0.87945777  1
  In  In34  1  0.82876357  0.67954557  0.36613560  1
  In  In35  1  0.82057453  0.67465060  0.87958178  1
  In  In36  1  0.00426626  0.15753128  0.38243424  1
  In  In37  1  0.00565479  0.16005182  0.86893066  1
  In  In38  1  -0.01535223  0.51045893  0.38155443  1
  In  In39  1  -0.01284998  0.49587836  0.87845270  1
  In  In40  1  -0.00503847  0.82993460  0.36859468  1
  In  In41  1  -0.00800513  0.83306067  0.87702149  1
  In  In42  1  0.32007518  0.16622535  0.37622365  1
  In  In43  1  0.32044357  0.16933879  0.86985046  1
  In  In44  1  0.34250479  0.51569519  0.36765756  1
  In  In45  1  0.34861213  0.50559288  0.87637593  1
  In  In46  1  0.33538344  0.82942079  0.37604120  1
  In  In47  1  0.33699982  0.81828898  0.89310175  1
  In  In48  1  0.67513461  0.17246150  0.37166398  1
  In  In49  1  0.67347366  0.16344087  0.87636558  1
  In  In50  1  0.66549451  0.50382488  0.36996828  1
  In  In51  1  0.65053608  0.50833991  0.89068463  1
  In  In52  1  0.66977772  0.82557762  0.36377336  1
  In  In53  1  0.67928625  0.82551345  0.88405629  1
  In  In54  1  0.16943943  -0.03960603  0.14327753  1
  In  In55  1  0.14799883  -0.01729330  0.61416739  1
  In  In56  1  0.17498474  0.34865966  0.12658255  1
  In  In57  1  0.18009696  0.33276606  0.62221157  1
  In  In58  1  0.15462006  0.68271154  0.14280071  1
  In  In59  1  0.16387629  0.68506108  0.61945316  1
  In  In60  1  0.51716297  -0.01214982  0.13287490  1
  In  In61  1  0.51451132  -0.00706834  0.61966378  1
  In  In62  1  0.50017523  0.33955518  0.12731617  1
  In  In63  1  0.48914242  0.33886969  0.62377080  1
  In  In64  1  0.50098183  0.66908775  0.12722812  1
  In  In65  1  0.50910018  0.67614359  0.61462997  1
  In  In66  1  0.84960590  -0.02053807  0.14776341  1
  In  In67  1  0.84751893  0.00518250  0.61724555  1
  In  In68  1  0.81400785  0.34225678  0.13153790  1
  In  In69  1  0.83302812  0.33176736  0.61627882  1
  In  In70  1  0.83833080  0.67229810  0.13586814  1
  In  In71  1  0.83133346  0.65980012  0.61083554  1
  In  In72  1  -0.00092603  0.32790046  0.74736388  1
  In  In73  1  0.00098549  0.67157481  0.74491928  1
  In  In74  1  0.67136602  -0.00352168  0.74909701  1
  In  In75  1  0.00290577  0.33282935  0.25960366  1
  In  In76  1  0.33726250  -0.00080928  0.25453449  1
  In  In77  1  0.83140571  0.16412627  -0.00141191  1
  In  In78  1  0.66723135  0.33677034  0.74421259  1
  In  In79  1  0.17326632  0.51364068  0.00123190  1
  In  In80  1  0.32820245  -0.00231148  0.74946333  1
  In  In81  1  0.33415822  0.66839085  0.75032018  1
  In  In82  1  0.50358406  0.16502429  0.50362267  1
  In  In83  1  0.15790132  0.15929588  -0.00539143  1
  In  In84  1  0.49774331  0.16235259  0.00808379  1
  In  In85  1  0.16719784  0.50289916  0.50065268  1
  Cu  Cu86  1  -0.01437493  0.34310705  0.00387986  1
  Cu  Cu87  1  0.50343366  0.50773584  0.75552760  1
  Cu  Cu88  1  -0.00469892  -0.00832486  0.49121254  1
  Cu  Cu89  1  0.33417172  0.33445960  -0.00039631  1
  Cu  Cu90  1  0.33163118  -0.01247110  0.00485769  1
  Cu  Cu91  1  0.66949267  0.34006492  0.49488006  1
  Cu  Cu92  1  0.33578100  0.67082022  0.49101825  1
  Cu  Cu93  1  0.82493844  0.50586085  0.74538537  1
  Cu  Cu94  1  0.00038237  0.32778971  0.49658655  1
  Cu  Cu95  1  -0.00824804  0.67424563  0.00701870  1
  Cu  Cu96  1  0.66962876  0.66834814  0.00990023  1
  Cu  Cu97  1  0.49836916  0.17686751  0.74762660  1
  Cu  Cu98  1  0.17217881  0.17246325  0.25044848  1
  Cu  Cu99  1  0.16650232  0.16423454  0.74447175  1
  Cu  Cu100  1  0.50582987  0.82637602  0.74875659  1
  Cu  Cu101  1  0.67331490  -0.00465074  0.00933300  1
  Cu  Cu102  1  0.17489477  0.50023189  0.25223241  1
  Cu  Cu103  1  0.49935841  0.82771241  0.25008964  1
  Cu  Cu104  1  0.82831112  0.49987665  0.25281719  1
  Cu  Cu105  1  0.33843608  0.33531470  0.49797296  1
  Cu  Cu106  1  0.32618180  -0.00379889  0.49515110  1
  Cu  Cu107  1  0.66758850  0.66853031  0.48882007  1
  Cu  Cu108  1  0.49927317  0.17597739  0.25134800  1
  Cu  Cu109  1  0.00230431  -0.01355591  0.00714677  1
  Cu  Cu110  1  0.83477923  0.83471370  0.74987919  1
  Cu  Cu111  1  0.50361065  0.50239292  0.24867501  1
  Cu  Cu112  1  0.67414211  -0.01111129  0.49521828  1
  Cu  Cu113  1  0.17219435  0.49993147  0.74588357  1
  Cu  Cu114  1  0.83074729  0.16720976  0.25550184  1
  Se  Se115  1  0.08779520  0.06527359  0.06456264  1
  Se  Se116  1  0.07910751  0.07699083  0.54588952  1
  Se  Se117  1  0.07784887  0.41787074  0.05668602  1
  Se  Se118  1  0.07575195  0.40992037  0.56054581  1
  Se  Se119  1  0.07969166  0.75050301  0.06120178  1
  Se  Se120  1  0.06317187  0.73296595  0.55109748  1
  Se  Se121  1  0.40854833  0.06781635  0.06584547  1
  Se  Se122  1  0.40883237  0.07142600  0.55961384  1
  Se  Se123  1  0.41481724  0.41534328  0.05531909  1
  Se  Se124  1  0.42197591  0.42174239  0.54714825  1
  Se  Se125  1  0.43448515  0.76147676  0.05563098  1
  Se  Se126  1  0.41703062  0.75302184  0.54967489  1
  Se  Se127  1  0.75493199  0.07477585  0.06726637  1
  Se  Se128  1  0.75232196  0.07722664  0.54874003  1
  Se  Se129  1  0.75117239  0.42164765  0.05463460  1
  Se  Se130  1  0.75495546  0.42064016  0.55031912  1
  Se  Se131  1  0.75531485  0.75012140  0.06244747  1
  Se  Se132  1  0.75029111  0.74948895  0.54571873  1
  Se  Se133  1  0.25040611  0.25188844  0.05495239  1
  Se  Se134  1  0.25384088  0.25020812  0.54813718  1
  Se  Se135  1  0.24675009  0.59084799  0.07701019  1
  Se  Se136  1  0.26105804  0.59445517  0.56001695  1
  Se  Se137  1  0.23921574  0.91080954  0.05371519  1
  Se  Se138  1  0.24483574  0.91062840  0.54942548  1
  Se  Se139  1  0.59176610  0.25024520  0.06251986  1
  Se  Se140  1  0.59374279  0.26051406  0.56136170  1
  Se  Se141  1  0.58222830  0.58366334  0.05761791  1
  Se  Se142  1  0.58556054  0.58675564  0.54693764  1
  Se  Se143  1  0.58669873  0.91003385  0.05587031  1
  Se  Se144  1  0.58461792  0.91011844  0.54689678  1
  Se  Se145  1  0.91710771  0.25541162  0.06431935  1
  Se  Se146  1  0.91520703  0.24595220  0.55060009  1
  Se  Se147  1  0.91061064  0.58767749  0.05804350  1
  Se  Se148  1  0.91580713  0.58509415  0.53875373  1
  Se  Se149  1  0.91375893  0.91241648  0.06222351  1
  Se  Se150  1  0.91217454  0.91083321  0.54735309  1
  Se  Se151  1  0.08754279  0.24606178  0.44774880  1
  Se  Se152  1  0.06545299  0.26191059  0.94332001  1
  Se  Se153  1  0.08805439  0.59233512  0.43524121  1
  Se  Se154  1  0.06889255  0.59384094  0.94186708  1
  Se  Se155  1  0.08163512  0.90870782  0.44048224  1
  Se  Se156  1  0.08295696  0.90861079  0.94659366  1
  Se  Se157  1  0.41849217  0.25253754  0.43832931  1
  Se  Se158  1  0.41009071  0.24884073  0.93992877  1
  Se  Se159  1  0.42155435  0.58403021  0.44529706  1
  Se  Se160  1  0.40414352  0.59064900  0.95296208  1
  Se  Se161  1  0.41424697  0.91316074  0.44775532  1
  Se  Se162  1  0.42166108  0.90993377  0.95346775  1
  Se  Se163  1  0.75025827  0.24786778  0.44900306  1
  Se  Se164  1  0.73722776  0.25987607  0.94702317  1
  Se  Se165  1  0.75200574  0.58717606  0.43516674  1
  Se  Se166  1  0.74864109  0.58603221  0.95008355  1
  Se  Se167  1  0.75155453  0.90966657  0.43447378  1
  Se  Se168  1  0.75655270  0.91632343  0.95100574  1
  Se  Se169  1  0.24391296  0.08301252  0.44620378  1
  Se  Se170  1  0.25789327  0.06962328  0.94120229  1
  Se  Se171  1  0.25750229  0.41591660  0.43771626  1
  Se  Se172  1  0.24939895  0.40961725  0.93869412  1
  Se  Se173  1  0.24475857  0.74750420  0.44013795  1
  Se  Se174  1  0.25352433  0.73390911  0.95768046  1
  Se  Se175  1  0.58979367  0.07496864  0.44086728  1
  Se  Se176  1  0.59322409  0.07322267  0.94593401  1
  Se  Se177  1  0.58500156  0.42415670  0.44529864  1
  Se  Se178  1  0.57926630  0.41311982  0.95513261  1
  Se  Se179  1  0.58329177  0.75381193  0.43804051  1
  Se  Se180  1  0.58859752  0.74926142  0.95011398  1
  Se  Se181  1  0.90982065  0.07871778  0.44334171  1
  Se  Se182  1  0.92975976  0.07315416  0.94429844  1
  Se  Se183  1  0.91714665  0.41513310  0.44855241  1
  Se  Se184  1  0.90296184  0.42623148  0.95217849  1
  Se  Se185  1  0.91243336  0.75274199  0.43948925  1
  Se  Se186  1  0.91022920  0.75235577  0.94642860  1
  Se  Se187  1  0.25675645  0.25506864  0.30094874  1
  Se  Se188  1  0.24852442  0.25108008  0.79523810  1
  Se  Se189  1  0.25465605  0.59215011  0.29979676  1
  Se  Se190  1  0.24175028  0.57974988  0.81205087  1
  Se  Se191  1  0.24110253  0.91324330  0.30972140  1
  Se  Se192  1  0.25531315  0.90477892  0.81708223  1
  Se  Se193  1  0.58801456  0.25343457  0.30489977  1
  Se  Se194  1  0.57965211  0.24806532  0.81181282  1
  Se  Se195  1  0.58624490  0.58812709  0.30005866  1
  Se  Se196  1  0.58609460  0.58784651  0.81047919  1
  Se  Se197  1  0.58217043  0.91558559  0.29940041  1
  Se  Se198  1  0.57962004  0.91021187  0.81118823  1
  Se  Se199  1  0.90917363  0.24732184  0.31813903  1
  Se  Se200  1  0.90642262  0.24504478  0.81047023  1
  Se  Se201  1  0.91244572  0.58310881  0.30356522  1
  Se  Se202  1  0.90909648  0.58210257  0.80637290  1
  Se  Se203  1  0.93842203  0.93227619  0.29831028  1
  Se  Se204  1  0.91837996  0.91679548  0.80266236  1
  Se  Se205  1  0.08700247  0.09311079  0.30401265  1
  Se  Se206  1  0.08696013  0.08015686  0.79950658  1
  Se  Se207  1  0.09116190  0.42761423  0.31691626  1
  Se  Se208  1  0.08642572  0.42607190  0.80735326  1
  Se  Se209  1  0.05946829  0.73770564  0.29310803  1
  Se  Se210  1  0.09032322  0.76018476  0.80518472  1
  Se  Se211  1  0.42651573  0.09167611  0.31490993  1
  Se  Se212  1  0.42445661  0.09025220  0.80794756  1
  Se  Se213  1  0.41887240  0.42063044  0.30381872  1
  Se  Se214  1  0.41677376  0.42031423  0.80128524  1
  Se  Se215  1  0.41401101  0.74820545  0.30446228  1
  Se  Se216  1  0.42598263  0.75208252  0.81306354  1
  Se  Se217  1  0.74825704  0.07943291  0.30521093  1
  Se  Se218  1  0.76205452  0.09037523  0.80547604  1
  Se  Se219  1  0.74527094  0.41318291  0.30216330  1
  Se  Se220  1  0.74927078  0.42748209  0.80935031  1
  Se  Se221  1  0.75284625  0.75432657  0.28952626  1
  Se  Se222  1  0.74851432  0.75316772  0.80227013  1
  Se  Se223  1  0.24285768  0.08450617  0.18880068  1
  Se  Se224  1  0.24413204  0.08304098  0.68227212  1
  Se  Se225  1  0.25717224  0.41387958  0.20210599  1
  Se  Se226  1  0.25480249  0.41471627  0.69577623  1
  Se  Se227  1  0.25013586  0.76501880  0.20019406  1
  Se  Se228  1  0.24452141  0.76337235  0.69500513  1
  Se  Se229  1  0.57821716  0.08632942  0.20077752  1
  Se  Se230  1  0.57787707  0.09345712  0.69170719  1
  Se  Se231  1  0.58635754  0.41719984  0.19606965  1
  Se  Se232  1  0.57852639  0.43062745  0.68756115  1
  Se  Se233  1  0.58661926  0.74688158  0.19820906  1
  Se  Se234  1  0.58718640  0.74445694  0.69397175  1
  Se  Se235  1  0.91807780  0.09039562  0.20137803  1
  Se  Se236  1  0.91666173  0.07975078  0.69619451  1
  Se  Se237  1  0.91654057  0.42127997  0.19469606  1
  Se  Se238  1  0.91031375  0.42594913  0.69014196  1
  Se  Se239  1  0.93859764  0.73121417  0.20588972  1
  Se  Se240  1  0.90824424  0.75464582  0.68428869  1
  Se  Se241  1  0.08962164  0.24983507  0.18801320  1
  Se  Se242  1  0.08586911  0.24256483  0.68231628  1
  Se  Se243  1  0.08466888  0.57954821  0.20340857  1
  Se  Se244  1  0.09275690  0.57703444  0.68589921  1
  Se  Se245  1  0.05455597  0.92919130  0.20583140  1
  Se  Se246  1  0.08072923  0.91105667  0.69443757  1
  Se  Se247  1  0.41593915  0.25691558  0.19734471  1
  Se  Se248  1  0.41280893  0.25756637  0.69670275  1
  Se  Se249  1  0.41833922  0.58659440  0.19801859  1
  Se  Se250  1  0.42392721  0.58112273  0.68850543  1
  Se  Se251  1  0.41632642  0.90682011  0.18982291  1
  Se  Se252  1  0.42717100  0.91037279  0.69122997  1
  Se  Se253  1  0.74862678  0.25141050  0.20278284  1
  Se  Se254  1  0.76156359  0.24268108  0.69300425  1
  Se  Se255  1  0.74929152  0.58436810  0.19664374  1
  Se  Se256  1  0.74936349  0.59279976  0.69030790  1
  Se  Se257  1  0.73330053  0.92964211  0.20075481  1
  Se  Se258  1  0.75429142  0.90882259  0.68401312  1
