# generated using pymatgen
data_In86Cu29Se144
_symmetry_space_group_name_H-M   'P 1'
_cell_length_a   17.65554412
_cell_length_b   17.65577035
_cell_length_c   23.51630407
_cell_angle_alpha   90.00399845
_cell_angle_beta   89.99426143
_cell_angle_gamma   89.97833146
_symmetry_Int_Tables_number   1
_chemical_formula_structural   In86Cu29Se144
_chemical_formula_sum   'In86 Cu29 Se144'
_cell_volume   7330.55422640
_cell_formula_units_Z   1
loop_
 _symmetry_equiv_pos_site_id
 _symmetry_equiv_pos_as_xyz
  1  'x, y, z'
loop_
 _atom_site_type_symbol
 _atom_site_label
 _atom_site_symmetry_multiplicity
 _atom_site_fract_x
 _atom_site_fract_y
 _atom_site_fract_z
 _atom_site_occupancy
  In  In0  1  0.00650879  0.16062928  0.13462050  1
  In  In1  1  0.00901155  0.16931505  0.62032623  1
  In  In2  1  0.01507769  0.48915014  0.13533116  1
  In  In3  1  -0.00239918  0.48895189  0.62339298  1
  In  In4  1  0.01161992  0.82298498  0.13888869  1
  In  In5  1  0.01767253  0.83882607  0.61725474  1
  In  In6  1  0.32862762  0.16791120  0.14237992  1
  In  In7  1  0.29740006  0.12077628  0.57306427  1
  In  In8  1  0.33153230  0.50171921  0.12419276  1
  In  In9  1  0.33652457  0.50667707  0.61670841  1
  In  In10  1  0.33455681  0.83060983  0.12850308  1
  In  In11  1  0.33172594  0.82881816  0.61699802  1
  In  In12  1  0.65323940  0.16108944  0.13591865  1
  In  In13  1  0.65935903  0.15956802  0.61419858  1
  In  In14  1  0.66451080  0.51493545  0.12421027  1
  In  In15  1  0.65970155  0.51127099  0.62931501  1
  In  In16  1  0.65563387  0.83838430  0.13339077  1
  In  In17  1  0.66105142  0.82807670  0.62521857  1
  In  In18  1  0.16844853  0.00090670  0.38758852  1
  In  In19  1  0.15936546  -0.00843428  0.87398771  1
  In  In20  1  0.16826403  0.33334198  0.37371010  1
  In  In21  1  0.16885723  0.34176998  0.87016317  1
  In  In22  1  0.16961607  0.66950682  0.37141012  1
  In  In23  1  0.17501952  0.66336610  0.89371654  1
  In  In24  1  0.49448035  -0.00745354  0.38040411  1
  In  In25  1  0.49055555  0.00031350  0.87505331  1
  In  In26  1  0.48864359  0.34634117  0.37586372  1
  In  In27  1  0.50195970  0.35223025  0.87555320  1
  In  In28  1  0.49834094  0.67329598  0.37461715  1
  In  In29  1  0.50078875  0.66721368  0.87866886  1
  In  In30  1  0.84108421  0.00857028  0.37309177  1
  In  In31  1  0.84340039  -0.00950374  0.86911836  1
  In  In32  1  0.83810819  0.31811050  0.37636581  1
  In  In33  1  0.83608145  0.32358387  0.87207566  1
  In  In34  1  0.82858200  0.66254826  0.36632622  1
  In  In35  1  0.82788451  0.68372509  0.87091118  1
  In  In36  1  -0.00017069  0.16531679  0.38144946  1
  In  In37  1  0.00040487  0.16141227  0.86300512  1
  In  In38  1  0.01163432  0.51117672  0.36349057  1
  In  In39  1  0.01049385  0.49903730  0.87628516  1
  In  In40  1  0.01320500  0.84721542  0.36721261  1
  In  In41  1  0.00455086  0.83926660  0.87544026  1
  In  In42  1  0.32996433  0.16769082  0.38113841  1
  In  In43  1  0.32449211  0.16744543  0.86847652  1
  In  In44  1  0.33179927  0.50366730  0.36676873  1
  In  In45  1  0.33234855  0.50437610  0.88498486  1
  In  In46  1  0.33750932  0.83463300  0.37921598  1
  In  In47  1  0.34049516  0.82413101  0.89295477  1
  In  In48  1  0.68001803  0.16127181  0.38262043  1
  In  In49  1  0.66521855  0.17451970  0.87026812  1
  In  In50  1  0.65312965  0.50786634  0.37578993  1
  In  In51  1  0.64271765  0.50631058  0.88246525  1
  In  In52  1  0.64768289  0.82042885  0.37164236  1
  In  In53  1  0.66763396  0.82796288  0.87106319  1
  In  In54  1  0.17914200  -0.01082202  0.14005032  1
  In  In55  1  0.15874559  -0.00726740  0.61504975  1
  In  In56  1  0.16658626  0.33588689  0.13140723  1
  In  In57  1  0.15709136  0.32821319  0.61442587  1
  In  In58  1  0.17020914  0.66358776  0.12830561  1
  In  In59  1  0.17334157  0.66629358  0.61125487  1
  In  In60  1  0.50492590  -0.01300339  0.13752187  1
  In  In61  1  0.48307252  -0.01574150  0.59907339  1
  In  In62  1  0.48747928  0.33273079  0.12845170  1
  In  In63  1  0.49014036  0.32917438  0.61476564  1
  In  In64  1  0.49556691  0.67291634  0.12558990  1
  In  In65  1  0.52213171  0.67924121  0.60534624  1
  In  In66  1  0.83592145  -0.00498750  0.13493534  1
  In  In67  1  0.84311864  0.01480693  0.61510475  1
  In  In68  1  0.83957535  0.34277480  0.12765909  1
  In  In69  1  0.85086262  0.32917618  0.62659699  1
  In  In70  1  0.82573508  0.67225931  0.13744903  1
  In  In71  1  0.82846020  0.65641790  0.62657895  1
  In  In72  1  0.33856184  0.66653119  0.75944301  1
  In  In73  1  -0.00050367  0.67066656  0.75151779  1
  In  In74  1  0.49505952  0.17065092  0.00704157  1
  In  In75  1  0.16631865  0.16622287  -0.00469628  1
  In  In76  1  0.32530133  0.32570605  0.74189476  1
  In  In77  1  0.66753009  0.33201503  0.25592541  1
  In  In78  1  0.32347303  -0.00603466  0.73073705  1
  In  In79  1  0.83271069  0.16472656  -0.00905042  1
  In  In80  1  0.83401618  0.83715194  -0.00383281  1
  In  In81  1  0.83185353  0.50516844  0.00922259  1
  In  In82  1  0.66772206  0.00258759  0.74322300  1
  In  In83  1  0.82979484  0.49456629  0.50183994  1
  In  In84  1  0.83624848  0.83350846  0.49730036  1
  In  In85  1  0.66823960  0.33380974  0.75375863  1
  Cu  Cu86  1  0.49814464  0.50562658  0.75115652  1
  Cu  Cu87  1  0.66194185  0.67138790  0.00010409  1
  Cu  Cu88  1  0.00571527  0.66139522  0.00983096  1
  Cu  Cu89  1  -0.00090780  0.33442208  0.00544074  1
  Cu  Cu90  1  0.00192538  0.33474290  0.49776034  1
  Cu  Cu91  1  0.33494593  0.34401334  0.49239801  1
  Cu  Cu92  1  0.01182028  -0.01053487  0.00337674  1
  Cu  Cu93  1  0.33449810  0.33547430  0.00130515  1
  Cu  Cu94  1  0.16358420  0.16452035  0.26159184  1
  Cu  Cu95  1  0.17071324  0.83545973  0.25619147  1
  Cu  Cu96  1  0.84080587  0.16684186  0.74122552  1
  Cu  Cu97  1  0.33043134  0.65685449  0.49027087  1
  Cu  Cu98  1  0.15893147  0.49609914  0.74908656  1
  Cu  Cu99  1  0.16978031  0.83665109  0.74899355  1
  Cu  Cu100  1  0.66198764  0.00681310  0.00737019  1
  Cu  Cu101  1  0.17230929  0.50054246  0.24848672  1
  Cu  Cu102  1  0.66727372  -0.00583900  0.49412132  1
  Cu  Cu103  1  0.83841013  0.83972559  0.74806900  1
  Cu  Cu104  1  0.00753476  0.66959221  0.49175864  1
  Cu  Cu105  1  0.33718457  -0.00327930  0.00938009  1
  Cu  Cu106  1  0.66696333  0.33503506  0.49807320  1
  Cu  Cu107  1  0.49569042  0.15919357  0.26037090  1
  Cu  Cu108  1  0.83884698  0.49694329  0.24819168  1
  Cu  Cu109  1  0.49215898  0.83051943  0.25262906  1
  Cu  Cu110  1  0.82538773  0.50073390  0.74906279  1
  Cu  Cu111  1  0.49769973  0.50661605  0.25162279  1
  Cu  Cu112  1  0.82478395  0.83797499  0.25673037  1
  Cu  Cu113  1  0.83917145  0.16302296  0.25595984  1
  Cu  Cu114  1  0.49092236  0.16690316  0.73709257  1
  Se  Se115  1  0.08642571  0.07543984  0.06168935  1
  Se  Se116  1  0.09074650  0.09024751  0.55044513  1
  Se  Se117  1  0.08624109  0.41269252  0.05713086  1
  Se  Se118  1  0.08205163  0.42314439  0.54876156  1
  Se  Se119  1  0.08413714  0.74990530  0.06082725  1
  Se  Se120  1  0.08955681  0.75208491  0.54688862  1
  Se  Se121  1  0.41056217  0.08081883  0.06969640  1
  Se  Se122  1  0.43976768  0.10426553  0.54872460  1
  Se  Se123  1  0.41669725  0.41624231  0.05543849  1
  Se  Se124  1  0.41918993  0.42359053  0.54917141  1
  Se  Se125  1  0.42984914  0.76880816  0.05813606  1
  Se  Se126  1  0.40740888  0.73694434  0.55206066  1
  Se  Se127  1  0.74791662  0.08272706  0.06296937  1
  Se  Se128  1  0.74659703  0.07972222  0.54828230  1
  Se  Se129  1  0.74001094  0.41030604  0.06161312  1
  Se  Se130  1  0.74335448  0.40692386  0.56817276  1
  Se  Se131  1  0.74536086  0.75037729  0.05893939  1
  Se  Se132  1  0.74800864  0.74022478  0.55638949  1
  Se  Se133  1  0.25827853  0.24916020  0.05933281  1
  Se  Se134  1  0.25656133  0.26157963  0.55043003  1
  Se  Se135  1  0.23911700  0.57392763  0.05773244  1
  Se  Se136  1  0.24621084  0.57512903  0.54547508  1
  Se  Se137  1  0.24973033  0.91721429  0.06048203  1
  Se  Se138  1  0.27151380  0.93518634  0.55730156  1
  Se  Se139  1  0.59047997  0.25675764  0.06393167  1
  Se  Se140  1  0.58289943  0.25196206  0.55066284  1
  Se  Se141  1  0.58023663  0.58958435  0.05458695  1
  Se  Se142  1  0.57719199  0.56561991  0.55013873  1
  Se  Se143  1  0.58287537  0.91958698  0.05804678  1
  Se  Se144  1  0.59049871  0.90870362  0.54959446  1
  Se  Se145  1  0.92117125  0.24787424  0.05988415  1
  Se  Se146  1  0.91991398  0.25025061  0.55116816  1
  Se  Se147  1  0.92215816  0.59003895  0.07137245  1
  Se  Se148  1  0.92649087  0.59139796  0.55433810  1
  Se  Se149  1  0.92455408  0.91683617  0.06226856  1
  Se  Se150  1  0.92962015  0.92511803  0.55128427  1
  Se  Se151  1  0.08599927  0.25320719  0.44446445  1
  Se  Se152  1  0.07232753  0.25602139  0.93851071  1
  Se  Se153  1  0.08840226  0.58252986  0.44097853  1
  Se  Se154  1  0.08197995  0.57799898  0.95139246  1
  Se  Se155  1  0.08237539  0.91191696  0.44925911  1
  Se  Se156  1  0.09175520  0.90619517  0.94909006  1
  Se  Se157  1  0.41775212  0.25492006  0.44414162  1
  Se  Se158  1  0.40872550  0.25528779  0.93673984  1
  Se  Se159  1  0.41786565  0.57921418  0.43772676  1
  Se  Se160  1  0.41813223  0.58698361  0.94577523  1
  Se  Se161  1  0.43060929  0.89872357  0.45072999  1
  Se  Se162  1  0.42226998  0.92125202  0.95097099  1
  Se  Se163  1  0.75440720  0.25106830  0.45133954  1
  Se  Se164  1  0.73611700  0.26238365  0.94408091  1
  Se  Se165  1  0.74418144  0.58896230  0.44398542  1
  Se  Se166  1  0.74825276  0.59498286  0.94201585  1
  Se  Se167  1  0.74541382  0.91471550  0.43270834  1
  Se  Se168  1  0.74171494  0.93267502  0.94108660  1
  Se  Se169  1  0.25027949  0.08974211  0.45470827  1
  Se  Se170  1  0.26142705  0.07191050  0.94249091  1
  Se  Se171  1  0.25025928  0.42262407  0.43803020  1
  Se  Se172  1  0.24811726  0.41260835  0.94521474  1
  Se  Se173  1  0.24963158  0.74834732  0.44397133  1
  Se  Se174  1  0.24749983  0.75467757  0.95745183  1
  Se  Se175  1  0.58618215  0.07948675  0.44252847  1
  Se  Se176  1  0.58813693  0.08435840  0.94159743  1
  Se  Se177  1  0.58467419  0.41549027  0.44366437  1
  Se  Se178  1  0.58054253  0.41506298  0.95268313  1
  Se  Se179  1  0.58252288  0.74285304  0.44973484  1
  Se  Se180  1  0.58494325  0.75710504  0.94380415  1
  Se  Se181  1  0.90471208  0.09382806  0.44725982  1
  Se  Se182  1  0.93139337  0.06911188  0.94241412  1
  Se  Se183  1  0.92335188  0.41672743  0.43688691  1
  Se  Se184  1  0.91727117  0.41200075  0.94401244  1
  Se  Se185  1  0.92178594  0.74424477  0.43326345  1
  Se  Se186  1  0.92859354  0.73941715  0.94476339  1
  Se  Se187  1  0.25288344  0.24910298  0.30687146  1
  Se  Se188  1  0.23028348  0.23832612  0.80112538  1
  Se  Se189  1  0.25095706  0.58917752  0.29946946  1
  Se  Se190  1  0.23756176  0.57610995  0.81068805  1
  Se  Se191  1  0.24743074  0.91753356  0.31497883  1
  Se  Se192  1  0.25625617  0.90745024  0.81053207  1
  Se  Se193  1  0.57869143  0.24372673  0.31630403  1
  Se  Se194  1  0.56338036  0.24435215  0.80424428  1
  Se  Se195  1  0.58191552  0.59007950  0.30238331  1
  Se  Se196  1  0.58094589  0.58841072  0.80461114  1
  Se  Se197  1  0.57594852  0.91440235  0.30555699  1
  Se  Se198  1  0.57895484  0.91792438  0.80697194  1
  Se  Se199  1  0.92389640  0.24818579  0.30446496  1
  Se  Se200  1  0.91757393  0.25060923  0.79978157  1
  Se  Se201  1  0.91788101  0.58658772  0.29881231  1
  Se  Se202  1  0.90828711  0.57910349  0.81199946  1
  Se  Se203  1  0.91464512  0.91899432  0.30430229  1
  Se  Se204  1  0.92781565  0.91545123  0.79933411  1
  Se  Se205  1  0.08431915  0.07993757  0.31529974  1
  Se  Se206  1  0.08955974  0.07779521  0.80454401  1
  Se  Se207  1  0.08818713  0.41622295  0.30112910  1
  Se  Se208  1  0.07652895  0.41311858  0.80147238  1
  Se  Se209  1  0.08258057  0.74936520  0.30273580  1
  Se  Se210  1  0.09724355  0.75121302  0.81197273  1
  Se  Se211  1  0.41175799  0.07997048  0.31414447  1
  Se  Se212  1  0.41483788  0.08694324  0.80032402  1
  Se  Se213  1  0.41436954  0.41811900  0.29780988  1
  Se  Se214  1  0.41064372  0.42376205  0.80377102  1
  Se  Se215  1  0.40931788  0.74745586  0.30525378  1
  Se  Se216  1  0.42571922  0.76506818  0.81079231  1
  Se  Se217  1  0.74892609  0.08308588  0.30409719  1
  Se  Se218  1  0.76095263  0.09205944  0.80650887  1
  Se  Se219  1  0.75872466  0.42287417  0.31462912  1
  Se  Se220  1  0.75083957  0.42710196  0.81700413  1
  Se  Se221  1  0.74256523  0.74881858  0.30376072  1
  Se  Se222  1  0.75066794  0.75730059  0.79595679  1
  Se  Se223  1  0.24902425  0.08195603  0.20803586  1
  Se  Se224  1  0.24130496  0.09427248  0.67900959  1
  Se  Se225  1  0.25537958  0.41506008  0.19624247  1
  Se  Se226  1  0.24377873  0.42650432  0.68631414  1
  Se  Se227  1  0.24671049  0.75256919  0.19714686  1
  Se  Se228  1  0.24555068  0.74892767  0.69224027  1
  Se  Se229  1  0.58053422  0.07768926  0.20627269  1
  Se  Se230  1  0.56923146  0.08016405  0.68306025  1
  Se  Se231  1  0.57975172  0.42250366  0.19315947  1
  Se  Se232  1  0.57169417  0.41601529  0.69366132  1
  Se  Se233  1  0.57951714  0.74889863  0.19963940  1
  Se  Se234  1  0.58345736  0.74330342  0.69214553  1
  Se  Se235  1  0.92022410  0.07935513  0.19970696  1
  Se  Se236  1  0.92425573  0.08427710  0.69015009  1
  Se  Se237  1  0.92345108  0.41000251  0.20099424  1
  Se  Se238  1  0.91300233  0.42164154  0.69875073  1
  Se  Se239  1  0.90964823  0.75639110  0.20178238  1
  Se  Se240  1  0.91450983  0.75738920  0.68442537  1
  Se  Se241  1  0.08905877  0.24627032  0.19817269  1
  Se  Se242  1  0.07133916  0.26661928  0.68950024  1
  Se  Se243  1  0.08411529  0.58545100  0.19995282  1
  Se  Se244  1  0.08782337  0.58346370  0.68789632  1
  Se  Se245  1  0.08206811  0.91887127  0.20457683  1
  Se  Se246  1  0.08698199  0.91758774  0.69463263  1
  Se  Se247  1  0.42155292  0.24772216  0.20361601  1
  Se  Se248  1  0.40699499  0.23895481  0.67782130  1
  Se  Se249  1  0.41583218  0.58452316  0.19264051  1
  Se  Se250  1  0.42096112  0.58474100  0.69023989  1
  Se  Se251  1  0.40865950  0.91740472  0.20208687  1
  Se  Se252  1  0.42716354  0.90513709  0.68651022  1
  Se  Se253  1  0.75924551  0.24308053  0.19280796  1
  Se  Se254  1  0.74836045  0.24142967  0.68832307  1
  Se  Se255  1  0.74847445  0.57878168  0.20066271  1
  Se  Se256  1  0.74425005  0.58695105  0.70059231  1
  Se  Se257  1  0.74403617  0.91916597  0.19883693  1
  Se  Se258  1  0.76163222  0.91624808  0.68355868  1
