# generated using pymatgen
data_In86Cu29Se144
_symmetry_space_group_name_H-M   'P 1'
_cell_length_a   17.59112200
_cell_length_b   17.58826323
_cell_length_c   23.45710006
_cell_angle_alpha   90.00071649
_cell_angle_beta   90.00450867
_cell_angle_gamma   90.00490597
_symmetry_Int_Tables_number   1
_chemical_formula_structural   In86Cu29Se144
_chemical_formula_sum   'In86 Cu29 Se144'
_cell_volume   7257.56300207
_cell_formula_units_Z   1
loop_
 _symmetry_equiv_pos_site_id
 _symmetry_equiv_pos_as_xyz
  1  'x, y, z'
loop_
 _atom_site_type_symbol
 _atom_site_label
 _atom_site_symmetry_multiplicity
 _atom_site_fract_x
 _atom_site_fract_y
 _atom_site_fract_z
 _atom_site_occupancy
  In  In0  1  -0.00170190  0.16781239  0.12952902  1
  In  In1  1  0.01433860  0.16058070  0.64131211  1
  In  In2  1  -0.00640707  0.50949617  0.12709826  1
  In  In3  1  -0.01056288  0.50299679  0.64072532  1
  In  In4  1  -0.01329250  0.84189676  0.13099626  1
  In  In5  1  -0.00428348  0.83733740  0.62646361  1
  In  In6  1  0.34592264  0.16026608  0.13784182  1
  In  In7  1  0.33296731  0.15874627  0.62429529  1
  In  In8  1  0.33590100  0.48548630  0.12784856  1
  In  In9  1  0.35041848  0.50703280  0.62098853  1
  In  In10  1  0.34927272  0.82904458  0.12722959  1
  In  In11  1  0.34453896  0.82701463  0.63373476  1
  In  In12  1  0.65980973  0.18152445  0.13224720  1
  In  In13  1  0.65385598  0.17383419  0.61893289  1
  In  In14  1  0.66721931  0.50366967  0.12315858  1
  In  In15  1  0.66173481  0.51258105  0.62955065  1
  In  In16  1  0.66485385  0.82783537  0.12477116  1
  In  In17  1  0.65593633  0.82186713  0.61604328  1
  In  In18  1  0.17462916  0.00260796  0.36902034  1
  In  In19  1  0.16636395  0.00425616  0.86243653  1
  In  In20  1  0.16405884  0.33140148  0.36961426  1
  In  In21  1  0.16162806  0.33850447  0.87637497  1
  In  In22  1  0.16662428  0.67758183  0.37611741  1
  In  In23  1  0.16482772  0.66099948  0.86536569  1
  In  In24  1  0.48855671  0.01036175  0.37934700  1
  In  In25  1  0.49133904  0.00020574  0.88099730  1
  In  In26  1  0.50163773  0.33661361  0.37069444  1
  In  In27  1  0.50021217  0.32977553  0.88520474  1
  In  In28  1  0.50870364  0.65387776  0.38323445  1
  In  In29  1  0.50426792  0.66571330  0.87320829  1
  In  In30  1  0.83204164  -0.01904856  0.37046707  1
  In  In31  1  0.83276731  -0.01239811  0.87728058  1
  In  In32  1  0.83270163  0.33657712  0.36423016  1
  In  In33  1  0.84705184  0.34257372  0.88273290  1
  In  In34  1  0.82977104  0.67232938  0.36566582  1
  In  In35  1  0.83190208  0.66520219  0.87712608  1
  In  In36  1  0.00052984  0.16489012  0.36798931  1
  In  In37  1  0.00537357  0.17096747  0.86834426  1
  In  In38  1  -0.00872230  0.49723249  0.36944849  1
  In  In39  1  -0.01797702  0.49061029  0.86556859  1
  In  In40  1  -0.01611202  0.82235860  0.35992210  1
  In  In41  1  -0.01204245  0.82165149  0.86833758  1
  In  In42  1  0.36587253  0.19233109  0.34813922  1
  In  In43  1  0.34141800  0.16768807  0.87451366  1
  In  In44  1  0.35046523  0.49398501  0.38151718  1
  In  In45  1  0.33224861  0.50897486  0.87349702  1
  In  In46  1  0.33257355  0.84360079  0.37690080  1
  In  In47  1  0.34026375  0.83911722  0.86844384  1
  In  In48  1  0.64605827  0.16793127  0.36798744  1
  In  In49  1  0.65820541  0.15518758  0.88302114  1
  In  In50  1  0.65944342  0.49355567  0.36406752  1
  In  In51  1  0.65730240  0.50752867  0.88076470  1
  In  In52  1  0.67628052  0.82134998  0.37855381  1
  In  In53  1  0.67921586  0.82197502  0.88335271  1
  In  In54  1  0.16707199  0.00094934  0.12775265  1
  In  In55  1  0.17052633  0.00186276  0.63447339  1
  In  In56  1  0.16930576  0.33287160  0.13333304  1
  In  In57  1  0.16035123  0.32379197  0.62591163  1
  In  In58  1  0.15602062  0.65787841  0.12374595  1
  In  In59  1  0.16544506  0.66784866  0.63137005  1
  In  In60  1  0.49843198  -0.00425480  0.12751925  1
  In  In61  1  0.49162177  -0.01327694  0.61842942  1
  In  In62  1  0.49914377  0.33367213  0.12702976  1
  In  In63  1  0.48916035  0.33379991  0.60622608  1
  In  In64  1  0.51275598  0.67602878  0.12068250  1
  In  In65  1  0.50067138  0.67065268  0.62640713  1
  In  In66  1  0.84098111  -0.00258150  0.12590636  1
  In  In67  1  0.84741904  -0.00523803  0.62430325  1
  In  In68  1  0.82922288  0.34201463  0.12777077  1
  In  In69  1  0.84037132  0.34521088  0.62821548  1
  In  In70  1  0.83417482  0.67004477  0.12344837  1
  In  In71  1  0.82211721  0.67182483  0.63449312  1
  In  In72  1  0.66578279  0.00095902  0.24911566  1
  In  In73  1  0.82482266  0.16781173  0.00887739  1
  In  In74  1  0.32522680  0.33427790  0.75006105  1
  In  In75  1  0.82779652  0.16494406  0.50249262  1
  In  In76  1  0.67168694  0.33850759  0.75063597  1
  In  In77  1  0.33144488  0.66576627  0.25675293  1
  In  In78  1  0.17415022  0.50024323  0.50200295  1
  In  In79  1  0.17196424  0.83942176  0.49582499  1
  In  In80  1  0.16867838  0.16900758  -0.00776891  1
  In  In81  1  0.16707236  0.50040075  -0.00115933  1
  In  In82  1  0.16663289  0.83041681  -0.01260617  1
  In  In83  1  0.66718612  -0.00632737  0.75358247  1
  In  In84  1  0.17502437  0.16211802  0.50531625  1
  In  In85  1  0.82611469  0.50337346  0.50854453  1
  Cu  Cu86  1  -0.00163642  0.33098196  0.50456224  1
  Cu  Cu87  1  0.66505047  0.66495953  0.50125277  1
  Cu  Cu88  1  0.83668105  0.16756021  0.24757558  1
  Cu  Cu89  1  0.49692445  0.16276080  0.75095439  1
  Cu  Cu90  1  0.50327112  0.50250042  0.24853728  1
  Cu  Cu91  1  0.16567221  0.16176046  0.24854871  1
  Cu  Cu92  1  0.65526554  -0.00595256  0.00343367  1
  Cu  Cu93  1  -0.00250160  -0.01016870  0.49693869  1
  Cu  Cu94  1  -0.00420957  0.67169355  0.49431551  1
  Cu  Cu95  1  0.83339347  0.83081407  0.75192763  1
  Cu  Cu96  1  0.66408596  0.33691615  0.00751705  1
  Cu  Cu97  1  0.50481982  0.82802134  0.74709830  1
  Cu  Cu98  1  0.65674471  0.33495706  0.49031565  1
  Cu  Cu99  1  -0.00696477  -0.00343630  -0.00094559  1
  Cu  Cu100  1  0.83927127  0.16947438  0.75086763  1
  Cu  Cu101  1  0.66646178  0.66563854  0.00102588  1
  Cu  Cu102  1  -0.00968873  0.67051476  -0.00111517  1
  Cu  Cu103  1  0.83156925  0.50628706  0.24367356  1
  Cu  Cu104  1  0.50443845  0.83703433  0.25125269  1
  Cu  Cu105  1  0.34073699  -0.00805977  0.00386741  1
  Cu  Cu106  1  0.50365591  0.50433070  0.74922710  1
  Cu  Cu107  1  0.34388097  0.32566541  0.00610731  1
  Cu  Cu108  1  0.16761162  0.50553357  0.74968897  1
  Cu  Cu109  1  0.16027557  0.49721114  0.25165540  1
  Cu  Cu110  1  0.16120065  0.83274727  0.24922021  1
  Cu  Cu111  1  0.34755160  0.66091915  -0.00278900  1
  Cu  Cu112  1  0.66483582  -0.00369111  0.49157703  1
  Cu  Cu113  1  0.16862320  0.83627122  0.74918701  1
  Cu  Cu114  1  0.34019031  0.00418909  0.49930182  1
  Se  Se115  1  0.07694134  0.07802297  0.05384612  1
  Se  Se116  1  0.07494521  0.07203968  0.55793079  1
  Se  Se117  1  0.08192688  0.41369493  0.06303892  1
  Se  Se118  1  0.07340897  0.41824598  0.56165057  1
  Se  Se119  1  0.07761828  0.74927752  0.05525889  1
  Se  Se120  1  0.08051502  0.74675639  0.55465159  1
  Se  Se121  1  0.41497693  0.08054485  0.05935864  1
  Se  Se122  1  0.42215161  0.08714717  0.55461744  1
  Se  Se123  1  0.42150636  0.41911589  0.05361108  1
  Se  Se124  1  0.41366086  0.42588454  0.54378766  1
  Se  Se125  1  0.42139461  0.75052550  0.05170149  1
  Se  Se126  1  0.43052658  0.76548959  0.55900031  1
  Se  Se127  1  0.73378711  0.07492064  0.06642646  1
  Se  Se128  1  0.73929615  0.07097523  0.56184138  1
  Se  Se129  1  0.75204157  0.42055405  0.05388760  1
  Se  Se130  1  0.73444688  0.40462338  0.56007675  1
  Se  Se131  1  0.74922983  0.75112569  0.05348856  1
  Se  Se132  1  0.75296991  0.74530271  0.55357692  1
  Se  Se133  1  0.25532715  0.24939038  0.06161003  1
  Se  Se134  1  0.26234404  0.26231281  0.55783771  1
  Se  Se135  1  0.26157275  0.58943669  0.05929089  1
  Se  Se136  1  0.25745139  0.59747986  0.55885970  1
  Se  Se137  1  0.25291620  0.91312220  0.05829732  1
  Se  Se138  1  0.25824929  0.92612318  0.56095999  1
  Se  Se139  1  0.58013827  0.24947732  0.05496105  1
  Se  Se140  1  0.57686279  0.24769962  0.54399898  1
  Se  Se141  1  0.58098897  0.58183555  0.05234671  1
  Se  Se142  1  0.58068210  0.58393866  0.55537504  1
  Se  Se143  1  0.57658395  0.90953000  0.05887858  1
  Se  Se144  1  0.58348422  0.91556798  0.55035304  1
  Se  Se145  1  0.92236857  0.25773819  0.05905036  1
  Se  Se146  1  0.92320292  0.24728555  0.56490856  1
  Se  Se147  1  0.91261437  0.58270491  0.05246352  1
  Se  Se148  1  0.92432433  0.59196725  0.56083888  1
  Se  Se149  1  0.91113420  0.91317323  0.05111487  1
  Se  Se150  1  0.91362076  0.90809018  0.54960149  1
  Se  Se151  1  0.07727138  0.25047360  0.44558610  1
  Se  Se152  1  0.06984196  0.26274074  0.94639866  1
  Se  Se153  1  0.07620321  0.58576200  0.44043236  1
  Se  Se154  1  0.07757222  0.59229162  0.94153733  1
  Se  Se155  1  0.07719125  0.91773863  0.43240986  1
  Se  Se156  1  0.07439827  0.92485988  0.93414171  1
  Se  Se157  1  0.42183470  0.24908098  0.43858271  1
  Se  Se158  1  0.42091966  0.23924821  0.95028048  1
  Se  Se159  1  0.40984987  0.59015888  0.44936638  1
  Se  Se160  1  0.42542263  0.57561914  0.94260824  1
  Se  Se161  1  0.41973889  0.91514606  0.44842621  1
  Se  Se162  1  0.41866686  0.90622716  0.94840768  1
  Se  Se163  1  0.74529908  0.25590461  0.43722192  1
  Se  Se164  1  0.74018294  0.25721672  0.94168715  1
  Se  Se165  1  0.74366437  0.58515442  0.43828286  1
  Se  Se166  1  0.74964422  0.58305673  0.94678810  1
  Se  Se167  1  0.75345873  0.91146300  0.44754715  1
  Se  Se168  1  0.74670870  0.91978706  0.95062139  1
  Se  Se169  1  0.26238756  0.08342350  0.43744938  1
  Se  Se170  1  0.25935366  0.06896744  0.94168753  1
  Se  Se171  1  0.25465620  0.40404736  0.44160267  1
  Se  Se172  1  0.26375840  0.40571750  0.94426394  1
  Se  Se173  1  0.26437846  0.74157354  0.44578836  1
  Se  Se174  1  0.26132250  0.73547541  0.93702345  1
  Se  Se175  1  0.58179280  0.08579890  0.44598584  1
  Se  Se176  1  0.57369929  0.08094015  0.95268630  1
  Se  Se177  1  0.57878608  0.42622824  0.44152346  1
  Se  Se178  1  0.58203882  0.41680770  0.94878221  1
  Se  Se179  1  0.58412883  0.74975250  0.44689803  1
  Se  Se180  1  0.58247926  0.74813120  0.94610912  1
  Se  Se181  1  0.91913100  0.07784440  0.44097998  1
  Se  Se182  1  0.91653100  0.08502305  0.94163311  1
  Se  Se183  1  0.91542432  0.40995516  0.44653060  1
  Se  Se184  1  0.91960314  0.42803026  0.95287465  1
  Se  Se185  1  0.91132743  0.74995028  0.43988111  1
  Se  Se186  1  0.90828772  0.75676607  0.94734623  1
  Se  Se187  1  0.24547907  0.24957694  0.30039834  1
  Se  Se188  1  0.23964581  0.24183251  0.81110291  1
  Se  Se189  1  0.24232595  0.57211340  0.31538971  1
  Se  Se190  1  0.25759145  0.58621299  0.79843477  1
  Se  Se191  1  0.25037113  0.91184096  0.30096616  1
  Se  Se192  1  0.25419052  0.91891885  0.80074620  1
  Se  Se193  1  0.58850552  0.26304621  0.29887411  1
  Se  Se194  1  0.57970834  0.24275375  0.80861783  1
  Se  Se195  1  0.58365061  0.58990936  0.30059234  1
  Se  Se196  1  0.58875284  0.58567235  0.80161373  1
  Se  Se197  1  0.58056000  0.91550347  0.31611981  1
  Se  Se198  1  0.57903212  0.90614527  0.81505382  1
  Se  Se199  1  0.91989659  0.25155112  0.30161420  1
  Se  Se200  1  0.91315358  0.25487491  0.80854818  1
  Se  Se201  1  0.91461111  0.58468632  0.30239826  1
  Se  Se202  1  0.93335377  0.60550664  0.80968845  1
  Se  Se203  1  0.92351824  0.92582967  0.29668152  1
  Se  Se204  1  0.91534111  0.91853139  0.80219099  1
  Se  Se205  1  0.08320753  0.07911266  0.30301850  1
  Se  Se206  1  0.07659818  0.08295546  0.80010097  1
  Se  Se207  1  0.07631657  0.41265113  0.30446480  1
  Se  Se208  1  0.08785213  0.42249003  0.80588756  1
  Se  Se209  1  0.08310717  0.74401625  0.30109079  1
  Se  Se210  1  0.08568002  0.75342802  0.80295755  1
  Se  Se211  1  0.41116710  0.07099289  0.29810667  1
  Se  Se212  1  0.41606790  0.07945341  0.80502371  1
  Se  Se213  1  0.41725767  0.42073994  0.30061920  1
  Se  Se214  1  0.42548927  0.41830631  0.80830575  1
  Se  Se215  1  0.42500460  0.75550044  0.31258627  1
  Se  Se216  1  0.41989614  0.74802189  0.80402058  1
  Se  Se217  1  0.75707190  0.09113744  0.31202595  1
  Se  Se218  1  0.75676561  0.09164278  0.81052563  1
  Se  Se219  1  0.75044671  0.41929374  0.29716172  1
  Se  Se220  1  0.75473643  0.42452638  0.81536319  1
  Se  Se221  1  0.74776714  0.75469187  0.29792477  1
  Se  Se222  1  0.74930811  0.74728371  0.80429223  1
  Se  Se223  1  0.25081841  0.07862130  0.19707268  1
  Se  Se224  1  0.24222039  0.09957926  0.69625990  1
  Se  Se225  1  0.24976296  0.41783758  0.20153889  1
  Se  Se226  1  0.24484536  0.42773428  0.68496632  1
  Se  Se227  1  0.24295634  0.75181779  0.18876728  1
  Se  Se228  1  0.25093723  0.75058872  0.69739593  1
  Se  Se229  1  0.57188726  0.09384768  0.19697448  1
  Se  Se230  1  0.57897083  0.08420467  0.69140269  1
  Se  Se231  1  0.58497319  0.41956813  0.19239744  1
  Se  Se232  1  0.57121489  0.41441466  0.68800778  1
  Se  Se233  1  0.58483863  0.75066730  0.19932571  1
  Se  Se234  1  0.59136744  0.74524324  0.69724086  1
  Se  Se235  1  0.91792787  0.08134929  0.19616848  1
  Se  Se236  1  0.91600403  0.08005906  0.69825723  1
  Se  Se237  1  0.91777794  0.41969119  0.19576507  1
  Se  Se238  1  0.91869114  0.40885890  0.70590451  1
  Se  Se239  1  0.92921072  0.73654554  0.19271584  1
  Se  Se240  1  0.91772492  0.75046391  0.69545973  1
  Se  Se241  1  0.08292735  0.24826121  0.19717830  1
  Se  Se242  1  0.07972823  0.26138081  0.70303606  1
  Se  Se243  1  0.08061891  0.58409560  0.19959304  1
  Se  Se244  1  0.08060082  0.58892720  0.69962395  1
  Se  Se245  1  0.08257738  0.91805243  0.19370897  1
  Se  Se246  1  0.08215424  0.91599763  0.69500716  1
  Se  Se247  1  0.40695444  0.26598984  0.19765329  1
  Se  Se248  1  0.42462257  0.25070745  0.69132487  1
  Se  Se249  1  0.42046376  0.58389338  0.18952590  1
  Se  Se250  1  0.41866933  0.58747515  0.69772774  1
  Se  Se251  1  0.41627733  0.91655824  0.20022337  1
  Se  Se252  1  0.42099393  0.91896193  0.70116023  1
  Se  Se253  1  0.75340164  0.25302589  0.19731361  1
  Se  Se254  1  0.75508990  0.24077277  0.68835963  1
  Se  Se255  1  0.74687280  0.58928073  0.19217296  1
  Se  Se256  1  0.77094857  0.55784160  0.69263385  1
  Se  Se257  1  0.75710564  0.90945522  0.19383323  1
  Se  Se258  1  0.75334514  0.90811647  0.68820100  1
