# generated using pymatgen
data_In86Cu29Se144
_symmetry_space_group_name_H-M   'P 1'
_cell_length_a   17.58325729
_cell_length_b   17.58262129
_cell_length_c   23.44448972
_cell_angle_alpha   89.99656602
_cell_angle_beta   89.96119450
_cell_angle_gamma   89.99310855
_symmetry_Int_Tables_number   1
_chemical_formula_structural   In86Cu29Se144
_chemical_formula_sum   'In86 Cu29 Se144'
_cell_volume   7248.09094298
_cell_formula_units_Z   1
loop_
 _symmetry_equiv_pos_site_id
 _symmetry_equiv_pos_as_xyz
  1  'x, y, z'
loop_
 _atom_site_type_symbol
 _atom_site_label
 _atom_site_symmetry_multiplicity
 _atom_site_fract_x
 _atom_site_fract_y
 _atom_site_fract_z
 _atom_site_occupancy
  In  In0  1  -0.00340380  0.16498779  0.13698027  1
  In  In1  1  0.00077205  0.17070454  0.61735060  1
  In  In2  1  0.00538613  0.49606884  0.14080103  1
  In  In3  1  0.01940182  0.48545437  0.62703741  1
  In  In4  1  0.01313847  0.82592912  0.13508891  1
  In  In5  1  0.00248470  0.83495429  0.62247241  1
  In  In6  1  0.33124648  0.16047237  0.12281179  1
  In  In7  1  0.32828645  0.17580841  0.63607991  1
  In  In8  1  0.34309843  0.49355376  0.12828490  1
  In  In9  1  0.33184237  0.49924711  0.62360238  1
  In  In10  1  0.31905618  0.84323290  0.12682096  1
  In  In11  1  0.32059487  0.84363617  0.63151840  1
  In  In12  1  0.66789249  0.17806159  0.11990932  1
  In  In13  1  0.66435180  0.15383968  0.62919418  1
  In  In14  1  0.65364835  0.49278116  0.12378674  1
  In  In15  1  0.65998841  0.51843499  0.61632021  1
  In  In16  1  0.66435869  0.83202438  0.12301668  1
  In  In17  1  0.67917859  0.84325536  0.62261497  1
  In  In18  1  0.16432057  0.00140864  0.38065426  1
  In  In19  1  0.16235875  -0.00338072  0.86836557  1
  In  In20  1  0.14442598  0.34787024  0.39956160  1
  In  In21  1  0.16780478  0.32899669  0.86616838  1
  In  In22  1  0.16869177  0.66749082  0.37743950  1
  In  In23  1  0.17685570  0.67475418  0.86686792  1
  In  In24  1  0.49002554  0.00954419  0.37253476  1
  In  In25  1  0.51507209  0.01983815  0.85302312  1
  In  In26  1  0.51189499  0.33388517  0.37346083  1
  In  In27  1  0.49156339  0.34229758  0.89202610  1
  In  In28  1  0.48092861  0.66466544  0.37352666  1
  In  In29  1  0.48303510  0.66443124  0.87372342  1
  In  In30  1  0.84333653  -0.01530694  0.38864921  1
  In  In31  1  0.83374102  0.00143834  0.86565342  1
  In  In32  1  0.82861002  0.32719137  0.37524352  1
  In  In33  1  0.83434450  0.32531638  0.87052090  1
  In  In34  1  0.84878706  0.66443270  0.37841495  1
  In  In35  1  0.84259101  0.65871991  0.86892669  1
  In  In36  1  0.00189946  0.16648993  0.38219119  1
  In  In37  1  0.00151392  0.16651073  0.86281952  1
  In  In38  1  0.01429798  0.50736934  0.36671171  1
  In  In39  1  0.00649478  0.50269552  0.86325476  1
  In  In40  1  0.00382780  0.83399238  0.38037720  1
  In  In41  1  0.01134496  0.84327014  0.86692370  1
  In  In42  1  0.32645174  0.15395927  0.37259291  1
  In  In43  1  0.35208056  0.18215993  0.85252500  1
  In  In44  1  0.31632508  0.51136410  0.38445515  1
  In  In45  1  0.33523162  0.50021337  0.87214258  1
  In  In46  1  0.31990827  0.82337758  0.37098400  1
  In  In47  1  0.32772007  0.82952859  0.86922113  1
  In  In48  1  0.66653205  0.17955483  0.37551092  1
  In  In49  1  0.66182542  0.16293973  0.87798957  1
  In  In50  1  0.67402945  0.48705771  0.37797605  1
  In  In51  1  0.64869938  0.48730922  0.87624055  1
  In  In52  1  0.66895328  0.84358271  0.37820304  1
  In  In53  1  0.65654580  0.84286105  0.87382172  1
  In  In54  1  0.17688845  -0.00354317  0.13100689  1
  In  In55  1  0.16494277  -0.00255306  0.62201125  1
  In  In56  1  0.16602555  0.32441436  0.13078250  1
  In  In57  1  0.16738533  0.33447681  0.61695778  1
  In  In58  1  0.15627502  0.67397783  0.13608821  1
  In  In59  1  0.16709866  0.66589451  0.62388575  1
  In  In60  1  0.48818968  -0.00344935  0.11807685  1
  In  In61  1  0.49485172  0.01688112  0.64543413  1
  In  In62  1  0.50562614  0.34436105  0.11206696  1
  In  In63  1  0.48034597  0.33235822  0.63237098  1
  In  In64  1  0.49435210  0.65019209  0.12456728  1
  In  In65  1  0.49749937  0.65086738  0.62362291  1
  In  In66  1  0.84004663  0.00998527  0.12771910  1
  In  In67  1  0.83944580  0.00483766  0.62313034  1
  In  In68  1  0.83325481  0.33027678  0.13595607  1
  In  In69  1  0.85906538  0.33335688  0.61672536  1
  In  In70  1  0.84538025  0.67237827  0.13179273  1
  In  In71  1  0.83594151  0.68923698  0.61532176  1
  In  In72  1  0.32393297  0.33409366  0.25214330  1
  In  In73  1  0.83684273  0.50431430  0.49797771  1
  In  In74  1  0.82773899  0.16440038  -0.00625512  1
  In  In75  1  0.66825021  0.00189463  0.24662253  1
  In  In76  1  0.17328323  0.16255256  0.00111116  1
  In  In77  1  0.67273250  0.67735345  0.74482465  1
  In  In78  1  0.49237288  0.83593774  -0.00364297  1
  In  In79  1  0.50015756  0.17001542  0.50398806  1
  In  In80  1  0.83077913  0.50010976  0.00750604  1
  In  In81  1  0.66724115  0.65961966  0.24559145  1
  In  In82  1  0.50510089  0.82984644  0.50421763  1
  In  In83  1  0.83575125  0.83684911  -0.00818191  1
  In  In84  1  0.17287132  0.49849172  0.00096956  1
  In  In85  1  0.66964998  0.33266959  0.75025750  1
  Cu  Cu86  1  0.00399239  0.66994080  0.50058116  1
  Cu  Cu87  1  0.84337546  0.50328009  0.74354756  1
  Cu  Cu88  1  0.01263641  0.67223663  0.00411808  1
  Cu  Cu89  1  0.17248287  0.49419741  0.74482779  1
  Cu  Cu90  1  -0.00449462  0.33313911  -0.00147299  1
  Cu  Cu91  1  0.67141672  -0.00048228  0.50553907  1
  Cu  Cu92  1  0.16040807  0.82747360  0.74479421  1
  Cu  Cu93  1  0.15798730  0.16819543  0.25725905  1
  Cu  Cu94  1  0.84159627  0.16997166  0.74510221  1
  Cu  Cu95  1  0.32913461  0.66444395  0.50128051  1
  Cu  Cu96  1  0.66738176  0.33537117  0.49979898  1
  Cu  Cu97  1  0.49601982  0.49438669  0.24812587  1
  Cu  Cu98  1  0.16457983  0.16320556  0.74209181  1
  Cu  Cu99  1  0.83995859  0.84149998  0.74310240  1
  Cu  Cu100  1  0.48510026  0.83577888  0.24694620  1
  Cu  Cu101  1  0.33102947  -0.00522068  0.50217402  1
  Cu  Cu102  1  0.33149116  0.00158234  -0.00708113  1
  Cu  Cu103  1  0.00656512  -0.00690753  -0.00103291  1
  Cu  Cu104  1  0.16757278  0.83970577  0.25651112  1
  Cu  Cu105  1  0.49507464  0.16913065  0.24992906  1
  Cu  Cu106  1  0.49394988  0.49777054  0.75026271  1
  Cu  Cu107  1  0.00034398  -0.00023603  0.50300509  1
  Cu  Cu108  1  0.32831452  0.66503509  -0.00337949  1
  Cu  Cu109  1  0.83539258  0.49049361  0.25748052  1
  Cu  Cu110  1  0.84366068  0.83159192  0.25720405  1
  Cu  Cu111  1  0.33659142  0.33358144  0.50446874  1
  Cu  Cu112  1  0.83658318  0.16070088  0.25682738  1
  Cu  Cu113  1  0.66528251  0.65948498  0.00156591  1
  Cu  Cu114  1  0.49719261  0.83378471  0.75097134  1
  Se  Se115  1  0.07624350  0.07933033  0.06188516  1
  Se  Se116  1  0.08651753  0.08311132  0.55275991  1
  Se  Se117  1  0.07558708  0.40999096  0.05983673  1
  Se  Se118  1  0.08341371  0.41294547  0.54609042  1
  Se  Se119  1  0.09250547  0.75705280  0.05667163  1
  Se  Se120  1  0.08737711  0.75233379  0.55470894  1
  Se  Se121  1  0.41205943  0.08358878  0.04925534  1
  Se  Se122  1  0.41140459  0.07708763  0.56130495  1
  Se  Se123  1  0.41071851  0.42024443  0.04973171  1
  Se  Se124  1  0.42102090  0.41809480  0.55503480  1
  Se  Se125  1  0.40806578  0.74503203  0.06055999  1
  Se  Se126  1  0.40710097  0.74728075  0.56283455  1
  Se  Se127  1  0.74300909  0.07259954  0.05722869  1
  Se  Se128  1  0.75184298  0.08807883  0.55545017  1
  Se  Se129  1  0.74422823  0.40198781  0.06054941  1
  Se  Se130  1  0.74708409  0.41472754  0.56211717  1
  Se  Se131  1  0.74870277  0.73977154  0.05670518  1
  Se  Se132  1  0.72875192  0.74242770  0.55303276  1
  Se  Se133  1  0.25846652  0.26206218  0.05626696  1
  Se  Se134  1  0.25632573  0.24516009  0.55513525  1
  Se  Se135  1  0.25294059  0.59133972  0.06502318  1
  Se  Se136  1  0.24667131  0.57942337  0.55453988  1
  Se  Se137  1  0.24785619  0.92310766  0.05021512  1
  Se  Se138  1  0.24519127  0.91104311  0.55139469  1
  Se  Se139  1  0.57077359  0.23857748  0.05334792  1
  Se  Se140  1  0.58901846  0.25933644  0.56546009  1
  Se  Se141  1  0.57926903  0.57812693  0.05214160  1
  Se  Se142  1  0.57643818  0.58829914  0.54453813  1
  Se  Se143  1  0.59122693  0.92216325  0.05383374  1
  Se  Se144  1  0.57910058  0.93364157  0.56615823  1
  Se  Se145  1  0.91939286  0.25019313  0.05890357  1
  Se  Se146  1  0.92203519  0.24870765  0.54254672  1
  Se  Se147  1  0.93119466  0.58937580  0.06044755  1
  Se  Se148  1  0.92583966  0.58878281  0.56284019  1
  Se  Se149  1  0.92343424  0.91780391  0.06077307  1
  Se  Se150  1  0.91479214  0.91496810  0.55428020  1
  Se  Se151  1  0.09894234  0.22868781  0.45209968  1
  Se  Se152  1  0.07647491  0.25169856  0.94132833  1
  Se  Se153  1  0.08358462  0.58439163  0.44605083  1
  Se  Se154  1  0.08263499  0.58733942  0.94007683  1
  Se  Se155  1  0.08530046  0.91573616  0.45052651  1
  Se  Se156  1  0.09001684  0.91311458  0.94489530  1
  Se  Se157  1  0.41119153  0.25434604  0.43826093  1
  Se  Se158  1  0.41138862  0.23859438  0.94268585  1
  Se  Se159  1  0.41518201  0.58168281  0.45019773  1
  Se  Se160  1  0.41335340  0.58033173  0.94732746  1
  Se  Se161  1  0.41341400  0.91760565  0.44118084  1
  Se  Se162  1  0.41381149  0.92528499  0.93061544  1
  Se  Se163  1  0.74974742  0.24846300  0.45043276  1
  Se  Se164  1  0.73897323  0.26432335  0.94342131  1
  Se  Se165  1  0.74285538  0.59277444  0.43972301  1
  Se  Se166  1  0.74535539  0.58592946  0.93725548  1
  Se  Se167  1  0.75017024  0.90956794  0.45518519  1
  Se  Se168  1  0.74154146  0.93050323  0.94119162  1
  Se  Se169  1  0.25085993  0.08255905  0.45044417  1
  Se  Se170  1  0.25616376  0.08381698  0.93041611  1
  Se  Se171  1  0.25047989  0.41844387  0.45519162  1
  Se  Se172  1  0.25460664  0.40481066  0.93966614  1
  Se  Se173  1  0.24735806  0.75155135  0.45012179  1
  Se  Se174  1  0.24890304  0.75176046  0.94481092  1
  Se  Se175  1  0.58986337  0.07595647  0.44250592  1
  Se  Se176  1  0.57721517  0.07830457  0.94157669  1
  Se  Se177  1  0.58225390  0.41739655  0.44846837  1
  Se  Se178  1  0.58480491  0.41682137  0.95711617  1
  Se  Se179  1  0.58421243  0.74378072  0.43409974  1
  Se  Se180  1  0.58747514  0.74040415  0.94004149  1
  Se  Se181  1  0.91494153  0.08321964  0.45041822  1
  Se  Se182  1  0.92834060  0.07556449  0.93983188  1
  Se  Se183  1  0.92139910  0.41869325  0.43381367  1
  Se  Se184  1  0.92075075  0.41660767  0.93889776  1
  Se  Se185  1  0.91656857  0.75272007  0.45021657  1
  Se  Se186  1  0.92880250  0.74214600  0.93970652  1
  Se  Se187  1  0.23733321  0.24942614  0.31749808  1
  Se  Se188  1  0.24730761  0.25061134  0.79384225  1
  Se  Se189  1  0.25226853  0.58877826  0.30642712  1
  Se  Se190  1  0.25047464  0.57877778  0.80311190  1
  Se  Se191  1  0.25155925  0.92457420  0.30839280  1
  Se  Se192  1  0.24276271  0.90974232  0.80072436  1
  Se  Se193  1  0.58354107  0.24895973  0.30007638  1
  Se  Se194  1  0.57808368  0.25670348  0.81559109  1
  Se  Se195  1  0.57810767  0.57460277  0.30965495  1
  Se  Se196  1  0.58072598  0.58284364  0.80412457  1
  Se  Se197  1  0.57196526  0.91137770  0.30535465  1
  Se  Se198  1  0.58968734  0.91704944  0.79417810  1
  Se  Se199  1  0.91731735  0.24571409  0.31038843  1
  Se  Se200  1  0.92150703  0.25708041  0.79838327  1
  Se  Se201  1  0.91637820  0.58240223  0.30305164  1
  Se  Se202  1  0.92587806  0.58894927  0.79532545  1
  Se  Se203  1  0.92195314  0.91869621  0.30947888  1
  Se  Se204  1  0.92230666  0.92235435  0.80074791  1
  Se  Se205  1  0.07922884  0.08029516  0.31005064  1
  Se  Se206  1  0.08244677  0.08043315  0.79782373  1
  Se  Se207  1  0.08706268  0.40532643  0.30877200  1
  Se  Se208  1  0.08545991  0.41327984  0.79911659  1
  Se  Se209  1  0.08573503  0.75377030  0.30947788  1
  Se  Se210  1  0.07922806  0.74445574  0.80154121  1
  Se  Se211  1  0.41085966  0.08270464  0.29780198  1
  Se  Se212  1  0.39344866  0.06000918  0.80082350  1
  Se  Se213  1  0.41607781  0.42099904  0.31398175  1
  Se  Se214  1  0.42054593  0.41230894  0.80856545  1
  Se  Se215  1  0.40874145  0.74838499  0.30090488  1
  Se  Se216  1  0.41352101  0.74740767  0.80023353  1
  Se  Se217  1  0.75415277  0.08097757  0.31647664  1
  Se  Se218  1  0.75593375  0.09823628  0.80611085  1
  Se  Se219  1  0.74543870  0.40738621  0.30273933  1
  Se  Se220  1  0.75880536  0.43180161  0.80766834  1
  Se  Se221  1  0.75245688  0.75295926  0.30908705  1
  Se  Se222  1  0.76204479  0.76488643  0.81060178  1
  Se  Se223  1  0.24499105  0.09387188  0.19793111  1
  Se  Se224  1  0.24920111  0.07672991  0.69323177  1
  Se  Se225  1  0.23660702  0.42845026  0.19291297  1
  Se  Se226  1  0.25350388  0.40951372  0.69069056  1
  Se  Se227  1  0.24807192  0.75618431  0.19869914  1
  Se  Se228  1  0.25008817  0.74552876  0.69592180  1
  Se  Se229  1  0.57418087  0.08742922  0.18791887  1
  Se  Se230  1  0.58732267  0.09198057  0.70939119  1
  Se  Se231  1  0.57904039  0.40993018  0.19612317  1
  Se  Se232  1  0.58214574  0.42724643  0.68904424  1
  Se  Se233  1  0.57124135  0.75554960  0.19060756  1
  Se  Se234  1  0.57544931  0.75852316  0.68510437  1
  Se  Se235  1  0.91989875  0.07580398  0.20521484  1
  Se  Se236  1  0.92376285  0.08673983  0.69137769  1
  Se  Se237  1  0.91971180  0.40831375  0.20296270  1
  Se  Se238  1  0.92415175  0.41403310  0.69516422  1
  Se  Se239  1  0.92592744  0.74685327  0.20399551  1
  Se  Se240  1  0.91845404  0.75179611  0.69359972  1
  Se  Se241  1  0.07874645  0.25255672  0.20127249  1
  Se  Se242  1  0.08570859  0.25076920  0.68780186  1
  Se  Se243  1  0.07876784  0.58841552  0.20373485  1
  Se  Se244  1  0.08765274  0.58028764  0.69474807  1
  Se  Se245  1  0.08578924  0.92221501  0.19924038  1
  Se  Se246  1  0.08156196  0.91754057  0.69381783  1
  Se  Se247  1  0.41722420  0.25122179  0.18906154  1
  Se  Se248  1  0.43349876  0.23118743  0.70142298  1
  Se  Se249  1  0.41248634  0.58272612  0.20097163  1
  Se  Se250  1  0.41220335  0.58206508  0.69709125  1
  Se  Se251  1  0.40874636  0.92374264  0.19311329  1
  Se  Se252  1  0.41260649  0.91731914  0.69925645  1
  Se  Se253  1  0.75195232  0.23895585  0.19896045  1
  Se  Se254  1  0.76132429  0.25071810  0.68482978  1
  Se  Se255  1  0.76082084  0.56753633  0.18793572  1
  Se  Se256  1  0.76078836  0.58258493  0.68650032  1
  Se  Se257  1  0.76173770  0.90416905  0.19199004  1
  Se  Se258  1  0.75308520  0.92567002  0.69524089  1
