# generated using pymatgen
data_In86Cu29Se144
_symmetry_space_group_name_H-M   'P 1'
_cell_length_a   17.57574467
_cell_length_b   17.57696890
_cell_length_c   23.44154282
_cell_angle_alpha   89.99111555
_cell_angle_beta   89.99565265
_cell_angle_gamma   89.97579015
_symmetry_Int_Tables_number   1
_chemical_formula_structural   In86Cu29Se144
_chemical_formula_sum   'In86 Cu29 Se144'
_cell_volume   7241.75562928
_cell_formula_units_Z   1
loop_
 _symmetry_equiv_pos_site_id
 _symmetry_equiv_pos_as_xyz
  1  'x, y, z'
loop_
 _atom_site_type_symbol
 _atom_site_label
 _atom_site_symmetry_multiplicity
 _atom_site_fract_x
 _atom_site_fract_y
 _atom_site_fract_z
 _atom_site_occupancy
  In  In0  1  0.00042145  0.16855511  0.12163766  1
  In  In1  1  -0.00888506  0.17715036  0.64081942  1
  In  In2  1  0.00430307  0.48885401  0.12056670  1
  In  In3  1  -0.00368386  0.50094377  0.62999482  1
  In  In4  1  0.01841431  0.83371932  0.12482321  1
  In  In5  1  0.01010819  0.82350013  0.63161926  1
  In  In6  1  0.32492168  0.15629680  0.11419329  1
  In  In7  1  0.34021023  0.17074247  0.62566313  1
  In  In8  1  0.32995369  0.51051647  0.12355084  1
  In  In9  1  0.34474954  0.49224446  0.63084726  1
  In  In10  1  0.33066945  0.83938107  0.13118712  1
  In  In11  1  0.31881239  0.82729567  0.61966085  1
  In  In12  1  0.67660074  0.17626064  0.11943232  1
  In  In13  1  0.67457083  0.17463004  0.61821062  1
  In  In14  1  0.66416326  0.50595927  0.14353012  1
  In  In15  1  0.64656631  0.48872303  0.60818222  1
  In  In16  1  0.65558485  0.82609479  0.13153606  1
  In  In17  1  0.65960112  0.83562664  0.61469969  1
  In  In18  1  0.15346122  -0.00754043  0.36679148  1
  In  In19  1  0.15332273  0.01574697  0.88402537  1
  In  In20  1  0.17105551  0.33122320  0.37655032  1
  In  In21  1  0.16900129  0.33289150  0.86741863  1
  In  In22  1  0.18518032  0.66743038  0.37161053  1
  In  In23  1  0.17046613  0.66845893  0.87884812  1
  In  In24  1  0.48939485  0.00997214  0.37972079  1
  In  In25  1  0.50995294  0.00762690  0.87653564  1
  In  In26  1  0.50495990  0.31691848  0.38417858  1
  In  In27  1  0.48983320  0.32746816  0.86466868  1
  In  In28  1  0.49948377  0.66468247  0.38237036  1
  In  In29  1  0.48905400  0.67388607  0.87529449  1
  In  In30  1  0.85012304  0.00014600  0.37370781  1
  In  In31  1  0.85335304  0.00282057  0.87483304  1
  In  In32  1  0.81533775  0.35170107  0.39221758  1
  In  In33  1  0.82461915  0.32725125  0.86744220  1
  In  In34  1  0.81714002  0.65256708  0.37242098  1
  In  In35  1  0.83311561  0.65207084  0.87428075  1
  In  In36  1  -0.00268778  0.15385073  0.37592401  1
  In  In37  1  0.00277536  0.16583060  0.87213352  1
  In  In38  1  -0.00645321  0.48753427  0.38036833  1
  In  In39  1  0.00808666  0.51072910  0.86372419  1
  In  In40  1  -0.00112153  0.84690926  0.37434190  1
  In  In41  1  0.01433509  0.84676807  0.86948238  1
  In  In42  1  0.34276547  0.16544487  0.37179047  1
  In  In43  1  0.31856077  0.18374290  0.88508857  1
  In  In44  1  0.32884118  0.51164768  0.37613814  1
  In  In45  1  0.33084675  0.49746380  0.87006728  1
  In  In46  1  0.33333963  0.83256181  0.37817687  1
  In  In47  1  0.32422039  0.81589413  0.87230758  1
  In  In48  1  0.66183315  0.17711032  0.37952624  1
  In  In49  1  0.65977027  0.17928342  0.88313092  1
  In  In50  1  0.66822226  0.49494856  0.37740843  1
  In  In51  1  0.67757345  0.49506021  0.87437015  1
  In  In52  1  0.66196992  0.81037626  0.37773445  1
  In  In53  1  0.65218139  0.83220179  0.87585493  1
  In  In54  1  0.17307756  0.00271055  0.12737096  1
  In  In55  1  0.17052147  -0.00682836  0.62869996  1
  In  In56  1  0.16317106  0.33094354  0.11192712  1
  In  In57  1  0.16857109  0.32642828  0.64114572  1
  In  In58  1  0.18450320  0.68457993  0.10403187  1
  In  In59  1  0.16017721  0.67217933  0.63048361  1
  In  In60  1  0.48452393  -0.00408999  0.12777872  1
  In  In61  1  0.49823342  0.00391929  0.61146304  1
  In  In62  1  0.51334338  0.33825704  0.12765859  1
  In  In63  1  0.49949471  0.33682122  0.62375523  1
  In  In64  1  0.49832205  0.66649872  0.13640656  1
  In  In65  1  0.48880101  0.65303107  0.60943099  1
  In  In66  1  0.83398723  0.02196208  0.12892819  1
  In  In67  1  0.83430869  0.00845500  0.62278602  1
  In  In68  1  0.83521257  0.32707801  0.12626875  1
  In  In69  1  0.82962526  0.33013037  0.62834026  1
  In  In70  1  0.82162218  0.65956448  0.12631556  1
  In  In71  1  0.84357309  0.66334665  0.62363705  1
  In  In72  1  0.49578878  0.83538542  0.00458148  1
  In  In73  1  0.49727498  0.50084866  0.00383041  1
  In  In74  1  -0.00436872  0.32964743  0.24561995  1
  In  In75  1  0.66764495  0.66197593  0.74559877  1
  In  In76  1  0.16723670  0.50024235  0.50028054  1
  In  In77  1  0.83879422  0.83830824  0.00230742  1
  In  In78  1  0.67363749  0.00449191  0.73886191  1
  In  In79  1  0.00060212  0.66534441  0.24624536  1
  In  In80  1  0.66467384  -0.00156149  0.25255189  1
  In  In81  1  0.83646503  0.49490578  -0.00045337  1
  In  In82  1  0.83255664  0.83163762  0.49233176  1
  In  In83  1  0.16887011  0.16523381  0.50796540  1
  In  In84  1  0.33620106  0.32683753  0.25294480  1
  In  In85  1  0.32961934  0.00694006  0.75086259  1
  Cu  Cu86  1  0.33435650  0.66975650  0.50046753  1
  Cu  Cu87  1  0.66602801  0.32871248  0.50216625  1
  Cu  Cu88  1  0.00360349  0.66967286  0.50340003  1
  Cu  Cu89  1  0.50003334  0.50101750  0.25624061  1
  Cu  Cu90  1  0.00444245  0.66798476  -0.00797698  1
  Cu  Cu91  1  0.33247372  -0.00515918  0.00125183  1
  Cu  Cu92  1  0.00307925  -0.00135319  0.49968877  1
  Cu  Cu93  1  0.00395990  0.33056681  -0.00774265  1
  Cu  Cu94  1  0.17349135  0.83429041  0.24715402  1
  Cu  Cu95  1  0.49952295  0.17675479  0.74960195  1
  Cu  Cu96  1  0.16708465  0.50430812  0.24428157  1
  Cu  Cu97  1  0.83548194  0.83396868  0.25514519  1
  Cu  Cu98  1  0.83263371  0.16365626  0.75095409  1
  Cu  Cu99  1  0.50178942  0.50160521  0.74232381  1
  Cu  Cu100  1  0.66154505  0.00169888  0.49525529  1
  Cu  Cu101  1  0.66545106  0.33216357  0.00069636  1
  Cu  Cu102  1  0.84215220  0.82495870  0.75009194  1
  Cu  Cu103  1  0.49200000  0.83197223  0.74287749  1
  Cu  Cu104  1  -0.00616848  0.32628487  0.50956830  1
  Cu  Cu105  1  0.00577195  0.00833355  0.00093991  1
  Cu  Cu106  1  0.83307894  0.49362226  0.74635674  1
  Cu  Cu107  1  0.50184708  0.16528393  0.25244679  1
  Cu  Cu108  1  0.33358449  0.32999147  -0.00912423  1
  Cu  Cu109  1  0.83458920  0.17670382  0.25110492  1
  Cu  Cu110  1  0.49722058  0.82406966  0.25725844  1
  Cu  Cu111  1  0.67411194  0.00721543  -0.00056365  1
  Cu  Cu112  1  0.16560731  0.83191885  0.75215209  1
  Cu  Cu113  1  0.32892372  -0.00103369  0.49855882  1
  Cu  Cu114  1  0.16855129  0.50436014  0.75081806  1
  Se  Se115  1  0.09006687  0.08708532  0.05758422  1
  Se  Se116  1  0.07346824  0.07950468  0.56614271  1
  Se  Se117  1  0.08372247  0.41812920  0.04451183  1
  Se  Se118  1  0.08254972  0.40649981  0.56301293  1
  Se  Se119  1  0.08266067  0.75691751  0.04423070  1
  Se  Se120  1  0.08802650  0.75267795  0.55330238  1
  Se  Se121  1  0.42025588  0.07855887  0.05005747  1
  Se  Se122  1  0.40914002  0.08797230  0.54946714  1
  Se  Se123  1  0.40724760  0.40557285  0.06056272  1
  Se  Se124  1  0.43151349  0.43207262  0.55505770  1
  Se  Se125  1  0.41023013  0.74201450  0.06262737  1
  Se  Se126  1  0.41480601  0.75772490  0.55302651  1
  Se  Se127  1  0.75790536  0.09129391  0.05057157  1
  Se  Se128  1  0.74659013  0.07864011  0.55195568  1
  Se  Se129  1  0.73946917  0.41604040  0.06287801  1
  Se  Se130  1  0.75138035  0.41167156  0.55498706  1
  Se  Se131  1  0.74169575  0.74890334  0.05621105  1
  Se  Se132  1  0.74867877  0.74246562  0.55597838  1
  Se  Se133  1  0.25027298  0.24811683  0.04748615  1
  Se  Se134  1  0.25577279  0.26440291  0.56007939  1
  Se  Se135  1  0.23693405  0.56764403  0.05141116  1
  Se  Se136  1  0.25408830  0.58890073  0.56270243  1
  Se  Se137  1  0.25005726  0.91379359  0.05664551  1
  Se  Se138  1  0.24313981  0.91741237  0.55125413  1
  Se  Se139  1  0.58097675  0.25034119  0.05422220  1
  Se  Se140  1  0.57856269  0.24755889  0.55463625  1
  Se  Se141  1  0.58862838  0.58770907  0.06497654  1
  Se  Se142  1  0.59658867  0.59965795  0.54715935  1
  Se  Se143  1  0.59355010  0.92720243  0.06016199  1
  Se  Se144  1  0.57831162  0.91584791  0.54527572  1
  Se  Se145  1  0.92054182  0.25652301  0.05358807  1
  Se  Se146  1  0.91148026  0.24094132  0.56071731  1
  Se  Se147  1  0.92466269  0.59334751  0.05673955  1
  Se  Se148  1  0.92339373  0.58125767  0.55289997  1
  Se  Se149  1  0.92501295  0.92981758  0.06399088  1
  Se  Se150  1  0.92176811  0.91478907  0.55910518  1
  Se  Se151  1  0.07567373  0.25483053  0.44474186  1
  Se  Se152  1  0.08848541  0.24889811  0.93908304  1
  Se  Se153  1  0.07968295  0.59077449  0.43653981  1
  Se  Se154  1  0.08459429  0.57874970  0.94284432  1
  Se  Se155  1  0.08585255  0.91471043  0.44769384  1
  Se  Se156  1  0.08498216  0.91738464  0.95075443  1
  Se  Se157  1  0.40628468  0.24763070  0.44756575  1
  Se  Se158  1  0.42582999  0.24838471  0.94543991  1
  Se  Se159  1  0.41364823  0.58006859  0.45033734  1
  Se  Se160  1  0.40658149  0.59021252  0.94516413  1
  Se  Se161  1  0.41603642  0.91721656  0.44662034  1
  Se  Se162  1  0.41131316  0.92034405  0.93504404  1
  Se  Se163  1  0.75318511  0.24332848  0.45183610  1
  Se  Se164  1  0.75495950  0.25328645  0.94868492  1
  Se  Se165  1  0.75397370  0.57206229  0.44910298  1
  Se  Se166  1  0.73879457  0.59077428  0.94905406  1
  Se  Se167  1  0.74180242  0.92390097  0.43237329  1
  Se  Se168  1  0.74420280  0.92251817  0.93694859  1
  Se  Se169  1  0.24784174  0.07823946  0.43782944  1
  Se  Se170  1  0.25178089  0.08352860  0.94913621  1
  Se  Se171  1  0.26044435  0.40830923  0.44440922  1
  Se  Se172  1  0.25072060  0.41500310  0.93991290  1
  Se  Se173  1  0.24751995  0.75130304  0.44870290  1
  Se  Se174  1  0.24855599  0.75083590  0.95095949  1
  Se  Se175  1  0.57932147  0.08932019  0.44480161  1
  Se  Se176  1  0.58381674  0.08763739  0.95018075  1
  Se  Se177  1  0.58353451  0.41084878  0.44645139  1
  Se  Se178  1  0.58560920  0.41209286  0.93975986  1
  Se  Se179  1  0.58201231  0.74447667  0.45383744  1
  Se  Se180  1  0.58753063  0.73877187  0.94805154  1
  Se  Se181  1  0.91518211  0.08248179  0.45179453  1
  Se  Se182  1  0.91959812  0.08912237  0.94818547  1
  Se  Se183  1  0.91668089  0.41751298  0.45771038  1
  Se  Se184  1  0.92304400  0.41267390  0.93260532  1
  Se  Se185  1  0.92358066  0.73969481  0.43400404  1
  Se  Se186  1  0.91963767  0.74742340  0.93504299  1
  Se  Se187  1  0.23838747  0.23698787  0.30619850  1
  Se  Se188  1  0.25886322  0.25292524  0.80136708  1
  Se  Se189  1  0.25430495  0.58354740  0.29677787  1
  Se  Se190  1  0.25087735  0.58804813  0.80527080  1
  Se  Se191  1  0.25171288  0.91494545  0.30700182  1
  Se  Se192  1  0.24272427  0.91620253  0.81271594  1
  Se  Se193  1  0.58346161  0.25106795  0.30337741  1
  Se  Se194  1  0.58968613  0.25319364  0.80288533  1
  Se  Se195  1  0.58216414  0.58258243  0.31215881  1
  Se  Se196  1  0.57635083  0.57793017  0.81152934  1
  Se  Se197  1  0.57734720  0.90974217  0.31500849  1
  Se  Se198  1  0.57604042  0.91379872  0.79834343  1
  Se  Se199  1  0.91030775  0.25281297  0.31768835  1
  Se  Se200  1  0.91574454  0.24821448  0.80373673  1
  Se  Se201  1  0.91554258  0.57294484  0.30734422  1
  Se  Se202  1  0.91194297  0.58342057  0.79755943  1
  Se  Se203  1  0.92271164  0.92107818  0.29714857  1
  Se  Se204  1  0.91902197  0.91564623  0.80111592  1
  Se  Se205  1  0.08133507  0.08785222  0.30239971  1
  Se  Se206  1  0.07728747  0.07556232  0.80332120  1
  Se  Se207  1  0.09177677  0.42315229  0.30594481  1
  Se  Se208  1  0.08379617  0.41732280  0.79981428  1
  Se  Se209  1  0.08952539  0.75531728  0.30829822  1
  Se  Se210  1  0.08378487  0.74657161  0.80702137  1
  Se  Se211  1  0.41553525  0.07990315  0.29890489  1
  Se  Se212  1  0.42385451  0.09312476  0.81052576  1
  Se  Se213  1  0.42059374  0.41834138  0.31545649  1
  Se  Se214  1  0.41744833  0.42123526  0.79949145  1
  Se  Se215  1  0.41284948  0.74273278  0.31126814  1
  Se  Se216  1  0.41335129  0.74864876  0.79900791  1
  Se  Se217  1  0.75676199  0.08980937  0.31010314  1
  Se  Se218  1  0.75119028  0.08574398  0.81362672  1
  Se  Se219  1  0.75049528  0.41275600  0.30710571  1
  Se  Se220  1  0.74532239  0.41407054  0.79841811  1
  Se  Se221  1  0.75136060  0.74793586  0.30276355  1
  Se  Se222  1  0.75266573  0.75611653  0.81064298  1
  Se  Se223  1  0.26627891  0.07637370  0.19415438  1
  Se  Se224  1  0.24003736  0.09744175  0.69210377  1
  Se  Se225  1  0.24473292  0.41419317  0.18958053  1
  Se  Se226  1  0.25284585  0.42038792  0.69900843  1
  Se  Se227  1  0.24881519  0.74461867  0.19302200  1
  Se  Se228  1  0.25034335  0.75014039  0.69864925  1
  Se  Se229  1  0.58092483  0.08745077  0.18756175  1
  Se  Se230  1  0.57329250  0.09172690  0.68758466  1
  Se  Se231  1  0.58345967  0.41430752  0.20595055  1
  Se  Se232  1  0.58716471  0.41678637  0.69381476  1
  Se  Se233  1  0.58529305  0.74409381  0.20587335  1
  Se  Se234  1  0.57657884  0.75216702  0.68621070  1
  Se  Se235  1  0.92059097  0.09427924  0.19943536  1
  Se  Se236  1  0.91402850  0.07587520  0.70009472  1
  Se  Se237  1  0.90640827  0.42905939  0.19294934  1
  Se  Se238  1  0.91886883  0.40965987  0.69577005  1
  Se  Se239  1  0.91094562  0.75861862  0.18611289  1
  Se  Se240  1  0.92288226  0.74056620  0.69707430  1
  Se  Se241  1  0.09545214  0.24636268  0.19116149  1
  Se  Se242  1  0.08206807  0.24926149  0.70706546  1
  Se  Se243  1  0.09065289  0.58279032  0.18153444  1
  Se  Se244  1  0.08134990  0.58384168  0.69677437  1
  Se  Se245  1  0.08804139  0.91899233  0.19718184  1
  Se  Se246  1  0.08405115  0.91639990  0.69828131  1
  Se  Se247  1  0.42378610  0.24280492  0.18709029  1
  Se  Se248  1  0.41515021  0.25718245  0.69576788  1
  Se  Se249  1  0.41475465  0.57777903  0.19922462  1
  Se  Se250  1  0.41876956  0.59066922  0.69497287  1
  Se  Se251  1  0.41864156  0.91120381  0.20308893  1
  Se  Se252  1  0.41688004  0.91852294  0.68543000  1
  Se  Se253  1  0.74723904  0.25471528  0.19764211  1
  Se  Se254  1  0.74681191  0.24566297  0.69822057  1
  Se  Se255  1  0.75171220  0.58964323  0.20535474  1
  Se  Se256  1  0.75190960  0.57126351  0.68383205  1
  Se  Se257  1  0.75744860  0.91223477  0.18917442  1
  Se  Se258  1  0.76024255  0.90055165  0.68749913  1
