# generated using pymatgen
data_In86Cu29Se144
_symmetry_space_group_name_H-M   'P 1'
_cell_length_a   17.58173010
_cell_length_b   17.58385216
_cell_length_c   23.44604078
_cell_angle_alpha   90.00669025
_cell_angle_beta   89.99831353
_cell_angle_gamma   90.02261268
_symmetry_Int_Tables_number   1
_chemical_formula_structural   In86Cu29Se144
_chemical_formula_sum   'In86 Cu29 Se144'
_cell_volume   7248.44940382
_cell_formula_units_Z   1
loop_
 _symmetry_equiv_pos_site_id
 _symmetry_equiv_pos_as_xyz
  1  'x, y, z'
loop_
 _atom_site_type_symbol
 _atom_site_label
 _atom_site_symmetry_multiplicity
 _atom_site_fract_x
 _atom_site_fract_y
 _atom_site_fract_z
 _atom_site_occupancy
  In  In0  1  -0.01711778  0.16755052  0.12572859  1
  In  In1  1  -0.00308405  0.17511609  0.61777563  1
  In  In2  1  0.00067456  0.49818199  0.11934343  1
  In  In3  1  -0.00539984  0.49566392  0.61464699  1
  In  In4  1  -0.00275485  0.84879670  0.12608484  1
  In  In5  1  -0.00637214  0.83095382  0.62337704  1
  In  In6  1  0.33678425  0.16694420  0.13079844  1
  In  In7  1  0.35278190  0.16159338  0.63424147  1
  In  In8  1  0.33038994  0.50958093  0.13004271  1
  In  In9  1  0.33344450  0.49987387  0.63032615  1
  In  In10  1  0.34815272  0.82138115  0.12794780  1
  In  In11  1  0.33736381  0.82431671  0.63800204  1
  In  In12  1  0.67058731  0.15748021  0.12979249  1
  In  In13  1  0.66685993  0.17013237  0.62199703  1
  In  In14  1  0.67550156  0.49752956  0.13573508  1
  In  In15  1  0.66935374  0.49392459  0.63252056  1
  In  In16  1  0.66333831  0.83070498  0.12266902  1
  In  In17  1  0.66489382  0.84243246  0.64126028  1
  In  In18  1  0.16592023  -0.00304715  0.36803668  1
  In  In19  1  0.18672573  -0.01177095  0.87413275  1
  In  In20  1  0.18288017  0.34029842  0.37383559  1
  In  In21  1  0.18197150  0.33997035  0.87376267  1
  In  In22  1  0.17159909  0.65406137  0.37795237  1
  In  In23  1  0.16305437  0.66093844  0.87703663  1
  In  In24  1  0.50891836  0.00852230  0.36934146  1
  In  In25  1  0.49410497  -0.00939646  0.86764088  1
  In  In26  1  0.49360433  0.32993915  0.37341121  1
  In  In27  1  0.50705006  0.34564571  0.85259288  1
  In  In28  1  0.49963027  0.66250654  0.36988031  1
  In  In29  1  0.51229055  0.66402384  0.86574230  1
  In  In30  1  0.83322308  0.00540482  0.36722807  1
  In  In31  1  0.82272914  0.00480854  0.88251814  1
  In  In32  1  0.81769842  0.34373051  0.37848082  1
  In  In33  1  0.82545099  0.34165632  0.88272758  1
  In  In34  1  0.82511482  0.66587081  0.37332529  1
  In  In35  1  0.82065235  0.67484876  0.88885384  1
  In  In36  1  -0.00541213  0.15406494  0.37146412  1
  In  In37  1  -0.00997956  0.15953797  0.87529410  1
  In  In38  1  -0.00324691  0.50125010  0.37921655  1
  In  In39  1  -0.00452397  0.50222346  0.88640753  1
  In  In40  1  -0.01257519  0.83856650  0.36940547  1
  In  In41  1  -0.00386001  0.82539097  0.88202572  1
  In  In42  1  0.34292718  0.17553316  0.37266973  1
  In  In43  1  0.35513704  0.17454275  0.85807696  1
  In  In44  1  0.33436028  0.50034165  0.37395849  1
  In  In45  1  0.33329616  0.50129833  0.87005548  1
  In  In46  1  0.33134760  0.83070800  0.37028610  1
  In  In47  1  0.34143022  0.83555968  0.86970463  1
  In  In48  1  0.66370649  0.17163479  0.37483094  1
  In  In49  1  0.66778676  0.17619899  0.86549665  1
  In  In50  1  0.67819674  0.50433767  0.36460568  1
  In  In51  1  0.67228332  0.50671255  0.86929817  1
  In  In52  1  0.66234438  0.83349650  0.36629741  1
  In  In53  1  0.66982909  0.82876227  0.87584812  1
  In  In54  1  0.16863250  0.00134558  0.13154164  1
  In  In55  1  0.17303668  0.00237184  0.62780301  1
  In  In56  1  0.17354895  0.34659289  0.12403668  1
  In  In57  1  0.17012011  0.34687051  0.62030567  1
  In  In58  1  0.18754359  0.66407169  0.12152910  1
  In  In59  1  0.20064168  0.64562043  0.63333287  1
  In  In60  1  0.50872353  -0.01070624  0.12856670  1
  In  In61  1  0.50065287  0.00967604  0.63224707  1
  In  In62  1  0.50334371  0.33300617  0.13331666  1
  In  In63  1  0.52109910  0.32302197  0.64973789  1
  In  In64  1  0.48930773  0.67884499  0.12702253  1
  In  In65  1  0.49540249  0.66560593  0.63786978  1
  In  In66  1  0.82786591  0.00020201  0.12337349  1
  In  In67  1  0.79234591  0.01286656  0.63483586  1
  In  In68  1  0.82717323  0.33055226  0.12181218  1
  In  In69  1  0.82363437  0.32568272  0.61607800  1
  In  In70  1  0.81905716  0.65485674  0.11843665  1
  In  In71  1  0.83608831  0.66025874  0.62790990  1
  In  In72  1  0.16500332  0.82710571  0.50528699  1
  In  In73  1  0.16468382  0.83404996  0.00051220  1
  In  In74  1  0.00124929  0.67137380  0.25369600  1
  In  In75  1  0.16665826  0.17147225  0.49170269  1
  In  In76  1  0.49764420  0.49554457  0.50531719  1
  In  In77  1  0.00026488  -0.00064985  0.75399547  1
  In  In78  1  0.16729606  0.16832570  -0.01060243  1
  In  In79  1  -0.00017959  0.66787679  0.75818339  1
  In  In80  1  0.50119470  0.16567335  -0.01125236  1
  In  In81  1  0.50337934  0.50553915  -0.00633141  1
  In  In82  1  -0.00044231  0.32952098  0.24062731  1
  In  In83  1  0.83137281  0.83494232  0.49998315  1
  In  In84  1  0.49534842  0.83050405  0.51115480  1
  In  In85  1  0.00357807  0.33290154  0.73996712  1
  Cu  Cu86  1  0.66344627  0.01370797  0.49774529  1
  Cu  Cu87  1  0.17463973  0.50103793  0.24987940  1
  Cu  Cu88  1  -0.00804827  0.33452103  0.49568873  1
  Cu  Cu89  1  0.33407767  0.34379803  -0.00298086  1
  Cu  Cu90  1  0.66957308  0.32978346  0.00094889  1
  Cu  Cu91  1  -0.00931558  0.00707524  0.00270158  1
  Cu  Cu92  1  0.50414929  0.50049096  0.25119714  1
  Cu  Cu93  1  0.34423108  0.00255558  0.50348061  1
  Cu  Cu94  1  0.82758716  0.16595794  0.24836683  1
  Cu  Cu95  1  0.00404627  0.65673845  0.50290125  1
  Cu  Cu96  1  0.82909080  0.83747476  0.24504088  1
  Cu  Cu97  1  0.49836373  0.83608114  0.24854206  1
  Cu  Cu98  1  0.18039316  0.16019972  0.74968400  1
  Cu  Cu99  1  0.33817603  0.33299131  0.50135772  1
  Cu  Cu100  1  0.49738058  0.16645514  0.25204672  1
  Cu  Cu101  1  0.17206228  0.83632017  0.24474702  1
  Cu  Cu102  1  -0.00244185  0.33445952  0.00511399  1
  Cu  Cu103  1  0.66262796  0.66513497  0.00012461  1
  Cu  Cu104  1  0.66890918  0.66495036  0.49969066  1
  Cu  Cu105  1  0.16576087  0.50223908  0.75019448  1
  Cu  Cu106  1  0.66238426  0.33399093  0.50140374  1
  Cu  Cu107  1  -0.00316742  0.66570629  0.00293358  1
  Cu  Cu108  1  -0.01147015  0.00030335  0.49717850  1
  Cu  Cu109  1  0.17043946  0.16414217  0.25395122  1
  Cu  Cu110  1  0.66635149  -0.00625666  0.00329876  1
  Cu  Cu111  1  0.34139281  -0.00585217  -0.00333321  1
  Cu  Cu112  1  0.82273897  0.49874677  0.75335736  1
  Cu  Cu113  1  0.82982292  0.17124262  0.74659019  1
  Cu  Cu114  1  0.50880035  0.83137722  0.75370739  1
  Se  Se115  1  0.08076391  0.08321057  0.05782264  1
  Se  Se116  1  0.07911675  0.07563113  0.55407661  1
  Se  Se117  1  0.08690995  0.41673141  0.05237968  1
  Se  Se118  1  0.07993126  0.41289130  0.54846832  1
  Se  Se119  1  0.07740056  0.74447547  0.06515301  1
  Se  Se120  1  0.07986254  0.73450915  0.56659811  1
  Se  Se121  1  0.41601483  0.08008439  0.05731269  1
  Se  Se122  1  0.42596609  0.08694364  0.55531106  1
  Se  Se123  1  0.41912113  0.41411691  0.05961253  1
  Se  Se124  1  0.41853019  0.40210645  0.56884759  1
  Se  Se125  1  0.41408711  0.74804564  0.04796045  1
  Se  Se126  1  0.40358331  0.73436627  0.56051644  1
  Se  Se127  1  0.74720114  0.08404012  0.05272070  1
  Se  Se128  1  0.75326949  0.09292452  0.54860465  1
  Se  Se129  1  0.74436944  0.41822111  0.05619933  1
  Se  Se130  1  0.74459603  0.42062065  0.55448688  1
  Se  Se131  1  0.74770942  0.74981539  0.05259466  1
  Se  Se132  1  0.74141256  0.74910609  0.56259860  1
  Se  Se133  1  0.25878487  0.25408200  0.05397219  1
  Se  Se134  1  0.25628604  0.24921828  0.55999762  1
  Se  Se135  1  0.25163079  0.57409939  0.05083218  1
  Se  Se136  1  0.24625738  0.56173454  0.55229570  1
  Se  Se137  1  0.25666624  0.92316762  0.05970726  1
  Se  Se138  1  0.26247640  0.91998741  0.55921293  1
  Se  Se139  1  0.58522868  0.25101258  0.05784898  1
  Se  Se140  1  0.57882188  0.25788631  0.56002595  1
  Se  Se141  1  0.58675906  0.58628908  0.06483265  1
  Se  Se142  1  0.58634681  0.59171788  0.56258103  1
  Se  Se143  1  0.57844230  0.91089911  0.05133158  1
  Se  Se144  1  0.59522385  0.92194733  0.55834272  1
  Se  Se145  1  0.91148557  0.24910134  0.05200690  1
  Se  Se146  1  0.91170630  0.24778923  0.54740815  1
  Se  Se147  1  0.91385786  0.57980278  0.05387036  1
  Se  Se148  1  0.90825381  0.58167094  0.55134766  1
  Se  Se149  1  0.91148448  0.91750215  0.05263650  1
  Se  Se150  1  0.91179520  0.92878543  0.56414230  1
  Se  Se151  1  0.07433142  0.26051839  0.43184993  1
  Se  Se152  1  0.07333053  0.26233147  0.93506470  1
  Se  Se153  1  0.08667246  0.57673357  0.44688165  1
  Se  Se154  1  0.08304167  0.58494165  0.95054348  1
  Se  Se155  1  0.07387519  0.91958717  0.44289752  1
  Se  Se156  1  0.07650520  0.93201533  0.94177674  1
  Se  Se157  1  0.42071927  0.24837949  0.44945668  1
  Se  Se158  1  0.41628608  0.26775619  0.93591906  1
  Se  Se159  1  0.41331006  0.59065161  0.44543570  1
  Se  Se160  1  0.41165070  0.59436218  0.93765477  1
  Se  Se161  1  0.41674048  0.91858255  0.44082177  1
  Se  Se162  1  0.42323489  0.91019428  0.94460979  1
  Se  Se163  1  0.74649911  0.25166636  0.44681898  1
  Se  Se164  1  0.74752056  0.24506866  0.94412481  1
  Se  Se165  1  0.74879443  0.58229992  0.44458830  1
  Se  Se166  1  0.74568508  0.57581116  0.95040178  1
  Se  Se167  1  0.73938097  0.92424167  0.43996388  1
  Se  Se168  1  0.75044253  0.91083122  0.94881133  1
  Se  Se169  1  0.25796873  0.07363406  0.44043948  1
  Se  Se170  1  0.27043655  0.08348370  0.93719424  1
  Se  Se171  1  0.25697866  0.41849365  0.44872732  1
  Se  Se172  1  0.24950136  0.42717392  0.94640093  1
  Se  Se173  1  0.25816315  0.74221394  0.44551278  1
  Se  Se174  1  0.25450902  0.74827834  0.94025998  1
  Se  Se175  1  0.57638844  0.09212708  0.44531580  1
  Se  Se176  1  0.59281684  0.07230628  0.93569028  1
  Se  Se177  1  0.58880291  0.41667601  0.43844365  1
  Se  Se178  1  0.58892524  0.40627612  0.93785736  1
  Se  Se179  1  0.58689638  0.74683880  0.44331056  1
  Se  Se180  1  0.58213525  0.74515764  0.94280741  1
  Se  Se181  1  0.90760848  0.08436043  0.44416488  1
  Se  Se182  1  0.90790151  0.09029136  0.94969015  1
  Se  Se183  1  0.90938298  0.42047804  0.44473961  1
  Se  Se184  1  0.91195714  0.41773085  0.95214786  1
  Se  Se185  1  0.92614666  0.74098636  0.44346545  1
  Se  Se186  1  0.91335874  0.75222526  0.95410355  1
  Se  Se187  1  0.25242687  0.25094579  0.30386774  1
  Se  Se188  1  0.25208143  0.25203890  0.80311187  1
  Se  Se189  1  0.25580549  0.58672699  0.30284513  1
  Se  Se190  1  0.24587274  0.58699638  0.80421623  1
  Se  Se191  1  0.25395868  0.91811888  0.30218537  1
  Se  Se192  1  0.25881474  0.91503999  0.79853970  1
  Se  Se193  1  0.58026604  0.25203918  0.30436496  1
  Se  Se194  1  0.56730011  0.23413411  0.79816424  1
  Se  Se195  1  0.58746919  0.58704524  0.30211986  1
  Se  Se196  1  0.56904787  0.55802734  0.79997473  1
  Se  Se197  1  0.58354230  0.92032828  0.29987284  1
  Se  Se198  1  0.59206307  0.91570963  0.80557972  1
  Se  Se199  1  0.91045509  0.24694406  0.30740032  1
  Se  Se200  1  0.91266820  0.25033030  0.80553124  1
  Se  Se201  1  0.90978388  0.57572039  0.30544911  1
  Se  Se202  1  0.90606471  0.57619940  0.81375083  1
  Se  Se203  1  0.91444527  0.92098179  0.29759999  1
  Se  Se204  1  0.91130782  0.91266256  0.81556752  1
  Se  Se205  1  0.08201643  0.08128404  0.30162188  1
  Se  Se206  1  0.09623272  0.08972030  0.81257898  1
  Se  Se207  1  0.08741292  0.42132020  0.30535145  1
  Se  Se208  1  0.08194056  0.42357783  0.80894832  1
  Se  Se209  1  0.09547485  0.76074602  0.31305989  1
  Se  Se210  1  0.09292918  0.76391203  0.80993798  1
  Se  Se211  1  0.41317958  0.08228074  0.30449671  1
  Se  Se212  1  0.42274580  0.07670684  0.79580640  1
  Se  Se213  1  0.41755553  0.41931209  0.30522316  1
  Se  Se214  1  0.39654919  0.40811352  0.79946596  1
  Se  Se215  1  0.41830287  0.75011328  0.30422260  1
  Se  Se216  1  0.42170016  0.74752503  0.80264676  1
  Se  Se217  1  0.74272585  0.08533006  0.30388882  1
  Se  Se218  1  0.75466413  0.08577070  0.80462103  1
  Se  Se219  1  0.74805610  0.41054608  0.29732018  1
  Se  Se220  1  0.74514548  0.40791447  0.80437981  1
  Se  Se221  1  0.75246000  0.75279255  0.30285754  1
  Se  Se222  1  0.74034586  0.73198862  0.80908365  1
  Se  Se223  1  0.25413033  0.08289955  0.19788963  1
  Se  Se224  1  0.26076678  0.07661803  0.69565794  1
  Se  Se225  1  0.25756240  0.41498104  0.19843505  1
  Se  Se226  1  0.24698590  0.41502587  0.69836285  1
  Se  Se227  1  0.25456459  0.74854477  0.19642961  1
  Se  Se228  1  0.23257669  0.75840796  0.69654106  1
  Se  Se229  1  0.57899080  0.08324539  0.19636522  1
  Se  Se230  1  0.61881464  0.05887402  0.68641991  1
  Se  Se231  1  0.58707634  0.41472810  0.20020770  1
  Se  Se232  1  0.56922432  0.44234303  0.70449316  1
  Se  Se233  1  0.58150510  0.75115794  0.19528414  1
  Se  Se234  1  0.58887330  0.74389734  0.70075811  1
  Se  Se235  1  0.91161276  0.08083532  0.19621226  1
  Se  Se236  1  0.91383086  0.09047872  0.68897604  1
  Se  Se237  1  0.90825267  0.42547279  0.19052737  1
  Se  Se238  1  0.90446623  0.42333576  0.68994612  1
  Se  Se239  1  0.91161293  0.75433316  0.18810765  1
  Se  Se240  1  0.90855056  0.75697696  0.69789546  1
  Se  Se241  1  0.09572775  0.23917263  0.18449448  1
  Se  Se242  1  0.09901487  0.23730673  0.68775366  1
  Se  Se243  1  0.09005510  0.58025747  0.19134848  1
  Se  Se244  1  0.07980660  0.57635492  0.68944213  1
  Se  Se245  1  0.08289724  0.91976283  0.19860046  1
  Se  Se246  1  0.08713244  0.91029209  0.69059503  1
  Se  Se247  1  0.41525226  0.25250045  0.19884616  1
  Se  Se248  1  0.41067532  0.25899813  0.70331167  1
  Se  Se249  1  0.42078747  0.58422475  0.19698131  1
  Se  Se250  1  0.39425757  0.59865215  0.69866181  1
  Se  Se251  1  0.41338137  0.91902031  0.19577744  1
  Se  Se252  1  0.42724491  0.91210003  0.69528870  1
  Se  Se253  1  0.74732968  0.25108172  0.19433411  1
  Se  Se254  1  0.74631346  0.25569778  0.69423079  1
  Se  Se255  1  0.74805326  0.59225981  0.20123320  1
  Se  Se256  1  0.74823678  0.58683218  0.69754083  1
  Se  Se257  1  0.74351375  0.91831495  0.19162192  1
  Se  Se258  1  0.77052558  0.90287662  0.70294214  1
