# generated using pymatgen
data_In86Cu29Se144
_symmetry_space_group_name_H-M   'P 1'
_cell_length_a   17.58574636
_cell_length_b   17.58066340
_cell_length_c   23.44593790
_cell_angle_alpha   89.98932736
_cell_angle_beta   90.00926337
_cell_angle_gamma   89.99279698
_symmetry_Int_Tables_number   1
_chemical_formula_structural   In86Cu29Se144
_chemical_formula_sum   'In86 Cu29 Se144'
_cell_volume   7248.75894884
_cell_formula_units_Z   1
loop_
 _symmetry_equiv_pos_site_id
 _symmetry_equiv_pos_as_xyz
  1  'x, y, z'
loop_
 _atom_site_type_symbol
 _atom_site_label
 _atom_site_symmetry_multiplicity
 _atom_site_fract_x
 _atom_site_fract_y
 _atom_site_fract_z
 _atom_site_occupancy
  In  In0  1  0.01720334  0.17337008  0.12754743  1
  In  In1  1  0.01489359  0.18223992  0.62741914  1
  In  In2  1  -0.00208138  0.50279869  0.12449573  1
  In  In3  1  -0.00122042  0.50453267  0.62654163  1
  In  In4  1  -0.00882236  0.82750479  0.12036823  1
  In  In5  1  -0.01826179  0.81306611  0.61617862  1
  In  In6  1  0.32403343  0.15621840  0.12989086  1
  In  In7  1  0.34375738  0.15722532  0.62249071  1
  In  In8  1  0.33480468  0.51807286  0.12795318  1
  In  In9  1  0.35698159  0.51383860  0.60069868  1
  In  In10  1  0.34287913  0.82544684  0.13328481  1
  In  In11  1  0.33296501  0.83165893  0.62026032  1
  In  In12  1  0.66717695  0.18237780  0.12629328  1
  In  In13  1  0.65775078  0.17218866  0.62329621  1
  In  In14  1  0.66897031  0.49453851  0.12354694  1
  In  In15  1  0.68521944  0.53604843  0.59414433  1
  In  In16  1  0.66809458  0.83027552  0.11662772  1
  In  In17  1  0.64073930  0.78887296  0.59196125  1
  In  In18  1  0.16806817  -0.01646013  0.37033811  1
  In  In19  1  0.17836414  0.00219894  0.87978198  1
  In  In20  1  0.17073962  0.34951193  0.37588311  1
  In  In21  1  0.15609845  0.35214994  0.89041342  1
  In  In22  1  0.16442111  0.66695137  0.37314737  1
  In  In23  1  0.15489059  0.65281561  0.86382797  1
  In  In24  1  0.49281287  0.00372883  0.37908705  1
  In  In25  1  0.50136978  -0.00409859  0.88566333  1
  In  In26  1  0.49904921  0.32314043  0.37811116  1
  In  In27  1  0.48956708  0.33094246  0.87969675  1
  In  In28  1  0.49422181  0.67842478  0.38723879  1
  In  In29  1  0.50827948  0.68370062  0.84975216  1
  In  In30  1  0.82865972  -0.00745350  0.37168780  1
  In  In31  1  0.82166484  -0.00795814  0.87917716  1
  In  In32  1  0.84152231  0.34815779  0.36681367  1
  In  In33  1  0.85088978  0.34396086  0.87264234  1
  In  In34  1  0.83728255  0.65354772  0.38883662  1
  In  In35  1  0.83566894  0.66365073  0.88316329  1
  In  In36  1  -0.00693883  0.17390529  0.36608287  1
  In  In37  1  -0.00101088  0.18628837  0.87903896  1
  In  In38  1  0.00032545  0.50374486  0.37520928  1
  In  In39  1  0.00342073  0.50620342  0.87844477  1
  In  In40  1  0.01443386  0.81880601  0.38108026  1
  In  In41  1  -0.00402616  0.80755936  0.87581681  1
  In  In42  1  0.35609378  0.16902504  0.36245510  1
  In  In43  1  0.33417934  0.16637362  0.88793109  1
  In  In44  1  0.31542451  0.50411721  0.38585033  1
  In  In45  1  0.32502067  0.50069468  0.87561470  1
  In  In46  1  0.33300738  0.83282873  0.37394957  1
  In  In47  1  0.34335227  0.82824248  0.87274614  1
  In  In48  1  0.64117059  0.17542079  0.36776876  1
  In  In49  1  0.66256743  0.15555834  0.87896277  1
  In  In50  1  0.67464040  0.49828014  0.38546792  1
  In  In51  1  0.66307396  0.53362076  0.87914576  1
  In  In52  1  0.67024149  0.82050594  0.39433593  1
  In  In53  1  0.66673360  0.81889836  0.88656048  1
  In  In54  1  0.17388296  0.01744805  0.12926103  1
  In  In55  1  0.18113514  0.00264211  0.62320825  1
  In  In56  1  0.15876018  0.32371885  0.12909840  1
  In  In57  1  0.15758907  0.34081701  0.62683832  1
  In  In58  1  0.17025631  0.66279519  0.12396390  1
  In  In59  1  0.16526354  0.66323169  0.62322822  1
  In  In60  1  0.49166951  -0.00503795  0.12847179  1
  In  In61  1  0.49878426  -0.01037603  0.61691722  1
  In  In62  1  0.51487794  0.33530229  0.13101104  1
  In  In63  1  0.50114072  0.33805839  0.60904029  1
  In  In64  1  0.49588023  0.66444291  0.12514745  1
  In  In65  1  0.49509177  0.66534735  0.62626012  1
  In  In66  1  0.83615566  -0.01097526  0.12331355  1
  In  In67  1  0.83430775  -0.01859440  0.62900062  1
  In  In68  1  0.83053854  0.34862097  0.13094040  1
  In  In69  1  0.83482469  0.35623256  0.62329191  1
  In  In70  1  0.84335111  0.67549882  0.10792438  1
  In  In71  1  0.83666657  0.66832066  0.62747345  1
  In  In72  1  0.66194418  0.00133667  0.25495638  1
  In  In73  1  0.82918133  0.16263735  0.49254202  1
  In  In74  1  0.33062446  0.33381840  0.25288647  1
  In  In75  1  0.83151242  0.16418498  0.00209044  1
  In  In76  1  0.17636202  0.16857898  0.49243045  1
  In  In77  1  0.66787920  0.65960691  0.25552387  1
  In  In78  1  0.33739511  -0.00612955  0.74416656  1
  In  In79  1  0.16474892  0.83073779  0.00105131  1
  In  In80  1  0.32860856  0.34029508  0.74809165  1
  In  In81  1  0.50115427  0.50506215  0.00018757  1
  In  In82  1  0.00159933  -0.00178056  0.24062981  1
  In  In83  1  0.00436613  -0.00405466  0.74896322  1
  In  In84  1  0.66787990  -0.01086576  0.75754486  1
  In  In85  1  0.66970363  0.34245017  0.74553629  1
  Cu  Cu86  1  0.16996099  0.82506327  0.24969323  1
  Cu  Cu87  1  0.00369940  -0.00160640  0.00331179  1
  Cu  Cu88  1  0.33268570  0.00267708  0.00417617  1
  Cu  Cu89  1  0.83839575  0.82335496  0.24985072  1
  Cu  Cu90  1  0.32648473  0.67385351  0.49929210  1
  Cu  Cu91  1  0.33358718  0.66889137  -0.00065964  1
  Cu  Cu92  1  0.49981066  0.16616524  0.75152371  1
  Cu  Cu93  1  0.49402572  0.50280565  0.25322779  1
  Cu  Cu94  1  0.16264271  0.82721335  0.74228629  1
  Cu  Cu95  1  0.00676688  0.33490988  0.00406527  1
  Cu  Cu96  1  0.67058051  -0.00109361  0.49513021  1
  Cu  Cu97  1  0.82984580  0.81981485  0.75340317  1
  Cu  Cu98  1  0.83511170  0.50721942  0.75005037  1
  Cu  Cu99  1  0.50102866  0.83368646  0.25720173  1
  Cu  Cu100  1  0.16371851  0.18254111  0.75909778  1
  Cu  Cu101  1  0.16544434  0.50072747  0.74939512  1
  Cu  Cu102  1  -0.00743924  0.34123856  0.49835789  1
  Cu  Cu103  1  0.33897451  -0.00307168  0.49705271  1
  Cu  Cu104  1  0.00321151  0.66259713  0.50143261  1
  Cu  Cu105  1  0.66534354  0.33178872  -0.00070253  1
  Cu  Cu106  1  0.82981110  0.17872508  0.24740789  1
  Cu  Cu107  1  0.84628622  0.17350622  0.74760179  1
  Cu  Cu108  1  0.64909358  -0.00168599  0.00175562  1
  Cu  Cu109  1  0.00750037  -0.00661668  0.49935784  1
  Cu  Cu110  1  0.33525195  0.32809585  0.00780988  1
  Cu  Cu111  1  0.16028913  0.50502114  0.25211132  1
  Cu  Cu112  1  0.83787382  0.50563890  0.25182358  1
  Cu  Cu113  1  0.50213387  0.50331696  0.73692456  1
  Cu  Cu114  1  0.66311872  0.32836950  0.49743348  1
  Se  Se115  1  0.08448246  0.08326515  0.05523172  1
  Se  Se116  1  0.08061253  0.08154990  0.55741462  1
  Se  Se117  1  0.08759389  0.41611503  0.06078773  1
  Se  Se118  1  0.07789867  0.41910059  0.55459137  1
  Se  Se119  1  0.07328099  0.73628011  0.05343707  1
  Se  Se120  1  0.08524873  0.75008045  0.55320214  1
  Se  Se121  1  0.41490015  0.08409492  0.05964654  1
  Se  Se122  1  0.42263137  0.08038642  0.54990450  1
  Se  Se123  1  0.41478835  0.41432149  0.06559671  1
  Se  Se124  1  0.39876757  0.39533990  0.54372802  1
  Se  Se125  1  0.41626473  0.74863236  0.05530057  1
  Se  Se126  1  0.41700279  0.74995204  0.55286301  1
  Se  Se127  1  0.73772239  0.07363068  0.06189307  1
  Se  Se128  1  0.74616794  0.07540778  0.56282769  1
  Se  Se129  1  0.74902629  0.41387063  0.05191667  1
  Se  Se130  1  0.74655731  0.41465118  0.54785617  1
  Se  Se131  1  0.75172709  0.75631615  0.04718419  1
  Se  Se132  1  0.77828883  0.77127916  0.55960669  1
  Se  Se133  1  0.24982904  0.24799553  0.06154373  1
  Se  Se134  1  0.25219585  0.24980364  0.56679446  1
  Se  Se135  1  0.25196029  0.58339034  0.05076110  1
  Se  Se136  1  0.24570530  0.58414060  0.54979207  1
  Se  Se137  1  0.25412230  0.91868385  0.06376276  1
  Se  Se138  1  0.25226120  0.91852035  0.55142036  1
  Se  Se139  1  0.58107864  0.25181604  0.05268342  1
  Se  Se140  1  0.57992126  0.24158908  0.54708900  1
  Se  Se141  1  0.59464067  0.59411289  0.05783245  1
  Se  Se142  1  0.54932250  0.55684738  0.55929626  1
  Se  Se143  1  0.57311768  0.91259595  0.05802908  1
  Se  Se144  1  0.58659087  0.91532939  0.54800077  1
  Se  Se145  1  0.91955298  0.25472786  0.06176412  1
  Se  Se146  1  0.91730338  0.25299861  0.55665477  1
  Se  Se147  1  0.90175050  0.56367408  0.05306471  1
  Se  Se148  1  0.91630286  0.58396803  0.55559642  1
  Se  Se149  1  0.91558187  0.91471110  0.04960997  1
  Se  Se150  1  0.91836860  0.91787261  0.55243913  1
  Se  Se151  1  0.07235579  0.25548006  0.44148565  1
  Se  Se152  1  0.08883084  0.24772884  0.95292761  1
  Se  Se153  1  0.08596681  0.58245102  0.44484576  1
  Se  Se154  1  0.09502799  0.57991944  0.94625996  1
  Se  Se155  1  0.09147025  0.91103615  0.44742522  1
  Se  Se156  1  0.07533331  0.91967806  0.93556991  1
  Se  Se157  1  0.41033212  0.24536266  0.44546748  1
  Se  Se158  1  0.42091233  0.24793922  0.95435709  1
  Se  Se159  1  0.40831436  0.58729745  0.44705126  1
  Se  Se160  1  0.41457997  0.59109198  0.93607806  1
  Se  Se161  1  0.42009655  0.91012399  0.44516295  1
  Se  Se162  1  0.40878899  0.91593848  0.94766347  1
  Se  Se163  1  0.74492476  0.25475373  0.43174048  1
  Se  Se164  1  0.74819670  0.25575949  0.93592878  1
  Se  Se165  1  0.73829498  0.59219385  0.45625371  1
  Se  Se166  1  0.76186310  0.57169628  0.95256586  1
  Se  Se167  1  0.75884385  0.91548335  0.44852915  1
  Se  Se168  1  0.73867676  0.91882413  0.95007704  1
  Se  Se169  1  0.25982275  0.07418005  0.43311887  1
  Se  Se170  1  0.24587291  0.08593465  0.95423779  1
  Se  Se171  1  0.24752574  0.41074693  0.45576417  1
  Se  Se172  1  0.25999326  0.41640758  0.95279374  1
  Se  Se173  1  0.24436021  0.75417072  0.44187681  1
  Se  Se174  1  0.25077715  0.74386355  0.93639330  1
  Se  Se175  1  0.58664166  0.08243028  0.44331284  1
  Se  Se176  1  0.57360211  0.09151301  0.95175059  1
  Se  Se177  1  0.58158739  0.41149863  0.44329938  1
  Se  Se178  1  0.59073014  0.41453528  0.93570127  1
  Se  Se179  1  0.58904224  0.73767262  0.46054270  1
  Se  Se180  1  0.56442622  0.74170314  0.94077278  1
  Se  Se181  1  0.92851245  0.07247333  0.43770068  1
  Se  Se182  1  0.92352727  0.07681958  0.93866644  1
  Se  Se183  1  0.91085400  0.42550468  0.44561859  1
  Se  Se184  1  0.92389174  0.41766572  0.94956858  1
  Se  Se185  1  0.91980008  0.74898909  0.44822675  1
  Se  Se186  1  0.90526120  0.75941250  0.95171032  1
  Se  Se187  1  0.24084271  0.24352519  0.31275364  1
  Se  Se188  1  0.24844204  0.25471868  0.81966523  1
  Se  Se189  1  0.24936159  0.58221054  0.30560099  1
  Se  Se190  1  0.25418729  0.58175698  0.80036320  1
  Se  Se191  1  0.25311415  0.91180623  0.29830817  1
  Se  Se192  1  0.23960910  0.90915109  0.80389700  1
  Se  Se193  1  0.57422358  0.26008682  0.29540320  1
  Se  Se194  1  0.58103664  0.24741565  0.80860596  1
  Se  Se195  1  0.57402764  0.57879661  0.31814873  1
  Se  Se196  1  0.58691659  0.58368831  0.79239107  1
  Se  Se197  1  0.58695287  0.90356688  0.31885749  1
  Se  Se198  1  0.57303320  0.90506154  0.81520526  1
  Se  Se199  1  0.91794885  0.25988656  0.29741076  1
  Se  Se200  1  0.92477216  0.25876883  0.80093676  1
  Se  Se201  1  0.91568782  0.58966070  0.30805017  1
  Se  Se202  1  0.91720783  0.58512111  0.80898358  1
  Se  Se203  1  0.91848731  0.90795507  0.30711450  1
  Se  Se204  1  0.90849744  0.91004288  0.80868849  1
  Se  Se205  1  0.08507113  0.08285657  0.30837332  1
  Se  Se206  1  0.08855686  0.09041100  0.81256799  1
  Se  Se207  1  0.08077892  0.41808516  0.30493456  1
  Se  Se208  1  0.08558660  0.41955713  0.80825460  1
  Se  Se209  1  0.08059303  0.74545290  0.29939583  1
  Se  Se210  1  0.07988440  0.74650314  0.79769755  1
  Se  Se211  1  0.42959263  0.07789982  0.29720697  1
  Se  Se212  1  0.41933681  0.08703637  0.81107757  1
  Se  Se213  1  0.41445260  0.42581301  0.31574491  1
  Se  Se214  1  0.42893788  0.42680995  0.80483162  1
  Se  Se215  1  0.41816528  0.74679819  0.30705517  1
  Se  Se216  1  0.39920938  0.74526231  0.79335140  1
  Se  Se217  1  0.75660658  0.09626270  0.30974965  1
  Se  Se218  1  0.76270688  0.09369156  0.80537854  1
  Se  Se219  1  0.74710482  0.42726665  0.30416478  1
  Se  Se220  1  0.75307119  0.42871499  0.81239701  1
  Se  Se221  1  0.75706333  0.75169675  0.31454713  1
  Se  Se222  1  0.74725958  0.74352620  0.81284123  1
  Se  Se223  1  0.24904948  0.08371223  0.20803672  1
  Se  Se224  1  0.24339507  0.10037632  0.69892756  1
  Se  Se225  1  0.24558546  0.42815295  0.19142760  1
  Se  Se226  1  0.24942236  0.43249125  0.68458318  1
  Se  Se227  1  0.25306955  0.74165434  0.19517486  1
  Se  Se228  1  0.25042981  0.75013627  0.68937703  1
  Se  Se229  1  0.58118339  0.09008224  0.18975644  1
  Se  Se230  1  0.57859600  0.08224858  0.69365769  1
  Se  Se231  1  0.58434847  0.42784851  0.20009715  1
  Se  Se232  1  0.58314708  0.42303082  0.67887875  1
  Se  Se233  1  0.58278820  0.75633835  0.19497044  1
  Se  Se234  1  0.58859494  0.74528368  0.68830045  1
  Se  Se235  1  0.90527674  0.09331486  0.18717021  1
  Se  Se236  1  0.91734637  0.08939273  0.68562105  1
  Se  Se237  1  0.92115788  0.42003382  0.19978794  1
  Se  Se238  1  0.91820481  0.42042850  0.69945203  1
  Se  Se239  1  0.91627768  0.74273461  0.19181974  1
  Se  Se240  1  0.92146925  0.74386834  0.70192766  1
  Se  Se241  1  0.08457147  0.24802041  0.20564231  1
  Se  Se242  1  0.08149302  0.26365622  0.70407444  1
  Se  Se243  1  0.08195417  0.58632591  0.19306769  1
  Se  Se244  1  0.08230646  0.58548556  0.69617348  1
  Se  Se245  1  0.09384850  0.90475267  0.18380357  1
  Se  Se246  1  0.08871130  0.91216183  0.68154171  1
  Se  Se247  1  0.41960863  0.24882771  0.18955247  1
  Se  Se248  1  0.42504379  0.24922703  0.69129556  1
  Se  Se249  1  0.41687467  0.59194821  0.20167636  1
  Se  Se250  1  0.40610566  0.58061267  0.69179614  1
  Se  Se251  1  0.41667041  0.91481360  0.20339212  1
  Se  Se252  1  0.43244416  0.90224440  0.69315692  1
  Se  Se253  1  0.74578040  0.26268296  0.19679548  1
  Se  Se254  1  0.76044065  0.24619168  0.68666876  1
  Se  Se255  1  0.75860803  0.58299133  0.18849761  1
  Se  Se256  1  0.74891304  0.57864210  0.68890552  1
  Se  Se257  1  0.75359124  0.90635257  0.19645756  1
  Se  Se258  1  0.74835530  0.89796132  0.69388725  1
