# generated using pymatgen
data_In86Cu29Se144
_symmetry_space_group_name_H-M   'P 1'
_cell_length_a   17.57535648
_cell_length_b   17.57588897
_cell_length_c   23.42924353
_cell_angle_alpha   89.97137885
_cell_angle_beta   90.01038702
_cell_angle_gamma   89.98656161
_symmetry_Int_Tables_number   1
_chemical_formula_structural   In86Cu29Se144
_chemical_formula_sum   'In86 Cu29 Se144'
_cell_volume   7237.35101005
_cell_formula_units_Z   1
loop_
 _symmetry_equiv_pos_site_id
 _symmetry_equiv_pos_as_xyz
  1  'x, y, z'
loop_
 _atom_site_type_symbol
 _atom_site_label
 _atom_site_symmetry_multiplicity
 _atom_site_fract_x
 _atom_site_fract_y
 _atom_site_fract_z
 _atom_site_occupancy
  In  In0  1  0.00410885  0.15865810  0.14207279  1
  In  In1  1  0.00868012  0.17068097  0.61282977  1
  In  In2  1  0.00512240  0.49832133  0.12835079  1
  In  In3  1  -0.01103873  0.51004466  0.62569186  1
  In  In4  1  0.01211071  0.82728373  0.12770090  1
  In  In5  1  -0.01298429  0.81709008  0.62802506  1
  In  In6  1  0.33295064  0.16089829  0.12551790  1
  In  In7  1  0.33409331  0.16439229  0.61917945  1
  In  In8  1  0.32040453  0.51079741  0.13411778  1
  In  In9  1  0.33022467  0.48812331  0.61884580  1
  In  In10  1  0.32943939  0.83803790  0.11723385  1
  In  In11  1  0.34715045  0.83848976  0.62831294  1
  In  In12  1  0.65234551  0.16623023  0.12708696  1
  In  In13  1  0.65788248  0.15623355  0.61348699  1
  In  In14  1  0.68302268  0.49850843  0.12954297  1
  In  In15  1  0.66977341  0.49911574  0.60185298  1
  In  In16  1  0.66060522  0.83704893  0.12972709  1
  In  In17  1  0.68164517  0.84306390  0.62963085  1
  In  In18  1  0.17873727  0.00735034  0.36601731  1
  In  In19  1  0.17877765  -0.00979414  0.89455804  1
  In  In20  1  0.15479399  0.32196961  0.36273421  1
  In  In21  1  0.16630935  0.32160630  0.89723013  1
  In  In22  1  0.16025523  0.65947205  0.36217894  1
  In  In23  1  0.15457680  0.67805966  0.88145728  1
  In  In24  1  0.50939319  0.01086103  0.36605011  1
  In  In25  1  0.49814406  0.00404510  0.87902545  1
  In  In26  1  0.49787388  0.33817533  0.37955319  1
  In  In27  1  0.48528750  0.33178038  0.87633358  1
  In  In28  1  0.49222863  0.65603027  0.36445728  1
  In  In29  1  0.51753418  0.67485437  0.88193026  1
  In  In30  1  0.84903665  0.03041233  0.34944330  1
  In  In31  1  0.82791983  0.00619599  0.87064432  1
  In  In32  1  0.84053480  0.32322477  0.37426527  1
  In  In33  1  0.84915846  0.34311043  0.87985401  1
  In  In34  1  0.83011281  0.66219794  0.36395892  1
  In  In35  1  0.83377620  0.64959082  0.88090552  1
  In  In36  1  0.00291428  0.17179165  0.37124514  1
  In  In37  1  0.01259595  0.16889879  0.88318672  1
  In  In38  1  -0.00691172  0.49996004  0.36323852  1
  In  In39  1  -0.01186691  0.50318508  0.88883386  1
  In  In40  1  -0.00741966  0.83215447  0.36470643  1
  In  In41  1  0.01374863  0.83311223  0.87819932  1
  In  In42  1  0.33114255  0.16555254  0.37158419  1
  In  In43  1  0.35104355  0.14734030  0.90083418  1
  In  In44  1  0.33995623  0.50089871  0.36140747  1
  In  In45  1  0.32709156  0.48540329  0.87767327  1
  In  In46  1  0.33019327  0.82874676  0.36386154  1
  In  In47  1  0.32327147  0.85146578  0.89122701  1
  In  In48  1  0.67218732  0.16234066  0.38270111  1
  In  In49  1  0.67422904  0.14965241  0.87570706  1
  In  In50  1  0.66293682  0.49533389  0.37873709  1
  In  In51  1  0.67517675  0.51435630  0.88079676  1
  In  In52  1  0.67083811  0.84024840  0.36725379  1
  In  In53  1  0.65133419  0.83862922  0.88389656  1
  In  In54  1  0.17243205  -0.00292629  0.12244605  1
  In  In55  1  0.17079156  0.01207823  0.62656684  1
  In  In56  1  0.16288267  0.33722138  0.13018950  1
  In  In57  1  0.17554910  0.32498489  0.62154544  1
  In  In58  1  0.16946864  0.66650358  0.12029179  1
  In  In59  1  0.15330306  0.65396144  0.62566221  1
  In  In60  1  0.49131296  0.00101071  0.12068627  1
  In  In61  1  0.49362884  0.00534413  0.63091140  1
  In  In62  1  0.49685951  0.31254100  0.12209080  1
  In  In63  1  0.50244689  0.32653446  0.60219031  1
  In  In64  1  0.48870780  0.67686247  0.13438713  1
  In  In65  1  0.51110364  0.67295050  0.61836649  1
  In  In66  1  0.83283655  0.01284971  0.14387401  1
  In  In67  1  0.82590266  -0.00969248  0.62525794  1
  In  In68  1  0.83817416  0.34855016  0.13414681  1
  In  In69  1  0.83013294  0.33260097  0.60233379  1
  In  In70  1  0.85550692  0.63846035  0.15267113  1
  In  In71  1  0.83988446  0.66008951  0.62058865  1
  In  In72  1  0.32757583  0.32626650  0.74652878  1
  In  In73  1  0.83442980  0.82776095  0.01287537  1
  In  In74  1  0.83261972  0.83403792  0.49690910  1
  In  In75  1  0.66352220  0.33025145  0.73841087  1
  In  In76  1  0.15629399  0.48970429  0.48610192  1
  In  In77  1  0.83771451  0.17463679  0.00720418  1
  In  In78  1  0.33091867  0.67747840  0.75574523  1
  In  In79  1  0.50077342  0.49973015  -0.00133380  1
  In  In80  1  0.67088339  0.32923600  0.25773408  1
  In  In81  1  0.16098521  0.83624525  0.50398151  1
  In  In82  1  0.49821934  0.83546557  0.49891770  1
  In  In83  1  0.00187328  0.33136131  0.75458517  1
  In  In84  1  0.67759733  0.67801145  0.74750580  1
  In  In85  1  -0.00263092  -0.00846938  0.75118404  1
  Cu  Cu86  1  0.33186072  0.32781094  0.49452653  1
  Cu  Cu87  1  0.32932341  0.33374779  0.01110690  1
  Cu  Cu88  1  0.83078498  0.83832004  0.24594546  1
  Cu  Cu89  1  0.50075906  0.50970363  0.73680756  1
  Cu  Cu90  1  0.16696162  0.83547229  0.24220977  1
  Cu  Cu91  1  0.16889964  0.83668339  0.75718883  1
  Cu  Cu92  1  0.67214987  0.00119369  0.49638316  1
  Cu  Cu93  1  0.49305361  0.15799833  0.24789346  1
  Cu  Cu94  1  0.00126329  0.00219365  0.01016595  1
  Cu  Cu95  1  0.32827907  0.65659883  0.48651097  1
  Cu  Cu96  1  0.50164018  0.16238591  0.75378190  1
  Cu  Cu97  1  0.49659772  0.85029527  0.75815150  1
  Cu  Cu98  1  0.83162720  0.16135939  0.74503234  1
  Cu  Cu99  1  0.00310577  0.33092596  0.48990431  1
  Cu  Cu100  1  0.34017566  0.00781121  0.49500347  1
  Cu  Cu101  1  0.49410897  0.83202510  0.24522305  1
  Cu  Cu102  1  0.50597767  0.49071040  0.24931018  1
  Cu  Cu103  1  0.67175419  0.33350650  0.00718893  1
  Cu  Cu104  1  0.14965130  0.50654435  0.75743568  1
  Cu  Cu105  1  0.66043154  0.66228319  0.49103517  1
  Cu  Cu106  1  0.00124636  0.66291841  0.00871621  1
  Cu  Cu107  1  0.16744386  0.16509201  0.24605142  1
  Cu  Cu108  1  0.17640534  0.15861515  0.75781520  1
  Cu  Cu109  1  0.33438347  0.66686191  0.00477797  1
  Cu  Cu110  1  0.00053239  0.00638423  0.49029164  1
  Cu  Cu111  1  0.67198404  0.66505485  0.01183647  1
  Cu  Cu112  1  0.17089203  0.50399744  0.24499031  1
  Cu  Cu113  1  0.83490338  0.49830713  0.75292947  1
  Cu  Cu114  1  0.65964969  -0.00085716  0.00392578  1
  Se  Se115  1  0.08029430  0.08728243  0.06350568  1
  Se  Se116  1  0.08878464  0.07862656  0.54961454  1
  Se  Se117  1  0.09858538  0.43118145  0.05908065  1
  Se  Se118  1  0.07627276  0.40748643  0.56159929  1
  Se  Se119  1  0.08728484  0.75251179  0.05111332  1
  Se  Se120  1  0.06986439  0.73709880  0.55352155  1
  Se  Se121  1  0.42471213  0.09702819  0.05259846  1
  Se  Se122  1  0.42407298  0.08459599  0.55306624  1
  Se  Se123  1  0.41379884  0.41780447  0.06582806  1
  Se  Se124  1  0.41231388  0.41706718  0.54545545  1
  Se  Se125  1  0.41959583  0.75000821  0.05389060  1
  Se  Se126  1  0.40197560  0.73849381  0.55202537  1
  Se  Se127  1  0.74643445  0.07780551  0.06088127  1
  Se  Se128  1  0.75791787  0.07894840  0.55374788  1
  Se  Se129  1  0.75649479  0.41677559  0.05529876  1
  Se  Se130  1  0.75587661  0.42136098  0.53649956  1
  Se  Se131  1  0.75342475  0.73712176  0.07614928  1
  Se  Se132  1  0.73657451  0.74344555  0.55511871  1
  Se  Se133  1  0.24598796  0.25014531  0.06238195  1
  Se  Se134  1  0.24966665  0.24460084  0.54906008  1
  Se  Se135  1  0.25076214  0.57962957  0.05149072  1
  Se  Se136  1  0.24714417  0.58260916  0.55199059  1
  Se  Se137  1  0.25325892  0.92430241  0.04749016  1
  Se  Se138  1  0.26391069  0.92432280  0.55672014  1
  Se  Se139  1  0.58506533  0.24582444  0.04811695  1
  Se  Se140  1  0.60196977  0.25516623  0.54433106  1
  Se  Se141  1  0.58392326  0.58405922  0.06639345  1
  Se  Se142  1  0.57318341  0.58378825  0.54528831  1
  Se  Se143  1  0.57995503  0.91366096  0.05636847  1
  Se  Se144  1  0.59241189  0.92161668  0.55904072  1
  Se  Se145  1  0.92488581  0.25444789  0.07215487  1
  Se  Se146  1  0.92098811  0.24535842  0.54462724  1
  Se  Se147  1  0.91525045  0.58267530  0.06095464  1
  Se  Se148  1  0.90769749  0.57390515  0.54872022  1
  Se  Se149  1  0.91700429  0.92791847  0.07003937  1
  Se  Se150  1  0.92994675  0.92253079  0.55609022  1
  Se  Se151  1  0.09041708  0.24561414  0.44444486  1
  Se  Se152  1  0.05948501  0.26264386  0.95797027  1
  Se  Se153  1  0.07205734  0.59211288  0.43781818  1
  Se  Se154  1  0.08363484  0.58446329  0.94861695  1
  Se  Se155  1  0.07930663  0.92104563  0.43413415  1
  Se  Se156  1  0.07944348  0.91520372  0.95501204  1
  Se  Se157  1  0.41640686  0.24468211  0.44200817  1
  Se  Se158  1  0.41902173  0.25666807  0.95656653  1
  Se  Se159  1  0.41679862  0.57551122  0.43954487  1
  Se  Se160  1  0.41074711  0.59046964  0.93610344  1
  Se  Se161  1  0.41038047  0.92010805  0.43469690  1
  Se  Se162  1  0.43139453  0.91032304  0.94851579  1
  Se  Se163  1  0.74886571  0.25480723  0.44437305  1
  Se  Se164  1  0.74725425  0.25638908  0.93862613  1
  Se  Se165  1  0.75056305  0.58679903  0.43884014  1
  Se  Se166  1  0.75419394  0.58076802  0.95897051  1
  Se  Se167  1  0.75428758  0.92839290  0.43402110  1
  Se  Se168  1  0.75009691  0.92302001  0.94821979  1
  Se  Se169  1  0.24837465  0.08481051  0.44458290  1
  Se  Se170  1  0.22403006  0.11062484  0.94634700  1
  Se  Se171  1  0.25505030  0.40744629  0.43032900  1
  Se  Se172  1  0.24900131  0.41767841  0.95532803  1
  Se  Se173  1  0.24654331  0.74548378  0.43788311  1
  Se  Se174  1  0.25007441  0.74801567  0.94809720  1
  Se  Se175  1  0.58020678  0.08079081  0.44777723  1
  Se  Se176  1  0.58419297  0.08756766  0.94850358  1
  Se  Se177  1  0.58081306  0.41667926  0.44847856  1
  Se  Se178  1  0.59282465  0.40917885  0.93783299  1
  Se  Se179  1  0.58339623  0.74777646  0.43367246  1
  Se  Se180  1  0.58981969  0.74997867  0.95988586  1
  Se  Se181  1  0.91508020  0.08743985  0.43864438  1
  Se  Se182  1  0.91998858  0.07487484  0.94544533  1
  Se  Se183  1  0.92242147  0.41659914  0.43806594  1
  Se  Se184  1  0.91756142  0.41399085  0.95888164  1
  Se  Se185  1  0.92028122  0.74388526  0.43836965  1
  Se  Se186  1  0.92226341  0.74328643  0.94460703  1
  Se  Se187  1  0.25177436  0.24805270  0.29994711  1
  Se  Se188  1  0.24783435  0.24551394  0.81863522  1
  Se  Se189  1  0.25608464  0.58841580  0.29706709  1
  Se  Se190  1  0.24353060  0.57866272  0.81256341  1
  Se  Se191  1  0.25122739  0.91613060  0.29745657  1
  Se  Se192  1  0.24840979  0.92133017  0.81045005  1
  Se  Se193  1  0.57231609  0.23952441  0.30964337  1
  Se  Se194  1  0.57929552  0.24781910  0.81176035  1
  Se  Se195  1  0.58615271  0.57559150  0.30333301  1
  Se  Se196  1  0.58107270  0.58139144  0.80385046  1
  Se  Se197  1  0.57743910  0.91322612  0.30107774  1
  Se  Se198  1  0.58831161  0.92653609  0.80896237  1
  Se  Se199  1  0.91947203  0.24924369  0.29965639  1
  Se  Se200  1  0.90910359  0.23580125  0.81079128  1
  Se  Se201  1  0.92909766  0.59918918  0.29710996  1
  Se  Se202  1  0.91873554  0.57875228  0.80710394  1
  Se  Se203  1  0.91917040  0.92157929  0.29554654  1
  Se  Se204  1  0.90913040  0.90427615  0.81425494  1
  Se  Se205  1  0.08461110  0.08395729  0.30302430  1
  Se  Se206  1  0.08833063  0.07987517  0.81205174  1
  Se  Se207  1  0.08744434  0.42290672  0.30026637  1
  Se  Se208  1  0.08731141  0.41622411  0.82082252  1
  Se  Se209  1  0.08412679  0.75421248  0.29931848  1
  Se  Se210  1  0.08171117  0.75002834  0.80104760  1
  Se  Se211  1  0.40789604  0.07615616  0.30185310  1
  Se  Se212  1  0.41320533  0.08888739  0.81079163  1
  Se  Se213  1  0.42008804  0.40689340  0.29941047  1
  Se  Se214  1  0.42253690  0.42708582  0.79810955  1
  Se  Se215  1  0.41253977  0.74409619  0.29781451  1
  Se  Se216  1  0.42565814  0.75985657  0.81713186  1
  Se  Se217  1  0.72654844  0.07758174  0.30205508  1
  Se  Se218  1  0.74607369  0.07814505  0.79554211  1
  Se  Se219  1  0.76130887  0.42390235  0.30983482  1
  Se  Se220  1  0.74999484  0.41774442  0.80943624  1
  Se  Se221  1  0.74940679  0.75381512  0.30029783  1
  Se  Se222  1  0.75278708  0.75470598  0.82442575  1
  Se  Se223  1  0.25091910  0.07923650  0.19615389  1
  Se  Se224  1  0.25914098  0.08490316  0.69652913  1
  Se  Se225  1  0.25470350  0.41207887  0.20006158  1
  Se  Se226  1  0.23261639  0.42813530  0.69588057  1
  Se  Se227  1  0.25087654  0.75265429  0.18828407  1
  Se  Se228  1  0.24006918  0.75714044  0.68558898  1
  Se  Se229  1  0.57793367  0.07667598  0.19432502  1
  Se  Se230  1  0.58579741  0.08515861  0.69490207  1
  Se  Se231  1  0.58168974  0.40970682  0.18661038  1
  Se  Se232  1  0.57573737  0.42520930  0.67785902  1
  Se  Se233  1  0.58524168  0.74774833  0.19949088  1
  Se  Se234  1  0.57345193  0.76711690  0.69484144  1
  Se  Se235  1  0.90677450  0.09875814  0.21294641  1
  Se  Se236  1  0.92097705  0.08939931  0.68591128  1
  Se  Se237  1  0.91686302  0.43026581  0.20232219  1
  Se  Se238  1  0.90714874  0.41233763  0.69028968  1
  Se  Se239  1  0.91985610  0.75701093  0.19689303  1
  Se  Se240  1  0.89762319  0.74859658  0.69666923  1
  Se  Se241  1  0.08242390  0.25596720  0.20271536  1
  Se  Se242  1  0.09567226  0.23865527  0.69585196  1
  Se  Se243  1  0.08814040  0.58945350  0.19338893  1
  Se  Se244  1  0.06876745  0.58660406  0.70072635  1
  Se  Se245  1  0.08222609  0.92294150  0.19372484  1
  Se  Se246  1  0.09016805  0.90681073  0.68596055  1
  Se  Se247  1  0.41278283  0.24686014  0.19768702  1
  Se  Se248  1  0.43014309  0.24719959  0.68781909  1
  Se  Se249  1  0.42075514  0.57747991  0.19883288  1
  Se  Se250  1  0.41292075  0.58846009  0.68368144  1
  Se  Se251  1  0.41227498  0.91554877  0.19121999  1
  Se  Se252  1  0.40995357  0.92667755  0.70266044  1
  Se  Se253  1  0.75269469  0.24376133  0.18848877  1
  Se  Se254  1  0.76023194  0.24421234  0.68144365  1
  Se  Se255  1  0.73907167  0.58525948  0.20679289  1
  Se  Se256  1  0.74889577  0.56957634  0.68905223  1
  Se  Se257  1  0.74241057  0.92171478  0.19854761  1
  Se  Se258  1  0.75974477  0.91375568  0.70434479  1
