# generated using pymatgen
data_In86Cu29Se144
_symmetry_space_group_name_H-M   'P 1'
_cell_length_a   17.70688686
_cell_length_b   17.70934971
_cell_length_c   23.56191684
_cell_angle_alpha   89.95962133
_cell_angle_beta   89.99773874
_cell_angle_gamma   89.95063785
_symmetry_Int_Tables_number   1
_chemical_formula_structural   In86Cu29Se144
_chemical_formula_sum   'In86 Cu29 Se144'
_cell_volume   7388.48125832
_cell_formula_units_Z   1
loop_
 _symmetry_equiv_pos_site_id
 _symmetry_equiv_pos_as_xyz
  1  'x, y, z'
loop_
 _atom_site_type_symbol
 _atom_site_label
 _atom_site_symmetry_multiplicity
 _atom_site_fract_x
 _atom_site_fract_y
 _atom_site_fract_z
 _atom_site_occupancy
  In  In0  1  -0.00406276  0.17488202  0.12414952  1
  In  In1  1  0.00421426  0.16687084  0.63339201  1
  In  In2  1  0.00728145  0.48492876  0.13920400  1
  In  In3  1  -0.00283447  0.49822702  0.62271250  1
  In  In4  1  -0.00119205  0.83150343  0.13298941  1
  In  In5  1  -0.00489174  0.83570773  0.61182640  1
  In  In6  1  0.32981079  0.14956074  0.11962280  1
  In  In7  1  0.32361518  0.16545203  0.63286699  1
  In  In8  1  0.33250309  0.51257217  0.12539340  1
  In  In9  1  0.33216103  0.51916069  0.62673735  1
  In  In10  1  0.32520112  0.83356026  0.12881090  1
  In  In11  1  0.32928444  0.83096549  0.62495187  1
  In  In12  1  0.66894691  0.16189490  0.12568285  1
  In  In13  1  0.67664496  0.17062683  0.62512215  1
  In  In14  1  0.67871543  0.48270498  0.14156516  1
  In  In15  1  0.67328361  0.50080388  0.63448597  1
  In  In16  1  0.68367787  0.82770560  0.14128897  1
  In  In17  1  0.65475673  0.82702624  0.61170980  1
  In  In18  1  0.15577457  -0.00569053  0.36781557  1
  In  In19  1  0.16509561  -0.02096995  0.87440442  1
  In  In20  1  0.15707389  0.34564628  0.37549228  1
  In  In21  1  0.17051551  0.35029658  0.87936073  1
  In  In22  1  0.17061913  0.66984078  0.37685507  1
  In  In23  1  0.16675172  0.66814524  0.87954487  1
  In  In24  1  0.49076203  -0.00752245  0.36949890  1
  In  In25  1  0.49781266  0.00852454  0.87829718  1
  In  In26  1  0.52525484  0.34638074  0.37159663  1
  In  In27  1  0.50090983  0.31496554  0.87849354  1
  In  In28  1  0.50892476  0.67694269  0.36781918  1
  In  In29  1  0.50361846  0.67217261  0.87014685  1
  In  In30  1  0.80894067  -0.04500442  0.32494237  1
  In  In31  1  0.83263713  0.00174903  0.88706347  1
  In  In32  1  0.83448778  0.34827769  0.36244872  1
  In  In33  1  0.82751577  0.32304332  0.86866668  1
  In  In34  1  0.87303151  0.71726353  0.31609477  1
  In  In35  1  0.83010573  0.67848217  0.87887217  1
  In  In36  1  -0.01528647  0.16367616  0.36277725  1
  In  In37  1  -0.01521300  0.16870179  0.88411870  1
  In  In38  1  0.01066376  0.51923186  0.36010058  1
  In  In39  1  0.01454640  0.49931213  0.88129455  1
  In  In40  1  0.00665042  0.84158045  0.37461352  1
  In  In41  1  -0.00247158  0.83581933  0.88699392  1
  In  In42  1  0.34219209  0.16547993  0.37162801  1
  In  In43  1  0.34808134  0.16560037  0.87811870  1
  In  In44  1  0.31763481  0.50332997  0.37962499  1
  In  In45  1  0.32033694  0.50527124  0.87454886  1
  In  In46  1  0.33283790  0.83400378  0.37687648  1
  In  In47  1  0.31961786  0.82148843  0.86059129  1
  In  In48  1  0.68009933  0.17722602  0.36642588  1
  In  In49  1  0.66451460  0.16240565  0.88133837  1
  In  In50  1  0.72446756  0.55664850  0.32164077  1
  In  In51  1  0.67388524  0.50351284  0.87320991  1
  In  In52  1  0.65870249  0.82563927  0.37696652  1
  In  In53  1  0.67317383  0.83504513  0.87765339  1
  In  In54  1  0.17576589  -0.00883692  0.13153161  1
  In  In55  1  0.17222352  -0.00424280  0.62973229  1
  In  In56  1  0.14816109  0.33489919  0.11584172  1
  In  In57  1  0.15219149  0.33515913  0.62893693  1
  In  In58  1  0.16211152  0.66464582  0.12776879  1
  In  In59  1  0.17062455  0.68130482  0.60792686  1
  In  In60  1  0.49675250  0.00254129  0.12994132  1
  In  In61  1  0.50183529  -0.01659113  0.61703243  1
  In  In62  1  0.51398875  0.32965923  0.12188811  1
  In  In63  1  0.51033761  0.34595980  0.62812631  1
  In  In64  1  0.50179180  0.66173303  0.13548377  1
  In  In65  1  0.48895865  0.67421498  0.63139495  1
  In  In66  1  0.83678038  -0.00429503  0.13123805  1
  In  In67  1  0.84068334  -0.00866638  0.61962062  1
  In  In68  1  0.84838929  0.31865392  0.13219494  1
  In  In69  1  0.83687105  0.33425638  0.63885419  1
  In  In70  1  0.83270660  0.66855231  0.13850182  1
  In  In71  1  0.82139801  0.66863096  0.62087269  1
  In  In72  1  0.33253060  0.32859334  0.24331329  1
  In  In73  1  0.00027496  0.66832665  0.75246537  1
  In  In74  1  0.49936479  0.49738374  0.00250152  1
  In  In75  1  0.50087369  0.16059161  0.49476645  1
  In  In76  1  0.84298717  0.49643181  0.00971574  1
  In  In77  1  0.16754658  0.16244322  0.00104102  1
  In  In78  1  0.83121715  0.50967772  0.48682044  1
  In  In79  1  0.49962130  0.50310209  0.50367158  1
  In  In80  1  0.83967929  0.16079012  0.50145016  1
  In  In81  1  0.66248881  -0.00199872  0.75272861  1
  In  In82  1  0.50183319  0.83943363  0.00639089  1
  In  In83  1  -0.00328995  0.00032981  0.75324341  1
  In  In84  1  0.33752477  0.33648407  0.75592366  1
  In  In85  1  0.16154511  0.16316271  0.50336937  1
  Cu  Cu86  1  0.17226833  0.82711461  0.25195614  1
  Cu  Cu87  1  -0.00668634  0.67187942  0.48282417  1
  Cu  Cu88  1  0.67358404  0.34073760  0.50222548  1
  Cu  Cu89  1  0.67544625  -0.00072549  0.00690750  1
  Cu  Cu90  1  0.33403726  0.67235424  0.50142824  1
  Cu  Cu91  1  0.32749513  -0.00495547  0.49993144  1
  Cu  Cu92  1  0.83936364  0.49939866  0.75181403  1
  Cu  Cu93  1  0.49993256  0.15410495  0.24848921  1
  Cu  Cu94  1  0.50528869  0.16345438  0.75403345  1
  Cu  Cu95  1  -0.00513758  -0.00687447  0.49248068  1
  Cu  Cu96  1  0.32579177  0.66905074  0.00081279  1
  Cu  Cu97  1  0.16311299  0.16655716  0.75419183  1
  Cu  Cu98  1  0.66799780  0.66508336  0.01366451  1
  Cu  Cu99  1  0.16486188  0.50748908  0.75264308  1
  Cu  Cu100  1  0.66371770  0.66780719  0.49728951  1
  Cu  Cu101  1  0.83723046  0.17340557  0.24237315  1
  Cu  Cu102  1  0.00234304  0.33699661  0.50084289  1
  Cu  Cu103  1  0.00185247  0.67334009  0.00598197  1
  Cu  Cu104  1  0.33152555  0.33402252  0.49491461  1
  Cu  Cu105  1  0.49367446  0.83162291  0.74242210  1
  Cu  Cu106  1  0.49386981  0.49401417  0.24980086  1
  Cu  Cu107  1  0.67303466  -0.00767167  0.48286195  1
  Cu  Cu108  1  0.49145056  0.83655783  0.25100127  1
  Cu  Cu109  1  0.50981202  0.50067356  0.75316168  1
  Cu  Cu110  1  0.33448232  -0.00710245  0.00324708  1
  Cu  Cu111  1  0.16664259  0.50335664  0.25172462  1
  Cu  Cu112  1  0.67010287  0.32089676  -0.00147494  1
  Cu  Cu113  1  0.16654122  0.17181126  0.24182507  1
  Cu  Cu114  1  0.82427538  0.82943482  0.75085770  1
  Se  Se115  1  0.08461221  0.07743904  0.06698367  1
  Se  Se116  1  0.06877560  0.07104728  0.55978352  1
  Se  Se117  1  0.07548940  0.42794685  0.05268502  1
  Se  Se118  1  0.08394661  0.41929267  0.55462581  1
  Se  Se119  1  0.08409119  0.75414075  0.06112363  1
  Se  Se120  1  0.07322651  0.75058602  0.54373035  1
  Se  Se121  1  0.42020776  0.07637698  0.05172119  1
  Se  Se122  1  0.40466483  0.08131523  0.55863206  1
  Se  Se123  1  0.41163259  0.41086432  0.06447446  1
  Se  Se124  1  0.40668547  0.41024880  0.56192427  1
  Se  Se125  1  0.41494486  0.74019355  0.06054821  1
  Se  Se126  1  0.41763405  0.75307615  0.55567743  1
  Se  Se127  1  0.75765717  0.08132745  0.06037906  1
  Se  Se128  1  0.73934587  0.06992852  0.55377185  1
  Se  Se129  1  0.74274427  0.40672320  0.05807199  1
  Se  Se130  1  0.75647309  0.41724185  0.56150374  1
  Se  Se131  1  0.75286983  0.74658338  0.06431627  1
  Se  Se132  1  0.74984907  0.75170563  0.54797726  1
  Se  Se133  1  0.25445128  0.25445871  0.06143960  1
  Se  Se134  1  0.25419733  0.25768641  0.55960347  1
  Se  Se135  1  0.24620424  0.58552851  0.05537969  1
  Se  Se136  1  0.25066047  0.58351731  0.54978587  1
  Se  Se137  1  0.24927853  0.91243568  0.05464083  1
  Se  Se138  1  0.24559269  0.91605781  0.55628556  1
  Se  Se139  1  0.58571568  0.24132188  0.05283715  1
  Se  Se140  1  0.58933174  0.25727136  0.55482460  1
  Se  Se141  1  0.59202032  0.57753455  0.06793868  1
  Se  Se142  1  0.59088726  0.59058575  0.56531574  1
  Se  Se143  1  0.59743293  0.91825339  0.06813555  1
  Se  Se144  1  0.58595529  0.91894208  0.54162071  1
  Se  Se145  1  0.92374931  0.25832500  0.05180587  1
  Se  Se146  1  0.92524919  0.25752063  0.56171451  1
  Se  Se147  1  0.92488471  0.59355666  0.06687721  1
  Se  Se148  1  0.92209236  0.59530680  0.55328740  1
  Se  Se149  1  0.89568107  0.89021032  0.06809109  1
  Se  Se150  1  0.90708758  0.91122552  0.54296205  1
  Se  Se151  1  0.07305135  0.24961580  0.43991961  1
  Se  Se152  1  0.08343785  0.25575284  0.94027969  1
  Se  Se153  1  0.08256279  0.58397416  0.44197210  1
  Se  Se154  1  0.08266314  0.59079087  0.94955325  1
  Se  Se155  1  0.09091362  0.91683610  0.44800886  1
  Se  Se156  1  0.06905984  0.93329711  0.94896956  1
  Se  Se157  1  0.41847577  0.26238282  0.43784887  1
  Se  Se158  1  0.41355014  0.25194524  0.95030825  1
  Se  Se159  1  0.41122555  0.58993213  0.44112258  1
  Se  Se160  1  0.41438609  0.59397921  0.94278644  1
  Se  Se161  1  0.41536517  0.91856008  0.44610618  1
  Se  Se162  1  0.41065393  0.91410956  0.93838063  1
  Se  Se163  1  0.75492789  0.25912803  0.44531505  1
  Se  Se164  1  0.75548715  0.24235825  0.94466604  1
  Se  Se165  1  0.73666439  0.59176050  0.43301120  1
  Se  Se166  1  0.74783731  0.58830853  0.95044850  1
  Se  Se167  1  0.75639312  0.91687968  0.42528472  1
  Se  Se168  1  0.74968509  0.91296618  0.94971924  1
  Se  Se169  1  0.25420157  0.08129069  0.44024806  1
  Se  Se170  1  0.25714556  0.07292934  0.93947936  1
  Se  Se171  1  0.24270392  0.41556574  0.44826541  1
  Se  Se172  1  0.26169656  0.41661448  0.94758882  1
  Se  Se173  1  0.25004810  0.75305405  0.44682132  1
  Se  Se174  1  0.25059754  0.75499580  0.94456714  1
  Se  Se175  1  0.59416418  0.08131547  0.43105576  1
  Se  Se176  1  0.58828576  0.07396371  0.94930511  1
  Se  Se177  1  0.59863770  0.42613056  0.44579362  1
  Se  Se178  1  0.59347564  0.41038346  0.94198529  1
  Se  Se179  1  0.57437442  0.75025574  0.44988668  1
  Se  Se180  1  0.59068599  0.74264144  0.94906665  1
  Se  Se181  1  0.91590846  0.07339380  0.43436930  1
  Se  Se182  1  0.94282932  0.05560053  0.94635909  1
  Se  Se183  1  0.92682884  0.41504905  0.43726974  1
  Se  Se184  1  0.91645439  0.41298527  0.93610817  1
  Se  Se185  1  0.91123568  0.74639260  0.42269983  1
  Se  Se186  1  0.91471479  0.74895177  0.95070401  1
  Se  Se187  1  0.24130762  0.24763593  0.31083704  1
  Se  Se188  1  0.24668070  0.24530591  0.81306428  1
  Se  Se189  1  0.24980915  0.58524333  0.30482685  1
  Se  Se190  1  0.24705433  0.59099226  0.80468403  1
  Se  Se191  1  0.24944568  0.91513413  0.30667213  1
  Se  Se192  1  0.25505675  0.92395186  0.79964644  1
  Se  Se193  1  0.57461074  0.24079169  0.30545722  1
  Se  Se194  1  0.58752613  0.24438383  0.80746368  1
  Se  Se195  1  0.57079805  0.56433634  0.31637597  1
  Se  Se196  1  0.58915010  0.58629346  0.80725739  1
  Se  Se197  1  0.57946429  0.91187296  0.30624831  1
  Se  Se198  1  0.57056757  0.90614526  0.81009138  1
  Se  Se199  1  0.91618966  0.26098800  0.29777036  1
  Se  Se200  1  0.91759237  0.24278517  0.80527227  1
  Se  Se201  1  0.89126692  0.56853332  0.31007180  1
  Se  Se202  1  0.91304246  0.57986847  0.81593037  1
  Se  Se203  1  0.95073158  0.94009906  0.30296695  1
  Se  Se204  1  0.90468439  0.90756729  0.81044451  1
  Se  Se205  1  0.08842574  0.09418852  0.30415306  1
  Se  Se206  1  0.08664324  0.08613989  0.81497477  1
  Se  Se207  1  0.07944596  0.41637600  0.29875385  1
  Se  Se208  1  0.08665140  0.42050293  0.80484178  1
  Se  Se209  1  0.08695108  0.75069455  0.30849894  1
  Se  Se210  1  0.08385206  0.76100040  0.81214942  1
  Se  Se211  1  0.41091449  0.07803187  0.30105813  1
  Se  Se212  1  0.41823457  0.08237331  0.80315726  1
  Se  Se213  1  0.41217214  0.41592973  0.31320777  1
  Se  Se214  1  0.42861258  0.42452929  0.81591040  1
  Se  Se215  1  0.41262709  0.75102268  0.30556293  1
  Se  Se216  1  0.41756101  0.74657098  0.80043732  1
  Se  Se217  1  0.76091407  0.09254039  0.30154193  1
  Se  Se218  1  0.75556482  0.08289342  0.81048340  1
  Se  Se219  1  0.71557659  0.40610981  0.32091206  1
  Se  Se220  1  0.75341143  0.41961134  0.80549032  1
  Se  Se221  1  0.72444758  0.72401421  0.31154154  1
  Se  Se222  1  0.74347349  0.74754434  0.80551411  1
  Se  Se223  1  0.25184584  0.08382216  0.19792052  1
  Se  Se224  1  0.24433564  0.08333353  0.70048491  1
  Se  Se225  1  0.24145004  0.42146183  0.18875403  1
  Se  Se226  1  0.24611797  0.42361573  0.69265590  1
  Se  Se227  1  0.25096247  0.74335628  0.19574904  1
  Se  Se228  1  0.24768674  0.74159575  0.68798806  1
  Se  Se229  1  0.58847763  0.07719017  0.19582703  1
  Se  Se230  1  0.57611852  0.08576183  0.68482368  1
  Se  Se231  1  0.57815310  0.40858761  0.20078048  1
  Se  Se232  1  0.59159743  0.41556275  0.70168857  1
  Se  Se233  1  0.57770245  0.75573380  0.19773232  1
  Se  Se234  1  0.58468033  0.75385306  0.69180386  1
  Se  Se235  1  0.92017112  0.08758489  0.19285869  1
  Se  Se236  1  0.90266670  0.08715060  0.69184804  1
  Se  Se237  1  0.88055148  0.44359136  0.18323700  1
  Se  Se238  1  0.92519871  0.42031497  0.69892584  1
  Se  Se239  1  0.92089258  0.74411680  0.20796741  1
  Se  Se240  1  0.90985477  0.75716244  0.68928977  1
  Se  Se241  1  0.08158047  0.25580041  0.19351642  1
  Se  Se242  1  0.08181068  0.25116806  0.70212004  1
  Se  Se243  1  0.07989503  0.58429988  0.19967069  1
  Se  Se244  1  0.08799728  0.58418160  0.68764339  1
  Se  Se245  1  0.08948418  0.91046779  0.19807785  1
  Se  Se246  1  0.07910598  0.90725605  0.69002391  1
  Se  Se247  1  0.42366730  0.23706390  0.18684280  1
  Se  Se248  1  0.42713879  0.24629256  0.69170393  1
  Se  Se249  1  0.41386938  0.58152240  0.20083656  1
  Se  Se250  1  0.42228421  0.57931239  0.70020376  1
  Se  Se251  1  0.41145974  0.91692635  0.19334612  1
  Se  Se252  1  0.41547028  0.91833813  0.68995311  1
  Se  Se253  1  0.74580987  0.25194555  0.19350900  1
  Se  Se254  1  0.74641419  0.25157591  0.69680883  1
  Se  Se255  1  0.73332685  0.59328329  0.19904739  1
  Se  Se256  1  0.75892264  0.58498193  0.69836475  1
  Se  Se257  1  0.75949264  0.91632895  0.20854717  1
  Se  Se258  1  0.74930343  0.91008936  0.68746167  1
