# generated using pymatgen
data_In86Cu29Se144
_symmetry_space_group_name_H-M   'P 1'
_cell_length_a   17.57986038
_cell_length_b   17.58281718
_cell_length_c   23.44762091
_cell_angle_alpha   90.02700241
_cell_angle_beta   89.97977069
_cell_angle_gamma   89.98958777
_symmetry_Int_Tables_number   1
_chemical_formula_structural   In86Cu29Se144
_chemical_formula_sum   'In86 Cu29 Se144'
_cell_volume   7247.73963698
_cell_formula_units_Z   1
loop_
 _symmetry_equiv_pos_site_id
 _symmetry_equiv_pos_as_xyz
  1  'x, y, z'
loop_
 _atom_site_type_symbol
 _atom_site_label
 _atom_site_symmetry_multiplicity
 _atom_site_fract_x
 _atom_site_fract_y
 _atom_site_fract_z
 _atom_site_occupancy
  In  In0  1  0.00171783  0.16765203  0.12355448  1
  In  In1  1  0.00680304  0.17452597  0.61755062  1
  In  In2  1  -0.01021243  0.47987446  0.13105344  1
  In  In3  1  -0.00067198  0.50100579  0.63477464  1
  In  In4  1  0.01114892  0.84649676  0.11561346  1
  In  In5  1  -0.01626767  0.83395437  0.63238154  1
  In  In6  1  0.33476186  0.17489645  0.11880515  1
  In  In7  1  0.34511309  0.18218566  0.61705630  1
  In  In8  1  0.33096606  0.48453645  0.12390277  1
  In  In9  1  0.34056253  0.49527388  0.62759952  1
  In  In10  1  0.32641018  0.84454601  0.12268597  1
  In  In11  1  0.33889833  0.81642302  0.62815114  1
  In  In12  1  0.66641695  0.16396300  0.10569290  1
  In  In13  1  0.66328730  0.16713172  0.62828435  1
  In  In14  1  0.66949319  0.51453316  0.12174177  1
  In  In15  1  0.65204616  0.51093235  0.63145989  1
  In  In16  1  0.66391460  0.82049057  0.12098843  1
  In  In17  1  0.65893637  0.84518088  0.63687244  1
  In  In18  1  0.16893662  0.01454792  0.36748673  1
  In  In19  1  0.16176037  0.00741374  0.88350590  1
  In  In20  1  0.15485694  0.30754972  0.35649358  1
  In  In21  1  0.16224214  0.32433057  0.87075301  1
  In  In22  1  0.16185477  0.66935862  0.37688108  1
  In  In23  1  0.17785382  0.67227783  0.87365096  1
  In  In24  1  0.49653568  0.00199705  0.38448751  1
  In  In25  1  0.52054012  0.01069052  0.87084906  1
  In  In26  1  0.49449261  0.33675837  0.38213463  1
  In  In27  1  0.50387871  0.33223216  0.87172486  1
  In  In28  1  0.50508547  0.65159437  0.38819528  1
  In  In29  1  0.49693052  0.66071641  0.86758118  1
  In  In30  1  0.84553749  -0.00176268  0.37085508  1
  In  In31  1  0.81633695  0.00470557  0.88818200  1
  In  In32  1  0.82736724  0.31928501  0.37580381  1
  In  In33  1  0.82349579  0.32141592  0.86620961  1
  In  In34  1  0.83260591  0.68180289  0.37540550  1
  In  In35  1  0.83928416  0.67551767  0.86454616  1
  In  In36  1  -0.00421684  0.16541454  0.37306855  1
  In  In37  1  -0.00759290  0.16890284  0.87926017  1
  In  In38  1  0.01466057  0.49467639  0.37746062  1
  In  In39  1  -0.00252273  0.49420276  0.86866847  1
  In  In40  1  -0.00656115  0.83811088  0.36819125  1
  In  In41  1  0.00259911  0.82956378  0.88297152  1
  In  In42  1  0.32315683  0.17483332  0.38131100  1
  In  In43  1  0.33368216  0.17174689  0.87427937  1
  In  In44  1  0.34917873  0.49062000  0.38062503  1
  In  In45  1  0.34650017  0.50625675  0.87010862  1
  In  In46  1  0.33613726  0.84234857  0.38002481  1
  In  In47  1  0.33831124  0.82512790  0.87501828  1
  In  In48  1  0.66523889  0.16918265  0.38450352  1
  In  In49  1  0.66602015  0.16878305  0.87719232  1
  In  In50  1  0.65002303  0.49642455  0.38045518  1
  In  In51  1  0.66020595  0.48966206  0.86607609  1
  In  In52  1  0.67021151  0.81947704  0.37395200  1
  In  In53  1  0.68428234  0.84595247  0.85597846  1
  In  In54  1  0.15664319  -0.00370149  0.12068779  1
  In  In55  1  0.15709013  0.00969447  0.62278307  1
  In  In56  1  0.17533587  0.32162650  0.13679660  1
  In  In57  1  0.17681175  0.32867298  0.62921534  1
  In  In58  1  0.15721336  0.67588199  0.12332432  1
  In  In59  1  0.17184722  0.65854931  0.63752272  1
  In  In60  1  0.49054578  0.00574790  0.12018917  1
  In  In61  1  0.51113368  0.00892427  0.62211987  1
  In  In62  1  0.49342703  0.32839966  0.11595461  1
  In  In63  1  0.49495560  0.33238171  0.62738790  1
  In  In64  1  0.51628266  0.66817600  0.12144485  1
  In  In65  1  0.49516051  0.66773350  0.62171688  1
  In  In66  1  0.84614072  0.01587732  0.10900942  1
  In  In67  1  0.80279882  0.00775669  0.63778446  1
  In  In68  1  0.84544746  0.32975060  0.12709120  1
  In  In69  1  0.84141814  0.32386127  0.63097083  1
  In  In70  1  0.81820937  0.66115891  0.12183571  1
  In  In71  1  0.82514546  0.68478703  0.64569286  1
  In  In72  1  0.17027838  0.83771827  0.49748584  1
  In  In73  1  0.18030061  0.49099326  0.50751500  1
  In  In74  1  0.67433115  0.33984434  0.24954672  1
  In  In75  1  0.83019106  0.49939277  0.50821587  1
  In  In76  1  -0.00559213  -0.00044424  0.75881579  1
  In  In77  1  0.66999954  -0.00270008  0.24016143  1
  In  In78  1  0.82998567  0.84430613  0.50571672  1
  In  In79  1  0.50378723  0.84039102  -0.00798382  1
  In  In80  1  -0.00498464  0.66021623  0.24803893  1
  In  In81  1  0.33009771  0.00365303  0.24755892  1
  In  In82  1  0.33547519  0.66301941  0.25111020  1
  In  In83  1  0.16903151  0.50149626  0.00418354  1
  In  In84  1  0.33992619  0.00605330  0.75756350  1
  In  In85  1  0.83133778  0.49664514  0.00184433  1
  Cu  Cu86  1  0.33071942  0.32844348  0.49996760  1
  Cu  Cu87  1  -0.00189165  0.00064154  -0.00066548  1
  Cu  Cu88  1  0.66242950  0.00505361  0.50527481  1
  Cu  Cu89  1  -0.00071007  0.66965904  -0.00185569  1
  Cu  Cu90  1  0.33533664  0.33504212  -0.00316292  1
  Cu  Cu91  1  0.16422594  0.82848848  0.75487939  1
  Cu  Cu92  1  -0.00106239  0.32220069  0.00001290  1
  Cu  Cu93  1  0.32984645  0.00978374  -0.00101856  1
  Cu  Cu94  1  0.50832415  0.82458521  0.25352097  1
  Cu  Cu95  1  0.83205672  0.49671559  0.74826533  1
  Cu  Cu96  1  0.33650599  0.67234958  -0.00576376  1
  Cu  Cu97  1  0.17406846  0.17626228  0.74557921  1
  Cu  Cu98  1  0.83617389  0.83252429  0.24395199  1
  Cu  Cu99  1  0.83786481  0.16405769  0.24711363  1
  Cu  Cu100  1  0.00292939  0.66875520  0.51364281  1
  Cu  Cu101  1  0.66044219  0.66757287  0.50343873  1
  Cu  Cu102  1  -0.00034216  0.32603300  0.49867514  1
  Cu  Cu103  1  0.33842386  -0.00117215  0.50259427  1
  Cu  Cu104  1  0.66080189  0.33085718  0.50626196  1
  Cu  Cu105  1  0.16646085  0.49881977  0.75535006  1
  Cu  Cu106  1  0.66517528  0.66511776  -0.00838704  1
  Cu  Cu107  1  0.49815300  0.82811939  0.75023209  1
  Cu  Cu108  1  0.49686460  0.49491384  0.74818732  1
  Cu  Cu109  1  0.50476461  0.50069400  0.25430277  1
  Cu  Cu110  1  0.16974441  0.49144619  0.25170615  1
  Cu  Cu111  1  0.49554547  0.17556135  0.24703527  1
  Cu  Cu112  1  -0.00271336  0.01230527  0.49826836  1
  Cu  Cu113  1  0.66264496  0.33355828  -0.00964067  1
  Cu  Cu114  1  0.83357307  0.16593375  0.75378165  1
  Se  Se115  1  0.08224864  0.08548701  0.05192458  1
  Se  Se116  1  0.08838466  0.09125872  0.54733960  1
  Se  Se117  1  0.07777318  0.40661822  0.05846960  1
  Se  Se118  1  0.07463561  0.41028713  0.56036859  1
  Se  Se119  1  0.08662114  0.75360479  0.04724890  1
  Se  Se120  1  0.08382365  0.75352933  0.56782109  1
  Se  Se121  1  0.41693803  0.09088856  0.04991510  1
  Se  Se122  1  0.41988526  0.08455153  0.55532870  1
  Se  Se123  1  0.41758961  0.42134779  0.04860210  1
  Se  Se124  1  0.41310552  0.41231572  0.55353332  1
  Se  Se125  1  0.41520869  0.75161335  0.05910487  1
  Se  Se126  1  0.42085345  0.75538604  0.55109325  1
  Se  Se127  1  0.74351777  0.07351251  0.04357822  1
  Se  Se128  1  0.74948598  0.08723192  0.55508006  1
  Se  Se129  1  0.74043401  0.40514276  0.06047667  1
  Se  Se130  1  0.74128330  0.41025481  0.56779185  1
  Se  Se131  1  0.74770378  0.74573690  0.04790996  1
  Se  Se132  1  0.74358715  0.74723291  0.56119069  1
  Se  Se133  1  0.24778108  0.25815215  0.05242598  1
  Se  Se134  1  0.24325724  0.24666262  0.55119261  1
  Se  Se135  1  0.26079813  0.59571870  0.06204385  1
  Se  Se136  1  0.26007246  0.59418939  0.56037851  1
  Se  Se137  1  0.24879352  0.92186067  0.05032280  1
  Se  Se138  1  0.25683604  0.92314271  0.56510126  1
  Se  Se139  1  0.57874704  0.25148197  0.04603397  1
  Se  Se140  1  0.57802848  0.24677260  0.55898639  1
  Se  Se141  1  0.58337408  0.58242172  0.04661681  1
  Se  Se142  1  0.57714443  0.58044225  0.55209141  1
  Se  Se143  1  0.58859458  0.92448442  0.05965962  1
  Se  Se144  1  0.58518323  0.91341766  0.55559424  1
  Se  Se145  1  0.91091255  0.24337931  0.05267696  1
  Se  Se146  1  0.91152402  0.24718912  0.55137713  1
  Se  Se147  1  0.92736404  0.58509420  0.06084479  1
  Se  Se148  1  0.91436090  0.59520704  0.56936701  1
  Se  Se149  1  0.91435454  0.91179631  0.04811484  1
  Se  Se150  1  0.91991987  0.93633219  0.56402320  1
  Se  Se151  1  0.08276173  0.24723642  0.44177567  1
  Se  Se152  1  0.08619688  0.24507637  0.94517758  1
  Se  Se153  1  0.08054302  0.58826310  0.45328613  1
  Se  Se154  1  0.07772556  0.58530822  0.94019399  1
  Se  Se155  1  0.07368784  0.92447477  0.44000139  1
  Se  Se156  1  0.08480840  0.91699902  0.94863174  1
  Se  Se157  1  0.41809872  0.24505248  0.44820354  1
  Se  Se158  1  0.41878264  0.25243328  0.94290735  1
  Se  Se159  1  0.41015264  0.58041701  0.45232340  1
  Se  Se160  1  0.41993847  0.58646754  0.94586445  1
  Se  Se161  1  0.42144783  0.91216818  0.45289357  1
  Se  Se162  1  0.41061709  0.93304080  0.93468213  1
  Se  Se163  1  0.74791110  0.25143262  0.45316854  1
  Se  Se164  1  0.75445818  0.24977679  0.94722127  1
  Se  Se165  1  0.74673975  0.59221281  0.44346004  1
  Se  Se166  1  0.74816982  0.58206400  0.93454509  1
  Se  Se167  1  0.74021989  0.92771838  0.43838391  1
  Se  Se168  1  0.74353598  0.90232129  0.94613542  1
  Se  Se169  1  0.25268293  0.07622191  0.44593814  1
  Se  Se170  1  0.24802249  0.09411901  0.94518867  1
  Se  Se171  1  0.24798297  0.40081410  0.43406310  1
  Se  Se172  1  0.25338732  0.41601378  0.93722791  1
  Se  Se173  1  0.25908097  0.73997328  0.44357101  1
  Se  Se174  1  0.24957744  0.75690666  0.94817031  1
  Se  Se175  1  0.57939329  0.08742026  0.45015414  1
  Se  Se176  1  0.59055757  0.08310859  0.94916787  1
  Se  Se177  1  0.57776557  0.41568365  0.45383805  1
  Se  Se178  1  0.57948426  0.42185112  0.94364880  1
  Se  Se179  1  0.58282091  0.75280671  0.44661724  1
  Se  Se180  1  0.58827081  0.74857968  0.93148976  1
  Se  Se181  1  0.90805175  0.08791341  0.44422184  1
  Se  Se182  1  0.91365556  0.08410489  0.94759332  1
  Se  Se183  1  0.92072008  0.41290557  0.44347481  1
  Se  Se184  1  0.91996453  0.40563907  0.94115949  1
  Se  Se185  1  0.92763160  0.74978470  0.44964588  1
  Se  Se186  1  0.91031758  0.74699289  0.94608010  1
  Se  Se187  1  0.25786744  0.24088188  0.29714950  1
  Se  Se188  1  0.25679566  0.25536719  0.80185342  1
  Se  Se189  1  0.24449937  0.57345146  0.31339930  1
  Se  Se190  1  0.25251519  0.58313098  0.80568133  1
  Se  Se191  1  0.24377778  0.90768558  0.30697862  1
  Se  Se192  1  0.24192165  0.91500222  0.81219755  1
  Se  Se193  1  0.58162296  0.24814485  0.30837873  1
  Se  Se194  1  0.60195005  0.26335600  0.80697778  1
  Se  Se195  1  0.58434245  0.58656834  0.30736829  1
  Se  Se196  1  0.58137545  0.57926473  0.79959312  1
  Se  Se197  1  0.58151374  0.91590737  0.30986009  1
  Se  Se198  1  0.58093874  0.91761977  0.79755539  1
  Se  Se199  1  0.91359735  0.25107254  0.30304004  1
  Se  Se200  1  0.92234981  0.24916823  0.80218904  1
  Se  Se201  1  0.91318963  0.57795305  0.31844903  1
  Se  Se202  1  0.91621749  0.57913132  0.80238574  1
  Se  Se203  1  0.91782320  0.91847290  0.29503827  1
  Se  Se204  1  0.90717241  0.91419043  0.82010410  1
  Se  Se205  1  0.07409921  0.08125629  0.30294888  1
  Se  Se206  1  0.09321189  0.09505571  0.80557917  1
  Se  Se207  1  0.07888833  0.41187565  0.30094067  1
  Se  Se208  1  0.08245176  0.41120479  0.80294127  1
  Se  Se209  1  0.08841911  0.75474394  0.30382192  1
  Se  Se210  1  0.08182995  0.74821508  0.81063380  1
  Se  Se211  1  0.42403067  0.08895404  0.30854383  1
  Se  Se212  1  0.43474773  0.10084147  0.80519704  1
  Se  Se213  1  0.42183354  0.41345105  0.30356871  1
  Se  Se214  1  0.41495993  0.41163536  0.80281422  1
  Se  Se215  1  0.42325704  0.75187663  0.31391091  1
  Se  Se216  1  0.41197672  0.74607923  0.80061335  1
  Se  Se217  1  0.75074219  0.08976902  0.30725021  1
  Se  Se218  1  0.75108223  0.08325007  0.80799713  1
  Se  Se219  1  0.75501561  0.42756256  0.31730304  1
  Se  Se220  1  0.74860421  0.41118827  0.79895526  1
  Se  Se221  1  0.75307606  0.75059905  0.29793808  1
  Se  Se222  1  0.73224341  0.72944015  0.80094667  1
  Se  Se223  1  0.24309749  0.09052391  0.18574901  1
  Se  Se224  1  0.25007353  0.08808547  0.68931365  1
  Se  Se225  1  0.25786110  0.41104244  0.20128241  1
  Se  Se226  1  0.24922890  0.42089336  0.69584910  1
  Se  Se227  1  0.24557713  0.75598303  0.19359386  1
  Se  Se228  1  0.25154781  0.74941192  0.70194297  1
  Se  Se229  1  0.57612225  0.09495183  0.18871494  1
  Se  Se230  1  0.60521275  0.06355590  0.69540244  1
  Se  Se231  1  0.57924822  0.42181327  0.18759238  1
  Se  Se232  1  0.58250956  0.41287845  0.69571744  1
  Se  Se233  1  0.59046220  0.74343130  0.19880652  1
  Se  Se234  1  0.58017332  0.74610708  0.69387140  1
  Se  Se235  1  0.91814405  0.08070338  0.19187273  1
  Se  Se236  1  0.91407525  0.08834597  0.68994011  1
  Se  Se237  1  0.89247670  0.42670961  0.20131141  1
  Se  Se238  1  0.91876967  0.41231400  0.69887549  1
  Se  Se239  1  0.91498387  0.75132480  0.18222779  1
  Se  Se240  1  0.92803424  0.74667030  0.70850623  1
  Se  Se241  1  0.06250922  0.26697635  0.19214647  1
  Se  Se242  1  0.08195178  0.25182423  0.69343116  1
  Se  Se243  1  0.09182565  0.56983402  0.18920821  1
  Se  Se244  1  0.08148944  0.58350171  0.70334968  1
  Se  Se245  1  0.08881658  0.91072255  0.19444479  1
  Se  Se246  1  0.08934280  0.91335861  0.69500580  1
  Se  Se247  1  0.41359571  0.25614864  0.19224567  1
  Se  Se248  1  0.40964675  0.25428793  0.69754276  1
  Se  Se249  1  0.42563169  0.57699809  0.18795355  1
  Se  Se250  1  0.41770826  0.58398420  0.69508624  1
  Se  Se251  1  0.42821434  0.90687110  0.19472788  1
  Se  Se252  1  0.42082904  0.91498477  0.69102035  1
  Se  Se253  1  0.74888597  0.23684421  0.18772759  1
  Se  Se254  1  0.75078895  0.24739539  0.69735866  1
  Se  Se255  1  0.75527094  0.57621676  0.19707039  1
  Se  Se256  1  0.74732863  0.58164870  0.69838431  1
  Se  Se257  1  0.76029922  0.91112698  0.17950932  1
  Se  Se258  1  0.77800970  0.88660806  0.69447080  1
