# generated using pymatgen
data_In86Cu29Se144
_symmetry_space_group_name_H-M   'P 1'
_cell_length_a   17.68635090
_cell_length_b   17.68362505
_cell_length_c   23.51468056
_cell_angle_alpha   89.95066673
_cell_angle_beta   89.99974957
_cell_angle_gamma   89.96913768
_symmetry_Int_Tables_number   1
_chemical_formula_structural   In86Cu29Se144
_chemical_formula_sum   'In86 Cu29 Se144'
_cell_volume   7354.41943221
_cell_formula_units_Z   1
loop_
 _symmetry_equiv_pos_site_id
 _symmetry_equiv_pos_as_xyz
  1  'x, y, z'
loop_
 _atom_site_type_symbol
 _atom_site_label
 _atom_site_symmetry_multiplicity
 _atom_site_fract_x
 _atom_site_fract_y
 _atom_site_fract_z
 _atom_site_occupancy
  In  In0  1  -0.00689490  0.17587721  0.13493245  1
  In  In1  1  -0.00548974  0.17446688  0.61290820  1
  In  In2  1  0.00556870  0.49921041  0.14175328  1
  In  In3  1  -0.00090785  0.49268291  0.61791271  1
  In  In4  1  0.00742409  0.83010402  0.13595398  1
  In  In5  1  -0.00617672  0.82317825  0.61878635  1
  In  In6  1  0.33419015  0.18473201  0.13411400  1
  In  In7  1  0.31332474  0.16270520  0.59792126  1
  In  In8  1  0.27579290  0.53431721  0.20062977  1
  In  In9  1  0.31668875  0.47567684  0.60016723  1
  In  In10  1  0.32938670  0.83403009  0.11985658  1
  In  In11  1  0.33104486  0.83995178  0.61344427  1
  In  In12  1  0.66640564  0.16149746  0.12470915  1
  In  In13  1  0.67900395  0.17111472  0.61588961  1
  In  In14  1  0.66484538  0.50514567  0.12692447  1
  In  In15  1  0.66708160  0.49969485  0.62693484  1
  In  In16  1  0.66317371  0.84910126  0.12154625  1
  In  In17  1  0.64578545  0.82623883  0.61430286  1
  In  In18  1  0.16238858  0.01133393  0.38867845  1
  In  In19  1  0.15661475  -0.01009600  0.87183510  1
  In  In20  1  0.16441278  0.33300141  0.38407496  1
  In  In21  1  0.16611893  0.34220231  0.87358101  1
  In  In22  1  0.17010552  0.66690079  0.37530804  1
  In  In23  1  0.16975704  0.67134053  0.87235564  1
  In  In24  1  0.48883462  0.01044551  0.40224600  1
  In  In25  1  0.48535296  0.00182809  0.86939646  1
  In  In26  1  0.49399469  0.33130613  0.38910541  1
  In  In27  1  0.50439748  0.32372314  0.86743814  1
  In  In28  1  0.48804176  0.67541337  0.37649037  1
  In  In29  1  0.50719283  0.67173098  0.86951294  1
  In  In30  1  0.84129249  -0.01102119  0.38254549  1
  In  In31  1  0.84668178  0.00302465  0.87516979  1
  In  In32  1  0.86626588  0.31276093  0.40162976  1
  In  In33  1  0.83182314  0.32849169  0.86724206  1
  In  In34  1  0.84668077  0.65883260  0.37934014  1
  In  In35  1  0.83171867  0.66380871  0.86205614  1
  In  In36  1  0.01067359  0.16669017  0.38103596  1
  In  In37  1  -0.00933047  0.15614903  0.87378388  1
  In  In38  1  0.00416720  0.49347200  0.37746751  1
  In  In39  1  0.00070058  0.49750853  0.86650927  1
  In  In40  1  0.00495307  0.83138887  0.37454196  1
  In  In41  1  0.01146884  0.83153584  0.87280875  1
  In  In42  1  0.32470950  0.17065886  0.39559563  1
  In  In43  1  0.34541236  0.16727180  0.87125011  1
  In  In44  1  0.33063102  0.49352376  0.38137303  1
  In  In45  1  0.33099026  0.50186657  0.87357587  1
  In  In46  1  0.34509910  0.82976526  0.38033319  1
  In  In47  1  0.32342760  0.84099273  0.87883392  1
  In  In48  1  0.65968295  0.16472017  0.39003287  1
  In  In49  1  0.67226158  0.17851273  0.86520480  1
  In  In50  1  0.67644144  0.49980285  0.38362077  1
  In  In51  1  0.66938685  0.50200283  0.85680111  1
  In  In52  1  0.66456484  0.83966254  0.38750328  1
  In  In53  1  0.66378085  0.82523658  0.86799615  1
  In  In54  1  0.17261741  -0.01231334  0.12864134  1
  In  In55  1  0.17812478  0.00976746  0.61647627  1
  In  In56  1  0.16442576  0.34187794  0.14366048  1
  In  In57  1  0.12736682  0.30399409  0.57054026  1
  In  In58  1  0.16350898  0.68195193  0.12614212  1
  In  In59  1  0.15596770  0.65154674  0.61561850  1
  In  In60  1  0.50657485  0.00383124  0.12372214  1
  In  In61  1  0.48067603  -0.00430286  0.60771015  1
  In  In62  1  0.48249670  0.33734323  0.13078856  1
  In  In63  1  0.50374720  0.34084843  0.61922794  1
  In  In64  1  0.48224987  0.66648823  0.12783739  1
  In  In65  1  0.49902336  0.66200695  0.62277647  1
  In  In66  1  0.82637346  0.01599749  0.12916960  1
  In  In67  1  0.82837939  0.00537582  0.60945181  1
  In  In68  1  0.84195957  0.33228500  0.12974892  1
  In  In69  1  0.83583070  0.33058624  0.62037544  1
  In  In70  1  0.83480041  0.67813101  0.13100066  1
  In  In71  1  0.83034099  0.66504865  0.62565327  1
  In  In72  1  0.83348574  0.50229506  0.00426850  1
  In  In73  1  0.00825809  0.00011321  0.74595047  1
  In  In74  1  0.66765791  0.00091234  0.25599720  1
  In  In75  1  0.32530397  0.32655570  0.73772089  1
  In  In76  1  0.83281916  0.83708292  -0.00331598  1
  In  In77  1  0.49668228  0.49373868  -0.00065311  1
  In  In78  1  0.50000249  0.16584261  0.00078119  1
  In  In79  1  0.16447209  0.51205770  0.01893858  1
  In  In80  1  0.66895378  0.66706439  0.24986899  1
  In  In81  1  0.16107762  0.15949372  0.00030181  1
  In  In82  1  0.33269888  0.00390599  0.26172878  1
  In  In83  1  0.33307614  0.66477820  0.74209546  1
  In  In84  1  0.66459181  0.00033874  0.73504667  1
  In  In85  1  0.66850949  0.33584199  0.26763778  1
  Cu  Cu86  1  0.00368474  0.66555802  0.49828954  1
  Cu  Cu87  1  0.15420920  0.49318105  0.74017527  1
  Cu  Cu88  1  0.32983222  0.34203644  0.00963802  1
  Cu  Cu89  1  0.16454810  0.83726380  0.25426811  1
  Cu  Cu90  1  -0.00779984  0.32625314  0.00430677  1
  Cu  Cu91  1  0.83037865  0.82932582  0.74243278  1
  Cu  Cu92  1  0.66911835  0.32785109  -0.00802989  1
  Cu  Cu93  1  0.84368094  0.82878105  0.25759148  1
  Cu  Cu94  1  0.83843890  0.17120112  0.74553012  1
  Cu  Cu95  1  0.49976334  0.83737601  0.25486262  1
  Cu  Cu96  1  0.00344116  0.66954450  0.00353687  1
  Cu  Cu97  1  0.66104631  0.00449829  -0.00070256  1
  Cu  Cu98  1  0.84654075  0.49583916  0.26096621  1
  Cu  Cu99  1  0.67088785  0.34573850  0.50315996  1
  Cu  Cu100  1  0.83711439  0.49555862  0.74092590  1
  Cu  Cu101  1  -0.00352059  -0.00276357  0.00172963  1
  Cu  Cu102  1  0.83747937  0.17098011  0.25917450  1
  Cu  Cu103  1  0.16670552  0.82966278  0.74929884  1
  Cu  Cu104  1  0.16603638  0.16726642  0.26178174  1
  Cu  Cu105  1  -0.00181095  -0.00346028  0.49780039  1
  Cu  Cu106  1  0.49235590  0.83735837  0.73708427  1
  Cu  Cu107  1  0.66062019  0.67049796  -0.00912719  1
  Cu  Cu108  1  0.33471145  0.66512149  0.49874501  1
  Cu  Cu109  1  0.49849193  0.16691770  0.74302970  1
  Cu  Cu110  1  0.49777115  0.49627591  0.26030817  1
  Cu  Cu111  1  0.49679493  0.49883985  0.74298578  1
  Cu  Cu112  1  0.33293496  -0.00389515  -0.00192683  1
  Cu  Cu113  1  0.33148550  0.67625434  0.00160840  1
  Cu  Cu114  1  0.66666325  0.66570968  0.50161805  1
  Se  Se115  1  0.07458109  0.07481022  0.06567116  1
  Se  Se116  1  0.07689527  0.07906136  0.55442784  1
  Se  Se117  1  0.07262977  0.40698156  0.06378935  1
  Se  Se118  1  0.08580938  0.43638195  0.53888982  1
  Se  Se119  1  0.07982196  0.75872221  0.05507547  1
  Se  Se120  1  0.08635976  0.75058471  0.55162983  1
  Se  Se121  1  0.40335639  0.08153409  0.06087702  1
  Se  Se122  1  0.43198567  0.10904154  0.54604379  1
  Se  Se123  1  0.40244703  0.42772639  0.06727104  1
  Se  Se124  1  0.43928939  0.43631283  0.55055763  1
  Se  Se125  1  0.42007404  0.75526824  0.05383360  1
  Se  Se126  1  0.41536836  0.74591609  0.55603116  1
  Se  Se127  1  0.74587930  0.08515213  0.05189576  1
  Se  Se128  1  0.73597101  0.07568737  0.54245904  1
  Se  Se129  1  0.73956435  0.40867830  0.05902646  1
  Se  Se130  1  0.75525295  0.42429315  0.55747896  1
  Se  Se131  1  0.74038010  0.74468452  0.05637515  1
  Se  Se132  1  0.74590878  0.74862583  0.55756647  1
  Se  Se133  1  0.24538688  0.25599088  0.05971106  1
  Se  Se134  1  0.27051293  0.28481068  0.54435443  1
  Se  Se135  1  0.26444972  0.59638046  0.06865695  1
  Se  Se136  1  0.24602966  0.58179654  0.54561589  1
  Se  Se137  1  0.24667479  0.91597765  0.05065310  1
  Se  Se138  1  0.25623322  0.92891746  0.54520884  1
  Se  Se139  1  0.58626878  0.26100683  0.05965433  1
  Se  Se140  1  0.59163774  0.25801494  0.55458291  1
  Se  Se141  1  0.58660658  0.59175368  0.05581703  1
  Se  Se142  1  0.58573085  0.58221074  0.55615327  1
  Se  Se143  1  0.57793467  0.92049458  0.04966429  1
  Se  Se144  1  0.58801558  0.93021687  0.55069750  1
  Se  Se145  1  0.91017895  0.24450194  0.05757872  1
  Se  Se146  1  0.89803344  0.23973084  0.54646162  1
  Se  Se147  1  0.92573184  0.59056200  0.06491106  1
  Se  Se148  1  0.91866232  0.58958496  0.55659156  1
  Se  Se149  1  0.91510059  0.92152086  0.06505903  1
  Se  Se150  1  0.91682759  0.91469880  0.55316158  1
  Se  Se151  1  0.08931707  0.24549145  0.45562134  1
  Se  Se152  1  0.07583372  0.25559348  0.94098962  1
  Se  Se153  1  0.08581876  0.58452765  0.44255033  1
  Se  Se154  1  0.07860781  0.58608193  0.94277308  1
  Se  Se155  1  0.08330286  0.91375741  0.44671865  1
  Se  Se156  1  0.07909327  0.91599221  0.94748506  1
  Se  Se157  1  0.43848218  0.22499701  0.45452646  1
  Se  Se158  1  0.40843382  0.26519519  0.94605756  1
  Se  Se159  1  0.41677795  0.58298529  0.44367733  1
  Se  Se160  1  0.40969496  0.59450320  0.94029270  1
  Se  Se161  1  0.42649395  0.90110943  0.45474007  1
  Se  Se162  1  0.41755295  0.91703293  0.94344667  1
  Se  Se163  1  0.74463666  0.25723276  0.44718199  1
  Se  Se164  1  0.75410710  0.24720936  0.94092611  1
  Se  Se165  1  0.75476700  0.58865951  0.44841339  1
  Se  Se166  1  0.74263296  0.58654307  0.93774984  1
  Se  Se167  1  0.77214517  0.89326836  0.44769957  1
  Se  Se168  1  0.74067107  0.92609564  0.93581303  1
  Se  Se169  1  0.26337664  0.06524017  0.45787882  1
  Se  Se170  1  0.25615334  0.07834668  0.93726430  1
  Se  Se171  1  0.26571391  0.39713407  0.45109832  1
  Se  Se172  1  0.25003134  0.42135294  0.94937063  1
  Se  Se173  1  0.25407038  0.74865481  0.44336951  1
  Se  Se174  1  0.24509760  0.75095265  0.94492904  1
  Se  Se175  1  0.61425509  0.05164734  0.45223635  1
  Se  Se176  1  0.58809394  0.08273499  0.93265039  1
  Se  Se177  1  0.58466979  0.42066800  0.44629193  1
  Se  Se178  1  0.59210119  0.41238696  0.93465923  1
  Se  Se179  1  0.58240872  0.74424723  0.44473375  1
  Se  Se180  1  0.57845526  0.75690018  0.94249201  1
  Se  Se181  1  0.91961927  0.08352336  0.44418229  1
  Se  Se182  1  0.91470788  0.08351426  0.95134449  1
  Se  Se183  1  0.90924884  0.43462809  0.45036195  1
  Se  Se184  1  0.92146525  0.41305034  0.94293718  1
  Se  Se185  1  0.92183895  0.75026182  0.44496643  1
  Se  Se186  1  0.91946547  0.74021194  0.93937941  1
  Se  Se187  1  0.24941063  0.24368064  0.31833311  1
  Se  Se188  1  0.24447446  0.24458992  0.81178646  1
  Se  Se189  1  0.25685432  0.58045886  0.30761266  1
  Se  Se190  1  0.23779404  0.57075563  0.80120830  1
  Se  Se191  1  0.24338006  0.91246325  0.31788229  1
  Se  Se192  1  0.24554915  0.91579423  0.80302530  1
  Se  Se193  1  0.57660433  0.24103680  0.31607231  1
  Se  Se194  1  0.58405841  0.24894024  0.79425795  1
  Se  Se195  1  0.58268542  0.57862207  0.31247542  1
  Se  Se196  1  0.57576434  0.58402922  0.79803411  1
  Se  Se197  1  0.57407307  0.91734599  0.31615110  1
  Se  Se198  1  0.57438293  0.91427527  0.80099227  1
  Se  Se199  1  0.92438949  0.24972088  0.31235912  1
  Se  Se200  1  0.92194838  0.24662864  0.80395692  1
  Se  Se201  1  0.92901069  0.58540345  0.30602377  1
  Se  Se202  1  0.91651816  0.57849237  0.79987957  1
  Se  Se203  1  0.92246704  0.91828511  0.30635999  1
  Se  Se204  1  0.91188666  0.90662163  0.80356051  1
  Se  Se205  1  0.08463161  0.07913143  0.30948134  1
  Se  Se206  1  0.09409072  0.09405180  0.80526648  1
  Se  Se207  1  0.08675359  0.41045297  0.31028228  1
  Se  Se208  1  0.08026603  0.40980355  0.80087104  1
  Se  Se209  1  0.08640514  0.74727625  0.30484145  1
  Se  Se210  1  0.08376152  0.74573954  0.80150048  1
  Se  Se211  1  0.42195480  0.08924543  0.32201373  1
  Se  Se212  1  0.41458492  0.08530793  0.79598147  1
  Se  Se213  1  0.41949683  0.41205881  0.31456581  1
  Se  Se214  1  0.41757094  0.41923998  0.80605692  1
  Se  Se215  1  0.41284853  0.75137098  0.30006998  1
  Se  Se216  1  0.41609116  0.75896365  0.80411567  1
  Se  Se217  1  0.75634266  0.09018482  0.31640680  1
  Se  Se218  1  0.75919026  0.08278664  0.80228937  1
  Se  Se219  1  0.76954437  0.41618351  0.32067363  1
  Se  Se220  1  0.75439205  0.41349328  0.79793667  1
  Se  Se221  1  0.75418112  0.75427647  0.31298577  1
  Se  Se222  1  0.74683735  0.74934943  0.79834961  1
  Se  Se223  1  0.24391710  0.09201271  0.19484462  1
  Se  Se224  1  0.24919685  0.10061219  0.68411275  1
  Se  Se225  1  0.28494597  0.38922202  0.19116962  1
  Se  Se226  1  0.23609075  0.41614700  0.68227310  1
  Se  Se227  1  0.24928939  0.76155134  0.19519275  1
  Se  Se228  1  0.24182605  0.75216833  0.68332654  1
  Se  Se229  1  0.57509115  0.09333036  0.19779815  1
  Se  Se230  1  0.57467324  0.08930630  0.67862118  1
  Se  Se231  1  0.58213558  0.42280790  0.19719125  1
  Se  Se232  1  0.58361048  0.41484738  0.69554960  1
  Se  Se233  1  0.57906239  0.76089298  0.19064458  1
  Se  Se234  1  0.57666591  0.74886024  0.69320893  1
  Se  Se235  1  0.91312928  0.08576805  0.20043187  1
  Se  Se236  1  0.91078686  0.08300166  0.68750462  1
  Se  Se237  1  0.92007291  0.41046337  0.20149889  1
  Se  Se238  1  0.91976203  0.41101149  0.69029597  1
  Se  Se239  1  0.92295114  0.74503995  0.20164714  1
  Se  Se240  1  0.91762988  0.74655200  0.69420534  1
  Se  Se241  1  0.08474046  0.24756277  0.20262790  1
  Se  Se242  1  0.08906552  0.25505049  0.67063848  1
  Se  Se243  1  0.11300986  0.57141966  0.19223064  1
  Se  Se244  1  0.07459634  0.58143693  0.69074654  1
  Se  Se245  1  0.08361063  0.92238127  0.20096277  1
  Se  Se246  1  0.09233677  0.90983009  0.68427185  1
  Se  Se247  1  0.43279067  0.23981491  0.20161289  1
  Se  Se248  1  0.41875249  0.24269677  0.67984646  1
  Se  Se249  1  0.42085368  0.57686019  0.20020446  1
  Se  Se250  1  0.40927581  0.56657374  0.68229452  1
  Se  Se251  1  0.42121853  0.91882667  0.19314434  1
  Se  Se252  1  0.40893643  0.92096805  0.68712997  1
  Se  Se253  1  0.75204058  0.24506853  0.19746667  1
  Se  Se254  1  0.75219032  0.24926027  0.69212337  1
  Se  Se255  1  0.76516693  0.57088260  0.19645131  1
  Se  Se256  1  0.74956906  0.58246133  0.69681515  1
  Se  Se257  1  0.76009208  0.90755221  0.19658687  1
  Se  Se258  1  0.75538808  0.90822736  0.68049623  1
