# generated using pymatgen
data_In86Cu29Se144
_symmetry_space_group_name_H-M   'P 1'
_cell_length_a   17.58119880
_cell_length_b   17.57955748
_cell_length_c   23.44476506
_cell_angle_alpha   89.99581946
_cell_angle_beta   90.00862699
_cell_angle_gamma   89.99357242
_symmetry_Int_Tables_number   1
_chemical_formula_structural   In86Cu29Se144
_chemical_formula_sum   'In86 Cu29 Se144'
_cell_volume   7246.06623338
_cell_formula_units_Z   1
loop_
 _symmetry_equiv_pos_site_id
 _symmetry_equiv_pos_as_xyz
  1  'x, y, z'
loop_
 _atom_site_type_symbol
 _atom_site_label
 _atom_site_symmetry_multiplicity
 _atom_site_fract_x
 _atom_site_fract_y
 _atom_site_fract_z
 _atom_site_occupancy
  In  In0  1  -0.00946307  0.17984680  0.14328642  1
  In  In1  1  0.00475675  0.15065038  0.62300673  1
  In  In2  1  -0.01418559  0.51217188  0.13241905  1
  In  In3  1  -0.00044635  0.50016834  0.61092443  1
  In  In4  1  0.01287916  0.81908214  0.13382179  1
  In  In5  1  0.00448119  0.83821219  0.61004930  1
  In  In6  1  0.34390993  0.16355861  0.12639038  1
  In  In7  1  0.32552886  0.17637265  0.62706949  1
  In  In8  1  0.33175936  0.50242271  0.13195567  1
  In  In9  1  0.33498204  0.51025443  0.62950672  1
  In  In10  1  0.32074635  0.83820444  0.12767770  1
  In  In11  1  0.33039606  0.83247943  0.62390077  1
  In  In12  1  0.66597908  0.16456404  0.12974903  1
  In  In13  1  0.66217071  0.17549551  0.62310555  1
  In  In14  1  0.67438010  0.49215002  0.13398521  1
  In  In15  1  0.67901202  0.51180195  0.61314661  1
  In  In16  1  0.66631690  0.82698578  0.14440502  1
  In  In17  1  0.64648635  0.81272247  0.60461131  1
  In  In18  1  0.16234743  0.00403785  0.38389386  1
  In  In19  1  0.16619222  -0.01058261  0.87688216  1
  In  In20  1  0.16705133  0.33459456  0.37255400  1
  In  In21  1  0.17586086  0.32765063  0.87546892  1
  In  In22  1  0.16599905  0.66343641  0.37646339  1
  In  In23  1  0.17719817  0.66441520  0.87453980  1
  In  In24  1  0.49541108  -0.02695945  0.37406774  1
  In  In25  1  0.50173876  0.01139985  0.87499146  1
  In  In26  1  0.49895771  0.33587235  0.36799191  1
  In  In27  1  0.49525412  0.32907465  0.87484698  1
  In  In28  1  0.50735001  0.68740648  0.36176688  1
  In  In29  1  0.50183151  0.66321811  0.86030742  1
  In  In30  1  0.83091711  -0.00520295  0.36570242  1
  In  In31  1  0.83998897  0.00186810  0.88291556  1
  In  In32  1  0.83427679  0.33943748  0.37205501  1
  In  In33  1  0.82852022  0.33707851  0.89240801  1
  In  In34  1  0.83203211  0.66504533  0.37464435  1
  In  In35  1  0.82181700  0.66659454  0.87742637  1
  In  In36  1  0.02222440  0.17666117  0.35267639  1
  In  In37  1  -0.00117965  0.15611292  0.88742227  1
  In  In38  1  -0.00070794  0.49824899  0.37418252  1
  In  In39  1  0.00022815  0.49113196  0.88242932  1
  In  In40  1  0.00000553  0.82869045  0.37392826  1
  In  In41  1  0.00107784  0.84445792  0.88066752  1
  In  In42  1  0.30507156  0.15965080  0.37456255  1
  In  In43  1  0.34181434  0.17663815  0.86886060  1
  In  In44  1  0.32554637  0.49525781  0.37328931  1
  In  In45  1  0.34589372  0.50288623  0.85657473  1
  In  In46  1  0.34460576  0.82651653  0.39143569  1
  In  In47  1  0.32790003  0.82280658  0.86384937  1
  In  In48  1  0.67164141  0.17199645  0.36631079  1
  In  In49  1  0.66522698  0.16950319  0.89074991  1
  In  In50  1  0.66848870  0.50594430  0.37180518  1
  In  In51  1  0.67110778  0.50692976  0.88046630  1
  In  In52  1  0.67295870  0.83993114  0.37267612  1
  In  In53  1  0.66815473  0.82098364  0.87055560  1
  In  In54  1  0.17177980  -0.01312634  0.13072598  1
  In  In55  1  0.18932575  0.01471530  0.60000717  1
  In  In56  1  0.16605608  0.32785710  0.14386677  1
  In  In57  1  0.17854131  0.34581984  0.60956196  1
  In  In58  1  0.15630000  0.67682577  0.13181686  1
  In  In59  1  0.18159123  0.67942620  0.60940000  1
  In  In60  1  0.49223183  0.01201059  0.12459904  1
  In  In61  1  0.49005423  -0.02171005  0.61647124  1
  In  In62  1  0.50729036  0.32851785  0.13439709  1
  In  In63  1  0.49365938  0.32568620  0.62288745  1
  In  In64  1  0.49932162  0.67024025  0.13970307  1
  In  In65  1  0.47993703  0.68902359  0.64586160  1
  In  In66  1  0.82419998  0.00729890  0.13433093  1
  In  In67  1  0.84438821  -0.00122793  0.62133932  1
  In  In68  1  0.83226709  0.33385099  0.13046140  1
  In  In69  1  0.82328240  0.34835457  0.61570985  1
  In  In70  1  0.83986702  0.65706126  0.13025334  1
  In  In71  1  0.82424746  0.66268989  0.61567090  1
  In  In72  1  0.00435458  -0.00342972  0.75551600  1
  In  In73  1  0.83491564  0.83155327  0.00317715  1
  In  In74  1  0.50244547  0.16586278  0.49966544  1
  In  In75  1  0.16316502  0.16600183  0.00809501  1
  In  In76  1  0.65368634  0.34453112  0.74924589  1
  In  In77  1  0.49873702  0.83789926  -0.00192649  1
  In  In78  1  0.50113322  0.49993105  -0.00583434  1
  In  In79  1  0.66277880  -0.00897851  0.74758204  1
  In  In80  1  0.16165702  0.50240762  0.00175331  1
  In  In81  1  0.00793564  0.33088758  0.75207301  1
  In  In82  1  0.50181486  0.50786119  0.49811998  1
  In  In83  1  0.84274020  0.16626671  0.49078846  1
  In  In84  1  0.00483934  0.66543411  0.74676029  1
  In  In85  1  0.33456127  -0.00321948  0.25447488  1
  Cu  Cu86  1  0.49575994  0.50362424  0.25428850  1
  Cu  Cu87  1  0.49960616  0.16445004  0.25196827  1
  Cu  Cu88  1  0.00086092  -0.00214898  0.49105956  1
  Cu  Cu89  1  0.33897417  0.66105187  0.50091554  1
  Cu  Cu90  1  0.83285883  0.16756159  0.25017549  1
  Cu  Cu91  1  0.17046014  0.83635012  0.74239116  1
  Cu  Cu92  1  0.83805491  0.82958649  0.25308787  1
  Cu  Cu93  1  0.83167133  0.50506424  0.74483023  1
  Cu  Cu94  1  0.32840656  0.32946789  0.49341782  1
  Cu  Cu95  1  0.82658898  0.17447529  0.76014459  1
  Cu  Cu96  1  0.67054065  0.00297710  0.49258036  1
  Cu  Cu97  1  0.66432729  0.00131836  0.00752400  1
  Cu  Cu98  1  0.33604112  0.33511851  -0.00239747  1
  Cu  Cu99  1  0.17628245  0.16908973  0.74318174  1
  Cu  Cu100  1  0.00020437  0.32743668  0.49003517  1
  Cu  Cu101  1  0.83280695  0.50122000  0.25335217  1
  Cu  Cu102  1  0.49472332  0.15769753  0.74689731  1
  Cu  Cu103  1  0.32879218  0.67650852  -0.00299142  1
  Cu  Cu104  1  0.16582935  0.50042207  0.25302060  1
  Cu  Cu105  1  -0.00627952  0.66179336  0.49205524  1
  Cu  Cu106  1  0.17528899  0.50439854  0.73979925  1
  Cu  Cu107  1  -0.00693948  0.33857333  0.01381535  1
  Cu  Cu108  1  0.32888262  0.00151484  0.00242398  1
  Cu  Cu109  1  -0.00538927  0.00270171  0.01007425  1
  Cu  Cu110  1  0.82510560  0.82338412  0.74208267  1
  Cu  Cu111  1  0.16863363  0.82764020  0.25590975  1
  Cu  Cu112  1  0.67096948  0.32548905  0.01375434  1
  Cu  Cu113  1  0.66457205  0.67262554  0.49127297  1
  Cu  Cu114  1  0.66812956  0.65806447  0.00555907  1
  Se  Se115  1  0.07597320  0.07993982  0.07146297  1
  Se  Se116  1  0.08179952  0.08505566  0.54388153  1
  Se  Se117  1  0.08283510  0.41169133  0.06976830  1
  Se  Se118  1  0.08082617  0.41405030  0.54511564  1
  Se  Se119  1  0.08718579  0.75239806  0.05347109  1
  Se  Se120  1  0.07823250  0.74329900  0.54672144  1
  Se  Se121  1  0.41548025  0.08680908  0.04841816  1
  Se  Se122  1  0.41069874  0.08297451  0.56104455  1
  Se  Se123  1  0.41447550  0.41426075  0.06016705  1
  Se  Se124  1  0.40952215  0.41019453  0.55339519  1
  Se  Se125  1  0.41341406  0.74650753  0.06042335  1
  Se  Se126  1  0.41701240  0.74662707  0.55655483  1
  Se  Se127  1  0.74975472  0.08408848  0.05772461  1
  Se  Se128  1  0.74598474  0.08330439  0.55698965  1
  Se  Se129  1  0.75222025  0.41773259  0.05840855  1
  Se  Se130  1  0.74899770  0.42415382  0.54185609  1
  Se  Se131  1  0.74012279  0.74692701  0.06334032  1
  Se  Se132  1  0.75447354  0.75381569  0.54449059  1
  Se  Se133  1  0.25535221  0.26129417  0.06165066  1
  Se  Se134  1  0.24682393  0.24375449  0.54728146  1
  Se  Se135  1  0.25605607  0.59150399  0.05858367  1
  Se  Se136  1  0.25404230  0.57534301  0.55073151  1
  Se  Se137  1  0.24600399  0.91513395  0.05117974  1
  Se  Se138  1  0.23007485  0.89044569  0.55422281  1
  Se  Se139  1  0.57925900  0.24589701  0.06005404  1
  Se  Se140  1  0.59435017  0.26672491  0.55064805  1
  Se  Se141  1  0.58197229  0.58435891  0.06501788  1
  Se  Se142  1  0.58252887  0.60361546  0.55861620  1
  Se  Se143  1  0.58928565  0.91625555  0.06614783  1
  Se  Se144  1  0.58466760  0.92004026  0.54432809  1
  Se  Se145  1  0.91514239  0.24640727  0.06228272  1
  Se  Se146  1  0.92426924  0.25564575  0.56213769  1
  Se  Se147  1  0.91906844  0.58852535  0.05309583  1
  Se  Se148  1  0.90970762  0.58067752  0.54817567  1
  Se  Se149  1  0.91836420  0.91767740  0.06938645  1
  Se  Se150  1  0.91436348  0.91898437  0.54520066  1
  Se  Se151  1  0.08474677  0.24471605  0.43935684  1
  Se  Se152  1  0.07436577  0.26363424  0.94768922  1
  Se  Se153  1  0.08278035  0.57876723  0.44479305  1
  Se  Se154  1  0.07540612  0.59523040  0.94134503  1
  Se  Se155  1  0.08406094  0.90783238  0.44540807  1
  Se  Se156  1  0.07809630  0.92562047  0.95249399  1
  Se  Se157  1  0.41116471  0.25000052  0.43615430  1
  Se  Se158  1  0.41876773  0.24791268  0.94782770  1
  Se  Se159  1  0.41749626  0.59334004  0.43122193  1
  Se  Se160  1  0.40828351  0.59412632  0.93819386  1
  Se  Se161  1  0.41325717  0.92404306  0.45634135  1
  Se  Se162  1  0.40653357  0.92325614  0.93760252  1
  Se  Se163  1  0.74431109  0.25678172  0.44253320  1
  Se  Se164  1  0.75571578  0.24366650  0.95754502  1
  Se  Se165  1  0.74794427  0.58362732  0.44555741  1
  Se  Se166  1  0.75608972  0.57950958  0.95317937  1
  Se  Se167  1  0.75754768  0.91967699  0.44439899  1
  Se  Se168  1  0.73761047  0.91990047  0.94242134  1
  Se  Se169  1  0.25561533  0.07190569  0.45340258  1
  Se  Se170  1  0.25132264  0.08539804  0.93993806  1
  Se  Se171  1  0.24501593  0.41774673  0.44619527  1
  Se  Se172  1  0.26113831  0.42020953  0.93852089  1
  Se  Se173  1  0.25037283  0.74150925  0.44927581  1
  Se  Se174  1  0.24578812  0.75840446  0.94342991  1
  Se  Se175  1  0.58822497  0.08074228  0.43389046  1
  Se  Se176  1  0.57926956  0.08200403  0.95276948  1
  Se  Se177  1  0.58692617  0.41266908  0.44035157  1
  Se  Se178  1  0.59656717  0.40160744  0.94420138  1
  Se  Se179  1  0.58281658  0.75902774  0.44065632  1
  Se  Se180  1  0.58671974  0.73516289  0.94383798  1
  Se  Se181  1  0.92909348  0.08214641  0.42727835  1
  Se  Se182  1  0.91013007  0.08521785  0.95793121  1
  Se  Se183  1  0.91556262  0.41560542  0.44510996  1
  Se  Se184  1  0.91526313  0.42220844  0.95571486  1
  Se  Se185  1  0.91247825  0.75076549  0.44354423  1
  Se  Se186  1  0.92266367  0.74371090  0.94002952  1
  Se  Se187  1  0.25741375  0.25880942  0.30386684  1
  Se  Se188  1  0.25351995  0.25462498  0.79996775  1
  Se  Se189  1  0.25010742  0.58471998  0.30466854  1
  Se  Se190  1  0.25149547  0.58791811  0.79910232  1
  Se  Se191  1  0.24771120  0.90854931  0.31663433  1
  Se  Se192  1  0.24757681  0.91915151  0.80206623  1
  Se  Se193  1  0.58387725  0.25319502  0.30083713  1
  Se  Se194  1  0.58220647  0.23386904  0.80700246  1
  Se  Se195  1  0.58285038  0.58621867  0.30375197  1
  Se  Se196  1  0.58182141  0.56357295  0.80644280  1
  Se  Se197  1  0.59444993  0.92647927  0.30293138  1
  Se  Se198  1  0.57267030  0.90631147  0.81144515  1
  Se  Se199  1  0.91401860  0.25309342  0.30353807  1
  Se  Se200  1  0.91554632  0.24686042  0.81788963  1
  Se  Se201  1  0.91721362  0.58372065  0.30606591  1
  Se  Se202  1  0.91454715  0.57545950  0.80953273  1
  Se  Se203  1  0.92316673  0.91480362  0.30222152  1
  Se  Se204  1  0.90086771  0.90457742  0.80555609  1
  Se  Se205  1  0.09286398  0.06978452  0.30032427  1
  Se  Se206  1  0.09490875  0.09693410  0.80984695  1
  Se  Se207  1  0.08123238  0.41616080  0.30411818  1
  Se  Se208  1  0.09872124  0.42912066  0.80742454  1
  Se  Se209  1  0.08222277  0.74340335  0.30542452  1
  Se  Se210  1  0.08764520  0.76304699  0.80783033  1
  Se  Se211  1  0.42211786  0.08836426  0.31697001  1
  Se  Se212  1  0.41116800  0.07829310  0.80292043  1
  Se  Se213  1  0.41200958  0.41751317  0.30324112  1
  Se  Se214  1  0.42522526  0.40759209  0.79990698  1
  Se  Se215  1  0.40521007  0.76074841  0.30453521  1
  Se  Se216  1  0.41950701  0.74995923  0.79848049  1
  Se  Se217  1  0.74793115  0.08221749  0.30006870  1
  Se  Se218  1  0.75025822  0.08467091  0.81390799  1
  Se  Se219  1  0.74615239  0.41667704  0.30342556  1
  Se  Se220  1  0.76179202  0.41692952  0.80851638  1
  Se  Se221  1  0.75102302  0.74930119  0.30548823  1
  Se  Se222  1  0.74732344  0.74005163  0.79915992  1
  Se  Se223  1  0.24720073  0.08882750  0.19240709  1
  Se  Se224  1  0.24968926  0.07791548  0.68956387  1
  Se  Se225  1  0.25335267  0.41820685  0.20143018  1
  Se  Se226  1  0.25331692  0.41297422  0.69012921  1
  Se  Se227  1  0.25188384  0.74848293  0.19850711  1
  Se  Se228  1  0.24930215  0.74427380  0.69451592  1
  Se  Se229  1  0.57984461  0.08059548  0.19666725  1
  Se  Se230  1  0.57611211  0.08344603  0.68487808  1
  Se  Se231  1  0.58046008  0.42061635  0.20052786  1
  Se  Se232  1  0.57914058  0.42783698  0.67688987  1
  Se  Se233  1  0.57858095  0.74986813  0.20912559  1
  Se  Se234  1  0.59289494  0.75532579  0.69603698  1
  Se  Se235  1  0.91735634  0.07819990  0.20271825  1
  Se  Se236  1  0.90746722  0.09185077  0.70088719  1
  Se  Se237  1  0.91580657  0.41691502  0.19896659  1
  Se  Se238  1  0.91500610  0.42153958  0.69067538  1
  Se  Se239  1  0.91817281  0.74471983  0.19815671  1
  Se  Se240  1  0.91656023  0.75439552  0.68379615  1
  Se  Se241  1  0.08692562  0.24405648  0.21052760  1
  Se  Se242  1  0.09080203  0.24507969  0.68392201  1
  Se  Se243  1  0.08327150  0.58263351  0.19732525  1
  Se  Se244  1  0.09125883  0.58003414  0.68085265  1
  Se  Se245  1  0.08658484  0.91217505  0.20152856  1
  Se  Se246  1  0.08771248  0.91681011  0.68510350  1
  Se  Se247  1  0.41603438  0.24809635  0.19871442  1
  Se  Se248  1  0.41601818  0.24903864  0.69705971  1
  Se  Se249  1  0.41044960  0.58639296  0.20128961  1
  Se  Se250  1  0.42609692  0.57457509  0.69999057  1
  Se  Se251  1  0.42387802  0.90993328  0.19011481  1
  Se  Se252  1  0.41707505  0.90913044  0.69409761  1
  Se  Se253  1  0.74755983  0.24998883  0.19741573  1
  Se  Se254  1  0.75528984  0.25261809  0.69336650  1
  Se  Se255  1  0.74876702  0.58562268  0.19958450  1
  Se  Se256  1  0.74856285  0.58769739  0.69326568  1
  Se  Se257  1  0.75280480  0.91574490  0.20348584  1
  Se  Se258  1  0.75353792  0.91089117  0.68208683  1
