# generated using pymatgen
data_In86Cu29Se144
_symmetry_space_group_name_H-M   'P 1'
_cell_length_a   17.54163364
_cell_length_b   17.54044450
_cell_length_c   23.39287046
_cell_angle_alpha   90.00137865
_cell_angle_beta   89.99392037
_cell_angle_gamma   89.98291678
_symmetry_Int_Tables_number   1
_chemical_formula_structural   In86Cu29Se144
_chemical_formula_sum   'In86 Cu29 Se144'
_cell_volume   7197.70636225
_cell_formula_units_Z   1
loop_
 _symmetry_equiv_pos_site_id
 _symmetry_equiv_pos_as_xyz
  1  'x, y, z'
loop_
 _atom_site_type_symbol
 _atom_site_label
 _atom_site_symmetry_multiplicity
 _atom_site_fract_x
 _atom_site_fract_y
 _atom_site_fract_z
 _atom_site_occupancy
  In  In0  1  0.03298651  0.16893809  0.11294565  1
  In  In1  1  0.00887347  0.16063677  0.63864304  1
  In  In2  1  -0.00864592  0.48892481  0.12852683  1
  In  In3  1  -0.01291601  0.49832789  0.62551972  1
  In  In4  1  0.00831037  0.84523913  0.10480265  1
  In  In5  1  0.00717781  0.84504558  0.63220674  1
  In  In6  1  0.33054839  0.16662581  0.12537358  1
  In  In7  1  0.33445097  0.16939535  0.62720561  1
  In  In8  1  0.32356163  0.50798759  0.14128680  1
  In  In9  1  0.33122539  0.48528570  0.62310494  1
  In  In10  1  0.33273305  0.83369908  0.12164092  1
  In  In11  1  0.34534120  0.83305054  0.62786016  1
  In  In12  1  0.64613968  0.17035435  0.12196973  1
  In  In13  1  0.65332285  0.16044186  0.62645349  1
  In  In14  1  0.68442921  0.50702155  0.12688321  1
  In  In15  1  0.66625810  0.49881711  0.60931029  1
  In  In16  1  0.65533956  0.81448046  0.11175464  1
  In  In17  1  0.66322785  0.84129068  0.63020645  1
  In  In18  1  0.18440526  -0.00320656  0.37545604  1
  In  In19  1  0.16582226  0.00915212  0.88471353  1
  In  In20  1  0.16207399  0.33187198  0.36615002  1
  In  In21  1  0.16285093  0.32791836  0.88208819  1
  In  In22  1  0.17628319  0.64851147  0.36351883  1
  In  In23  1  0.15657484  0.67312919  0.88700110  1
  In  In24  1  0.48511299  0.00905226  0.38568632  1
  In  In25  1  0.49778131  0.00143333  0.88032899  1
  In  In26  1  0.49630576  0.33492693  0.37809763  1
  In  In27  1  0.47393293  0.33325191  0.87200854  1
  In  In28  1  0.49989635  0.66667227  0.37346162  1
  In  In29  1  0.50677983  0.69179738  0.88084309  1
  In  In30  1  0.83202209  -0.00237330  0.37508593  1
  In  In31  1  0.82387519  -0.00111145  0.86144545  1
  In  In32  1  0.84887168  0.34297198  0.36724272  1
  In  In33  1  0.84910461  0.32950551  0.87539297  1
  In  In34  1  0.81212371  0.65763670  0.36803719  1
  In  In35  1  0.82292277  0.66273559  0.89127440  1
  In  In36  1  0.00459584  0.18624685  0.37327649  1
  In  In37  1  0.00311546  0.18014508  0.86731179  1
  In  In38  1  0.00718735  0.48277262  0.37209771  1
  In  In39  1  0.00381055  0.49361121  0.88538690  1
  In  In40  1  -0.00067925  0.83957282  0.37071457  1
  In  In41  1  -0.01418268  0.85436693  0.89724403  1
  In  In42  1  0.33098747  0.16320044  0.37643293  1
  In  In43  1  0.32612950  0.15966654  0.88516421  1
  In  In44  1  0.33897391  0.50575948  0.35430412  1
  In  In45  1  0.32908458  0.48496617  0.87577005  1
  In  In46  1  0.34383598  0.84500925  0.36516141  1
  In  In47  1  0.30996904  0.86809862  0.90879095  1
  In  In48  1  0.65903935  0.15297361  0.37658514  1
  In  In49  1  0.67088090  0.14996538  0.86991315  1
  In  In50  1  0.65938588  0.51322484  0.38427505  1
  In  In51  1  0.66733070  0.51755477  0.88297574  1
  In  In52  1  0.65314581  0.80942024  0.36929911  1
  In  In53  1  0.64702762  0.84684145  0.89391425  1
  In  In54  1  0.19782748  0.03060732  0.08339244  1
  In  In55  1  0.15740303  0.01735620  0.63785462  1
  In  In56  1  0.16719922  0.33417263  0.12975411  1
  In  In57  1  0.18310262  0.32152363  0.63388455  1
  In  In58  1  0.18098194  0.67210301  0.11689430  1
  In  In59  1  0.16710700  0.67176567  0.62621753  1
  In  In60  1  0.47198131  -0.01961679  0.10278748  1
  In  In61  1  0.49548728  0.00021493  0.63047380  1
  In  In62  1  0.48948226  0.31670322  0.12076562  1
  In  In63  1  0.49577402  0.32186826  0.61665766  1
  In  In64  1  0.49658202  0.67109582  0.13389647  1
  In  In65  1  0.50764933  0.67369319  0.60572370  1
  In  In66  1  0.84733098  -0.01170761  0.11470816  1
  In  In67  1  0.82922937  0.00747202  0.64622354  1
  In  In68  1  0.84201228  0.35625069  0.12622799  1
  In  In69  1  0.83815190  0.34319172  0.62802779  1
  In  In70  1  0.82498947  0.65855603  0.11621096  1
  In  In71  1  0.82934174  0.65632196  0.62021954  1
  In  In72  1  0.66163483  0.34028017  0.24958462  1
  In  In73  1  -0.00172417  0.67010842  0.74879412  1
  In  In74  1  0.49541407  0.49798304  0.00286402  1
  In  In75  1  0.66933429  0.32519199  0.74612255  1
  In  In76  1  0.01483767  0.00361873  0.23030887  1
  In  In77  1  0.83246398  0.16589910  -0.00607243  1
  In  In78  1  0.00352425  0.66744346  0.24158877  1
  In  In79  1  0.33717145  0.66916039  0.75431665  1
  In  In80  1  0.17179493  0.49227440  0.49230692  1
  In  In81  1  0.82663137  0.17356479  0.50528385  1
  In  In82  1  0.17159690  0.83479650  0.50217398  1
  In  In83  1  0.66692211  0.67019655  0.75038451  1
  In  In84  1  0.82205965  0.83448407  0.50778875  1
  In  In85  1  0.66143485  0.00204157  0.24891497  1
  Cu  Cu86  1  0.49821069  0.83324729  0.24405091  1
  Cu  Cu87  1  0.50727458  0.49760347  0.25120803  1
  Cu  Cu88  1  0.16969342  0.16155322  0.24453015  1
  Cu  Cu89  1  0.67116580  0.33334336  0.49748886  1
  Cu  Cu90  1  0.17753376  0.17134141  0.75775859  1
  Cu  Cu91  1  0.17002811  0.84888060  0.76603259  1
  Cu  Cu92  1  0.65182962  -0.00695809  0.50479044  1
  Cu  Cu93  1  0.00883159  0.33320749  0.49936356  1
  Cu  Cu94  1  0.00224537  0.01350429  0.50930707  1
  Cu  Cu95  1  0.83292229  0.83188960  0.23955967  1
  Cu  Cu96  1  0.16343980  0.48788639  0.75912967  1
  Cu  Cu97  1  0.17619197  0.83130784  0.24019980  1
  Cu  Cu98  1  0.33193480  0.00638325  0.50447092  1
  Cu  Cu99  1  0.83940784  0.49096953  0.75677410  1
  Cu  Cu100  1  0.83178746  0.83563741  0.75967529  1
  Cu  Cu101  1  0.49320235  0.16324682  0.75193015  1
  Cu  Cu102  1  0.33568064  0.66529490  0.48865590  1
  Cu  Cu103  1  0.00545152  0.65493652  0.00747516  1
  Cu  Cu104  1  0.34484633  0.66083743  0.00729597  1
  Cu  Cu105  1  0.00011674  0.33241093  0.00197592  1
  Cu  Cu106  1  0.34049722  0.32942988  0.49876632  1
  Cu  Cu107  1  0.67215807  0.00394612  -0.00617659  1
  Cu  Cu108  1  0.66238719  0.33654703  0.00204585  1
  Cu  Cu109  1  0.31947616  0.32776406  0.00060560  1
  Cu  Cu110  1  0.49204229  0.84448962  0.75839569  1
  Cu  Cu111  1  -0.01468930  0.66565175  0.49515835  1
  Cu  Cu112  1  0.83961821  0.17937604  0.24187315  1
  Cu  Cu113  1  0.48615187  0.15712848  0.24939366  1
  Cu  Cu114  1  0.49653696  0.49948014  0.74339421  1
  Se  Se115  1  0.05682385  0.05106605  0.05215379  1
  Se  Se116  1  0.08913019  0.09490249  0.55804431  1
  Se  Se117  1  0.08119816  0.41362133  0.05969856  1
  Se  Se118  1  0.08604344  0.41222739  0.56415701  1
  Se  Se119  1  0.09116689  0.74664912  0.04881133  1
  Se  Se120  1  0.06812536  0.74422851  0.55606256  1
  Se  Se121  1  0.42291547  0.10019909  0.05301851  1
  Se  Se122  1  0.41895975  0.08610013  0.55897893  1
  Se  Se123  1  0.40091385  0.41008057  0.05998921  1
  Se  Se124  1  0.41980092  0.41740434  0.55133005  1
  Se  Se125  1  0.42465803  0.74971117  0.05704155  1
  Se  Se126  1  0.40884565  0.75338837  0.54760984  1
  Se  Se127  1  0.74409113  0.08133492  0.06179977  1
  Se  Se128  1  0.74468396  0.06859523  0.55998707  1
  Se  Se129  1  0.74901579  0.41627868  0.05260786  1
  Se  Se130  1  0.75853153  0.41248560  0.55052353  1
  Se  Se131  1  0.77744231  0.77441974  0.05891574  1
  Se  Se132  1  0.72996046  0.73771215  0.56080890  1
  Se  Se133  1  0.23863989  0.24453730  0.05694228  1
  Se  Se134  1  0.25355724  0.25034699  0.55334826  1
  Se  Se135  1  0.25891726  0.57437072  0.05455258  1
  Se  Se136  1  0.25419698  0.59152771  0.55438984  1
  Se  Se137  1  0.26017485  0.90847700  0.04171044  1
  Se  Se138  1  0.25187371  0.92756923  0.56711554  1
  Se  Se139  1  0.57506205  0.24907763  0.04488656  1
  Se  Se140  1  0.58956729  0.24691603  0.55054222  1
  Se  Se141  1  0.58425799  0.58596093  0.06350645  1
  Se  Se142  1  0.57393249  0.57252524  0.54528268  1
  Se  Se143  1  0.59086455  0.92173152  0.05228519  1
  Se  Se144  1  0.57195966  0.91001266  0.56008387  1
  Se  Se145  1  0.91812763  0.25106183  0.06230404  1
  Se  Se146  1  0.92887159  0.25371648  0.56148808  1
  Se  Se147  1  0.91573875  0.57357825  0.05569838  1
  Se  Se148  1  0.91127059  0.57609551  0.54975043  1
  Se  Se149  1  0.92106146  0.92076473  0.03477121  1
  Se  Se150  1  0.91768488  0.92902476  0.56299207  1
  Se  Se151  1  0.09341590  0.25195643  0.44628003  1
  Se  Se152  1  0.07991042  0.24326011  0.95049353  1
  Se  Se153  1  0.07791987  0.59053986  0.44038719  1
  Se  Se154  1  0.09004490  0.57361967  0.95274335  1
  Se  Se155  1  0.07505767  0.92666676  0.44556152  1
  Se  Se156  1  0.11179618  0.89341103  0.94353189  1
  Se  Se157  1  0.42070463  0.24250084  0.44441007  1
  Se  Se158  1  0.41081655  0.25017615  0.94955064  1
  Se  Se159  1  0.41209928  0.57588972  0.43550449  1
  Se  Se160  1  0.41487186  0.58882287  0.93412371  1
  Se  Se161  1  0.40885085  0.91505390  0.45047569  1
  Se  Se162  1  0.44365118  0.89692256  0.94858822  1
  Se  Se163  1  0.74703955  0.25687238  0.43128730  1
  Se  Se164  1  0.73929778  0.25785993  0.93659259  1
  Se  Se165  1  0.75421810  0.58407261  0.45128459  1
  Se  Se166  1  0.75031492  0.57491910  0.96139154  1
  Se  Se167  1  0.73431463  0.92005310  0.43868983  1
  Se  Se168  1  0.75786792  0.92131965  0.94274326  1
  Se  Se169  1  0.24571007  0.08577702  0.45008340  1
  Se  Se170  1  0.24984300  0.08066374  0.96146406  1
  Se  Se171  1  0.26588424  0.40877473  0.43277213  1
  Se  Se172  1  0.24197481  0.41877347  0.94974458  1
  Se  Se173  1  0.25118724  0.74540381  0.43266558  1
  Se  Se174  1  0.26020829  0.73895924  0.94927824  1
  Se  Se175  1  0.57682898  0.08526435  0.45264829  1
  Se  Se176  1  0.58450783  0.08806992  0.94639048  1
  Se  Se177  1  0.58397479  0.41395087  0.44488928  1
  Se  Se178  1  0.58120534  0.41039380  0.93585940  1
  Se  Se179  1  0.57473899  0.74832842  0.44815410  1
  Se  Se180  1  0.60989249  0.72846784  0.95279720  1
  Se  Se181  1  0.91984954  0.08454447  0.44273735  1
  Se  Se182  1  0.91789859  0.08187379  0.92933190  1
  Se  Se183  1  0.92237633  0.41456608  0.44806035  1
  Se  Se184  1  0.91287805  0.41516344  0.95191619  1
  Se  Se185  1  0.91168430  0.75310173  0.43670777  1
  Se  Se186  1  0.92542283  0.73716589  0.94822723  1
  Se  Se187  1  0.24843937  0.24207299  0.30476161  1
  Se  Se188  1  0.25669330  0.25414870  0.81482172  1
  Se  Se189  1  0.24405843  0.57301032  0.28629575  1
  Se  Se190  1  0.23959977  0.58187686  0.81273797  1
  Se  Se191  1  0.25244149  0.91985212  0.29695128  1
  Se  Se192  1  0.25815192  0.92993920  0.81564969  1
  Se  Se193  1  0.57596635  0.23618169  0.30451259  1
  Se  Se194  1  0.57398271  0.24619869  0.81137801  1
  Se  Se195  1  0.58635989  0.58525618  0.30399983  1
  Se  Se196  1  0.56909774  0.58158105  0.80836349  1
  Se  Se197  1  0.57189049  0.91485955  0.31172275  1
  Se  Se198  1  0.58563486  0.91973519  0.80975605  1
  Se  Se199  1  0.92472174  0.25717797  0.29660721  1
  Se  Se200  1  0.90925705  0.24774240  0.79766404  1
  Se  Se201  1  0.92176334  0.58453316  0.31279991  1
  Se  Se202  1  0.91044288  0.58285372  0.81414586  1
  Se  Se203  1  0.91305427  0.91877177  0.29686635  1
  Se  Se204  1  0.92498866  0.91428191  0.80670097  1
  Se  Se205  1  0.08826741  0.08482899  0.31092755  1
  Se  Se206  1  0.09101427  0.08822014  0.80893994  1
  Se  Se207  1  0.09890305  0.42920102  0.29791114  1
  Se  Se208  1  0.07635503  0.40917895  0.81162578  1
  Se  Se209  1  0.09482638  0.75914123  0.30568565  1
  Se  Se210  1  0.08254562  0.76040433  0.81292366  1
  Se  Se211  1  0.40658316  0.07294986  0.30534188  1
  Se  Se212  1  0.41327491  0.08386240  0.81255308  1
  Se  Se213  1  0.42411503  0.40789171  0.29872227  1
  Se  Se214  1  0.40971457  0.41960791  0.79587312  1
  Se  Se215  1  0.41692030  0.74880355  0.30157632  1
  Se  Se216  1  0.40910925  0.76756207  0.81839502  1
  Se  Se217  1  0.76232726  0.09564440  0.30213389  1
  Se  Se218  1  0.75251528  0.08840139  0.79235581  1
  Se  Se219  1  0.74939132  0.42829721  0.31080789  1
  Se  Se220  1  0.74706850  0.42061967  0.81437325  1
  Se  Se221  1  0.75038956  0.75269927  0.29658218  1
  Se  Se222  1  0.75134354  0.75494019  0.81794332  1
  Se  Se223  1  0.24318540  0.07415863  0.18510750  1
  Se  Se224  1  0.25700731  0.08678972  0.70068091  1
  Se  Se225  1  0.26735991  0.39540465  0.19712945  1
  Se  Se226  1  0.25427424  0.41646322  0.70198575  1
  Se  Se227  1  0.26125547  0.74334572  0.19397517  1
  Se  Se228  1  0.23842745  0.76306273  0.69873029  1
  Se  Se229  1  0.56384848  0.07896069  0.18636197  1
  Se  Se230  1  0.58050370  0.08007127  0.70127487  1
  Se  Se231  1  0.57450146  0.42171528  0.17984080  1
  Se  Se232  1  0.58178843  0.42046433  0.68675161  1
  Se  Se233  1  0.58985129  0.75079194  0.19867359  1
  Se  Se234  1  0.56533272  0.75636748  0.69579881  1
  Se  Se235  1  0.91425365  0.09431579  0.18101133  1
  Se  Se236  1  0.93370345  0.07015502  0.70492302  1
  Se  Se237  1  0.91033638  0.42399824  0.20786053  1
  Se  Se238  1  0.92487497  0.41191593  0.70276689  1
  Se  Se239  1  0.92236508  0.76322461  0.17972462  1
  Se  Se240  1  0.90151543  0.75869187  0.68852056  1
  Se  Se241  1  0.08155060  0.24725383  0.19814455  1
  Se  Se242  1  0.09054665  0.25144072  0.70231680  1
  Se  Se243  1  0.09240555  0.58029249  0.18179853  1
  Se  Se244  1  0.09243564  0.57343516  0.69345669  1
  Se  Se245  1  0.10588863  0.91282097  0.17524293  1
  Se  Se246  1  0.08406467  0.92328242  0.70544556  1
  Se  Se247  1  0.40956035  0.24888765  0.19892559  1
  Se  Se248  1  0.41844155  0.25391897  0.69654804  1
  Se  Se249  1  0.42046809  0.58388677  0.20281840  1
  Se  Se250  1  0.42098682  0.58540927  0.68357449  1
  Se  Se251  1  0.41399817  0.91860496  0.19280529  1
  Se  Se252  1  0.40798961  0.92283935  0.70151113  1
  Se  Se253  1  0.74785878  0.25027278  0.18440991  1
  Se  Se254  1  0.75981646  0.23788593  0.68489661  1
  Se  Se255  1  0.75649805  0.58987180  0.19915414  1
  Se  Se256  1  0.75397371  0.56773724  0.69562925  1
  Se  Se257  1  0.75129242  0.91684222  0.18501547  1
  Se  Se258  1  0.74419591  0.91378113  0.70467252  1
