# generated using pymatgen
data_In86Cu29Se144
_symmetry_space_group_name_H-M   'P 1'
_cell_length_a   17.58575434
_cell_length_b   17.58638915
_cell_length_c   23.45050138
_cell_angle_alpha   90.01444766
_cell_angle_beta   90.00467013
_cell_angle_gamma   90.02596279
_symmetry_Int_Tables_number   1
_chemical_formula_structural   In86Cu29Se144
_chemical_formula_sum   'In86 Cu29 Se144'
_cell_volume   7252.53367003
_cell_formula_units_Z   1
loop_
 _symmetry_equiv_pos_site_id
 _symmetry_equiv_pos_as_xyz
  1  'x, y, z'
loop_
 _atom_site_type_symbol
 _atom_site_label
 _atom_site_symmetry_multiplicity
 _atom_site_fract_x
 _atom_site_fract_y
 _atom_site_fract_z
 _atom_site_occupancy
  In  In0  1  0.00007388  0.13754810  0.12064822  1
  In  In1  1  0.00587475  0.15329734  0.62362593  1
  In  In2  1  0.00474704  0.51634126  0.12809287  1
  In  In3  1  0.00895066  0.50722889  0.61774469  1
  In  In4  1  -0.00809277  0.83656112  0.12177113  1
  In  In5  1  -0.00051805  0.81902780  0.62457761  1
  In  In6  1  0.33109181  0.17139739  0.11201105  1
  In  In7  1  0.33471428  0.16423298  0.62898536  1
  In  In8  1  0.34913830  0.49182315  0.11853583  1
  In  In9  1  0.32125258  0.51098680  0.63480447  1
  In  In10  1  0.33849747  0.83851868  0.11195390  1
  In  In11  1  0.33432279  0.83551058  0.62640300  1
  In  In12  1  0.65128417  0.17074221  0.14329976  1
  In  In13  1  0.66079994  0.17700855  0.62029797  1
  In  In14  1  0.64140813  0.51357297  0.14169213  1
  In  In15  1  0.67902152  0.50313741  0.61996688  1
  In  In16  1  0.66732701  0.83147393  0.12430523  1
  In  In17  1  0.64714263  0.83313763  0.62444417  1
  In  In18  1  0.16742062  0.00547398  0.37839850  1
  In  In19  1  0.17239238  -0.01606935  0.88238559  1
  In  In20  1  0.17698955  0.32638253  0.38365487  1
  In  In21  1  0.17731862  0.31746268  0.87724913  1
  In  In22  1  0.15994160  0.67901989  0.38285123  1
  In  In23  1  0.17519324  0.67479470  0.86609800  1
  In  In24  1  0.50653604  0.00064601  0.38005419  1
  In  In25  1  0.49328020  0.00768155  0.88228777  1
  In  In26  1  0.49666164  0.32781703  0.36739895  1
  In  In27  1  0.48080017  0.34340968  0.89001208  1
  In  In28  1  0.51757604  0.66931350  0.37346720  1
  In  In29  1  0.50125308  0.66986780  0.87661940  1
  In  In30  1  0.82886989  -0.00482084  0.36659299  1
  In  In31  1  0.82026408  -0.00133875  0.87929457  1
  In  In32  1  0.83080900  0.34796474  0.37821914  1
  In  In33  1  0.83800715  0.33817016  0.87550148  1
  In  In34  1  0.82940841  0.66161856  0.37088949  1
  In  In35  1  0.83510911  0.67143515  0.86879606  1
  In  In36  1  0.01471178  0.16214990  0.37315405  1
  In  In37  1  0.00300085  0.17401978  0.87797506  1
  In  In38  1  -0.00573844  0.50872800  0.38047537  1
  In  In39  1  -0.00781646  0.50998988  0.87210797  1
  In  In40  1  0.00604394  0.84016994  0.36923462  1
  In  In41  1  0.01221498  0.82751836  0.88438291  1
  In  In42  1  0.33903779  0.16687705  0.38209146  1
  In  In43  1  0.33848363  0.16125915  0.86958345  1
  In  In44  1  0.33282902  0.49032015  0.37937803  1
  In  In45  1  0.34214097  0.51223477  0.86298606  1
  In  In46  1  0.33423467  0.83648745  0.38417992  1
  In  In47  1  0.33358365  0.83278058  0.87490030  1
  In  In48  1  0.64519178  0.15703983  0.35586108  1
  In  In49  1  0.65844902  0.15650712  0.87726087  1
  In  In50  1  0.67219588  0.51562753  0.36350891  1
  In  In51  1  0.64919343  0.50238208  0.88083633  1
  In  In52  1  0.66543283  0.83237896  0.37238495  1
  In  In53  1  0.67296506  0.82205470  0.89156123  1
  In  In54  1  0.15439714  -0.01293376  0.11123669  1
  In  In55  1  0.17752081  0.01058145  0.61706183  1
  In  In56  1  0.18415406  0.31854883  0.12366813  1
  In  In57  1  0.17359620  0.33990926  0.62201017  1
  In  In58  1  0.15222390  0.66876924  0.12555311  1
  In  In59  1  0.16789500  0.66890287  0.62443131  1
  In  In60  1  0.50846665  0.00782836  0.12450339  1
  In  In61  1  0.49089388  -0.01377837  0.61706119  1
  In  In62  1  0.50251786  0.33160841  0.11910307  1
  In  In63  1  0.49720694  0.32121930  0.62444279  1
  In  In64  1  0.51387472  0.67431641  0.11191209  1
  In  In65  1  0.48825329  0.67614268  0.63502820  1
  In  In66  1  0.83883018  -0.01306026  0.13296754  1
  In  In67  1  0.83447162  0.00331081  0.62410734  1
  In  In68  1  0.82615720  0.32182942  0.12674233  1
  In  In69  1  0.82088133  0.33961375  0.62142725  1
  In  In70  1  0.81131395  0.68572367  0.13389908  1
  In  In71  1  0.84247897  0.66303268  0.63125730  1
  In  In72  1  0.66218673  0.33406397  0.74694105  1
  In  In73  1  0.17342958  0.50198407  -0.00113291  1
  In  In74  1  0.83064938  0.17053216  0.50206227  1
  In  In75  1  0.00170130  -0.00641063  0.74979641  1
  In  In76  1  0.82991259  0.83120686  0.49161056  1
  In  In77  1  0.49868783  0.50320230  0.49850476  1
  In  In78  1  0.65944750  -0.00380777  0.75264339  1
  In  In79  1  0.82830251  0.15865315  0.00417070  1
  In  In80  1  0.00312706  0.33616248  0.75549076  1
  In  In81  1  0.33307678  0.66515794  0.24261308  1
  In  In82  1  0.34030961  0.33348366  0.24592011  1
  In  In83  1  0.33603893  0.00332201  0.25139960  1
  In  In84  1  0.82640150  0.50198969  0.00041206  1
  In  In85  1  -0.00154227  0.33091168  0.25366529  1
  Cu  Cu86  1  0.16953532  0.83047005  0.75025503  1
  Cu  Cu87  1  0.82937760  0.82973763  0.75391802  1
  Cu  Cu88  1  0.49644681  0.83090575  0.75487687  1
  Cu  Cu89  1  0.66962870  0.66826348  0.49579778  1
  Cu  Cu90  1  0.01248515  0.33069333  0.00521597  1
  Cu  Cu91  1  0.17295644  0.16151551  0.75000986  1
  Cu  Cu92  1  0.33451705  0.66673853  -0.00876784  1
  Cu  Cu93  1  0.16384751  0.50300078  0.25438934  1
  Cu  Cu94  1  0.49919444  0.50035287  0.75537963  1
  Cu  Cu95  1  0.66576538  -0.00556728  0.00779942  1
  Cu  Cu96  1  0.83634350  0.50231964  0.25171481  1
  Cu  Cu97  1  0.83052945  0.16291553  0.24923432  1
  Cu  Cu98  1  0.00495076  0.33303578  0.49556796  1
  Cu  Cu99  1  0.00601150  -0.00272755  0.49540918  1
  Cu  Cu100  1  0.33088264  -0.00078508  -0.00340315  1
  Cu  Cu101  1  0.66408653  0.33593623  0.49519476  1
  Cu  Cu102  1  0.00404871  0.65871907  0.50356950  1
  Cu  Cu103  1  0.33624571  0.00284247  0.50248748  1
  Cu  Cu104  1  0.15674856  0.83514606  0.24670548  1
  Cu  Cu105  1  0.33324315  0.67107405  0.50818497  1
  Cu  Cu106  1  0.50595183  0.82848244  0.24977743  1
  Cu  Cu107  1  0.83200927  0.50589781  0.74783832  1
  Cu  Cu108  1  -0.00396166  0.67546785  -0.00056913  1
  Cu  Cu109  1  0.16540758  0.50186424  0.74433424  1
  Cu  Cu110  1  0.66094167  0.32942765  0.00521119  1
  Cu  Cu111  1  0.49618181  0.16515345  0.75151944  1
  Cu  Cu112  1  0.83444826  0.82787417  0.24955175  1
  Cu  Cu113  1  0.16474892  0.15588671  0.24630538  1
  Cu  Cu114  1  0.33176741  0.33226323  0.50455220  1
  Se  Se115  1  0.10663716  0.10248709  0.05223046  1
  Se  Se116  1  0.08629800  0.08464520  0.54793182  1
  Se  Se117  1  0.08479372  0.41538680  0.06576348  1
  Se  Se118  1  0.08595670  0.41575982  0.55319504  1
  Se  Se119  1  0.08184807  0.75438317  0.05387795  1
  Se  Se120  1  0.08481696  0.74927729  0.55200977  1
  Se  Se121  1  0.41416748  0.07602327  0.05513418  1
  Se  Se122  1  0.41847365  0.08732043  0.55658155  1
  Se  Se123  1  0.40276541  0.39247927  0.05069315  1
  Se  Se124  1  0.40995996  0.41751123  0.56331916  1
  Se  Se125  1  0.41728698  0.74789492  0.04810898  1
  Se  Se126  1  0.42090827  0.75446713  0.55625902  1
  Se  Se127  1  0.74069561  0.07807526  0.07069320  1
  Se  Se128  1  0.73929685  0.07615853  0.55737616  1
  Se  Se129  1  0.74196731  0.41091923  0.06293044  1
  Se  Se130  1  0.75036515  0.41933859  0.54543946  1
  Se  Se131  1  0.74845409  0.75327561  0.05114964  1
  Se  Se132  1  0.74747920  0.74617815  0.56125966  1
  Se  Se133  1  0.25978327  0.26108445  0.04210441  1
  Se  Se134  1  0.25102111  0.24660878  0.55845214  1
  Se  Se135  1  0.25951632  0.59360101  0.06215437  1
  Se  Se136  1  0.24911248  0.58271981  0.55489372  1
  Se  Se137  1  0.24629925  0.91129052  0.04557523  1
  Se  Se138  1  0.25309884  0.91617908  0.55376055  1
  Se  Se139  1  0.58609843  0.23832208  0.05750591  1
  Se  Se140  1  0.58006146  0.25359920  0.54782401  1
  Se  Se141  1  0.58119450  0.57017687  0.05213917  1
  Se  Se142  1  0.58600540  0.59408691  0.56009112  1
  Se  Se143  1  0.57764685  0.91235660  0.05754297  1
  Se  Se144  1  0.58893719  0.92163252  0.55063248  1
  Se  Se145  1  0.92650625  0.25096659  0.06062323  1
  Se  Se146  1  0.92610103  0.25825836  0.56232358  1
  Se  Se147  1  0.91665135  0.59385755  0.05888073  1
  Se  Se148  1  0.91183051  0.58192891  0.55422945  1
  Se  Se149  1  0.92281702  0.93099057  0.05378813  1
  Se  Se150  1  0.92324176  0.92073320  0.55595193  1
  Se  Se151  1  0.08663170  0.24467969  0.44715270  1
  Se  Se152  1  0.08953045  0.24716728  0.94879459  1
  Se  Se153  1  0.08927214  0.57999986  0.44699236  1
  Se  Se154  1  0.07812183  0.59202658  0.94147584  1
  Se  Se155  1  0.08896089  0.91277640  0.44353549  1
  Se  Se156  1  0.07253448  0.92640505  0.95067201  1
  Se  Se157  1  0.41802102  0.25887688  0.44592216  1
  Se  Se158  1  0.43842142  0.22051590  0.93863301  1
  Se  Se159  1  0.40967075  0.59675033  0.43927293  1
  Se  Se160  1  0.41818335  0.57949734  0.94303275  1
  Se  Se161  1  0.41967979  0.92046593  0.44766578  1
  Se  Se162  1  0.41552727  0.91418931  0.94577020  1
  Se  Se163  1  0.74279041  0.25215737  0.43577383  1
  Se  Se164  1  0.74463078  0.25685839  0.94158237  1
  Se  Se165  1  0.75048356  0.58191535  0.44429395  1
  Se  Se166  1  0.74159027  0.59258729  0.93984264  1
  Se  Se167  1  0.73975507  0.92983481  0.44305050  1
  Se  Se168  1  0.75269904  0.91611992  0.95434009  1
  Se  Se169  1  0.25244202  0.08508984  0.44697849  1
  Se  Se170  1  0.25147851  0.08273572  0.93994919  1
  Se  Se171  1  0.24953676  0.41795291  0.45217436  1
  Se  Se172  1  0.25957366  0.41868222  0.93370748  1
  Se  Se173  1  0.25086566  0.75293318  0.45068323  1
  Se  Se174  1  0.24625816  0.75076802  0.94424279  1
  Se  Se175  1  0.57908210  0.09907166  0.44266590  1
  Se  Se176  1  0.58568139  0.07944676  0.95260709  1
  Se  Se177  1  0.58664419  0.41830470  0.43409423  1
  Se  Se178  1  0.58004200  0.41513779  0.95235721  1
  Se  Se179  1  0.58539342  0.75464512  0.44757025  1
  Se  Se180  1  0.56991364  0.75605628  0.95081890  1
  Se  Se181  1  0.91942168  0.07737204  0.43980562  1
  Se  Se182  1  0.92193025  0.07814998  0.94113097  1
  Se  Se183  1  0.91885929  0.41843322  0.44872543  1
  Se  Se184  1  0.93063581  0.41100355  0.94752930  1
  Se  Se185  1  0.92712819  0.74095145  0.43980675  1
  Se  Se186  1  0.91055366  0.75200442  0.94294741  1
  Se  Se187  1  0.24570506  0.23976926  0.30441389  1
  Se  Se188  1  0.25604951  0.24791399  0.80049184  1
  Se  Se189  1  0.24781968  0.58152131  0.31252491  1
  Se  Se190  1  0.24935654  0.58663337  0.79718749  1
  Se  Se191  1  0.24444620  0.90767535  0.30700812  1
  Se  Se192  1  0.25026099  0.91524036  0.80395158  1
  Se  Se193  1  0.58925181  0.26687428  0.29580160  1
  Se  Se194  1  0.57600065  0.24719648  0.81120005  1
  Se  Se195  1  0.57908821  0.58649863  0.29730628  1
  Se  Se196  1  0.58292299  0.58520676  0.80496820  1
  Se  Se197  1  0.58008059  0.91628840  0.30635896  1
  Se  Se198  1  0.57762133  0.90796535  0.81759111  1
  Se  Se199  1  0.90834589  0.24092853  0.31428353  1
  Se  Se200  1  0.90618795  0.24195576  0.80604516  1
  Se  Se201  1  0.92117111  0.58504353  0.30342439  1
  Se  Se202  1  0.91813738  0.58900005  0.79862242  1
  Se  Se203  1  0.91674142  0.91521404  0.30134440  1
  Se  Se204  1  0.90870650  0.91131807  0.81299519  1
  Se  Se205  1  0.08332105  0.07368712  0.30116837  1
  Se  Se206  1  0.08844164  0.08642249  0.81021781  1
  Se  Se207  1  0.09212366  0.41616869  0.31431851  1
  Se  Se208  1  0.09461749  0.42540327  0.81495146  1
  Se  Se209  1  0.08262910  0.74711290  0.30321808  1
  Se  Se210  1  0.08004952  0.75281857  0.80316374  1
  Se  Se211  1  0.42556507  0.09427624  0.30829681  1
  Se  Se212  1  0.41765615  0.07273986  0.80015788  1
  Se  Se213  1  0.42476049  0.43247763  0.30265443  1
  Se  Se214  1  0.41778577  0.41027327  0.80324374  1
  Se  Se215  1  0.41770540  0.75538473  0.30888701  1
  Se  Se216  1  0.41256108  0.74549966  0.80610577  1
  Se  Se217  1  0.74566252  0.07825447  0.29953084  1
  Se  Se218  1  0.75487159  0.09201218  0.80478819  1
  Se  Se219  1  0.75174644  0.41884242  0.30244330  1
  Se  Se220  1  0.75327494  0.42573208  0.80929320  1
  Se  Se221  1  0.74866889  0.74863153  0.30505623  1
  Se  Se222  1  0.74098766  0.75257541  0.80706178  1
  Se  Se223  1  0.24723690  0.08313967  0.18369503  1
  Se  Se224  1  0.25432597  0.07599912  0.69748927  1
  Se  Se225  1  0.24329074  0.42718448  0.19099824  1
  Se  Se226  1  0.25041888  0.41222385  0.69955581  1
  Se  Se227  1  0.24423403  0.76239804  0.18676274  1
  Se  Se228  1  0.25249581  0.74909466  0.69390963  1
  Se  Se229  1  0.58250542  0.07151763  0.20598578  1
  Se  Se230  1  0.57684319  0.08861030  0.68873951  1
  Se  Se231  1  0.58483244  0.39986687  0.19578266  1
  Se  Se232  1  0.57546043  0.42702531  0.68595751  1
  Se  Se233  1  0.58475395  0.74544881  0.19365291  1
  Se  Se234  1  0.58272748  0.75012299  0.70155873  1
  Se  Se235  1  0.91707178  0.07959563  0.19992102  1
  Se  Se236  1  0.90882514  0.09124132  0.69640411  1
  Se  Se237  1  0.91367492  0.42183818  0.18883076  1
  Se  Se238  1  0.91194647  0.42150275  0.69033836  1
  Se  Se239  1  0.91921874  0.74762074  0.19389461  1
  Se  Se240  1  0.91778345  0.75148028  0.70085015  1
  Se  Se241  1  0.08572934  0.24269276  0.18943254  1
  Se  Se242  1  0.08854407  0.24199564  0.69284857  1
  Se  Se243  1  0.08277551  0.58969877  0.20386935  1
  Se  Se244  1  0.08152418  0.58617813  0.69363493  1
  Se  Se245  1  0.07837305  0.91962105  0.19145786  1
  Se  Se246  1  0.09235367  0.91042661  0.68594419  1
  Se  Se247  1  0.42179880  0.23592666  0.18934869  1
  Se  Se248  1  0.41472004  0.25142164  0.69883271  1
  Se  Se249  1  0.42762600  0.58025177  0.18609370  1
  Se  Se250  1  0.41499854  0.58320227  0.70096212  1
  Se  Se251  1  0.42103775  0.90692970  0.19221605  1
  Se  Se252  1  0.41883182  0.91616779  0.69754547  1
  Se  Se253  1  0.74822565  0.25189177  0.20278201  1
  Se  Se254  1  0.75817164  0.24172098  0.69319146  1
  Se  Se255  1  0.74982214  0.58149014  0.19761926  1
  Se  Se256  1  0.74601984  0.58703283  0.69545137  1
  Se  Se257  1  0.74752678  0.91096744  0.19846357  1
  Se  Se258  1  0.75502428  0.90989234  0.69051535  1
