# generated using pymatgen
data_In86Cu29Se144
_symmetry_space_group_name_H-M   'P 1'
_cell_length_a   17.57654987
_cell_length_b   17.57861300
_cell_length_c   23.43380863
_cell_angle_alpha   90.01615948
_cell_angle_beta   90.01781508
_cell_angle_gamma   89.99025503
_symmetry_Int_Tables_number   1
_chemical_formula_structural   In86Cu29Se144
_chemical_formula_sum   'In86 Cu29 Se144'
_cell_volume   7240.37516632
_cell_formula_units_Z   1
loop_
 _symmetry_equiv_pos_site_id
 _symmetry_equiv_pos_as_xyz
  1  'x, y, z'
loop_
 _atom_site_type_symbol
 _atom_site_label
 _atom_site_symmetry_multiplicity
 _atom_site_fract_x
 _atom_site_fract_y
 _atom_site_fract_z
 _atom_site_occupancy
  In  In0  1  0.01227933  0.18689116  0.10725300  1
  In  In1  1  0.00961021  0.16405319  0.63544663  1
  In  In2  1  -0.00516500  0.48214015  0.10830685  1
  In  In3  1  -0.00446051  0.48428131  0.62737554  1
  In  In4  1  0.01042503  0.82438165  0.12171422  1
  In  In5  1  0.01626388  0.83968251  0.62821015  1
  In  In6  1  0.33548435  0.16344303  0.11543498  1
  In  In7  1  0.31938978  0.15658369  0.60836158  1
  In  In8  1  0.34408686  0.51137794  0.11817171  1
  In  In9  1  0.34286333  0.50261771  0.61836167  1
  In  In10  1  0.32513955  0.81914533  0.12448303  1
  In  In11  1  0.33829149  0.82222306  0.63169308  1
  In  In12  1  0.67649609  0.17621056  0.11061478  1
  In  In13  1  0.66564342  0.16869006  0.62849799  1
  In  In14  1  0.66322677  0.50036300  0.12922536  1
  In  In15  1  0.64959988  0.49846735  0.62618255  1
  In  In16  1  0.65163936  0.83850028  0.12465680  1
  In  In17  1  0.64421514  0.84439195  0.62255526  1
  In  In18  1  0.18425425  0.00791629  0.38004282  1
  In  In19  1  0.17007283  0.00250192  0.87749311  1
  In  In20  1  0.16571483  0.33745848  0.37817867  1
  In  In21  1  0.15560787  0.33958481  0.88502246  1
  In  In22  1  0.16253894  0.64572362  0.37155539  1
  In  In23  1  0.17894810  0.65877273  0.87794132  1
  In  In24  1  0.49212218  0.00936423  0.39812947  1
  In  In25  1  0.48989410  0.00877557  0.87905561  1
  In  In26  1  0.50417825  0.32898066  0.38046947  1
  In  In27  1  0.50731447  0.32852594  0.87849782  1
  In  In28  1  0.49558106  0.66446666  0.37147731  1
  In  In29  1  0.48896690  0.67423044  0.88044060  1
  In  In30  1  0.83177551  0.00459190  0.37387507  1
  In  In31  1  0.85192088  0.00327518  0.87365538  1
  In  In32  1  0.83785923  0.33523865  0.36118342  1
  In  In33  1  0.83493966  0.33312589  0.88019676  1
  In  In34  1  0.82718244  0.67295095  0.36977219  1
  In  In35  1  0.82371220  0.65946092  0.88249963  1
  In  In36  1  -0.00341541  0.18038914  0.37238762  1
  In  In37  1  0.00727594  0.17236350  0.88191577  1
  In  In38  1  0.02035323  0.49308903  0.37352356  1
  In  In39  1  0.00695557  0.48504409  0.88903490  1
  In  In40  1  0.00057913  0.82130192  0.37769473  1
  In  In41  1  0.00267361  0.85158008  0.87505719  1
  In  In42  1  0.33228926  0.17291910  0.39779686  1
  In  In43  1  0.34233569  0.15907140  0.87884101  1
  In  In44  1  0.31916656  0.50327135  0.38195273  1
  In  In45  1  0.32737871  0.50804347  0.87784244  1
  In  In46  1  0.34294324  0.83606107  0.37318922  1
  In  In47  1  0.33187315  0.83475455  0.87293786  1
  In  In48  1  0.65350028  0.17382897  0.37295838  1
  In  In49  1  0.64965150  0.17750120  0.88341646  1
  In  In50  1  0.65969628  0.49348528  0.36295918  1
  In  In51  1  0.67492436  0.48793076  0.88423261  1
  In  In52  1  0.65928492  0.82587984  0.36942368  1
  In  In53  1  0.66083688  0.82400339  0.88017061  1
  In  In54  1  0.16749788  -0.00302129  0.11908334  1
  In  In55  1  0.16485626  0.00980679  0.63282297  1
  In  In56  1  0.16482911  0.32764967  0.11476622  1
  In  In57  1  0.16311330  0.32454034  0.62106803  1
  In  In58  1  0.17981215  0.67187272  0.11962776  1
  In  In59  1  0.18031501  0.67311294  0.62507984  1
  In  In60  1  0.51069516  -0.00172278  0.11197553  1
  In  In61  1  0.47956002  -0.01574274  0.60487966  1
  In  In62  1  0.50529431  0.34374013  0.12187520  1
  In  In63  1  0.50193395  0.33631805  0.62036762  1
  In  In64  1  0.49786321  0.66899252  0.12832416  1
  In  In65  1  0.48886855  0.65480044  0.61731029  1
  In  In66  1  0.82101193  0.01852011  0.11462611  1
  In  In67  1  0.83571445  0.01393088  0.63024053  1
  In  In68  1  0.83227931  0.33299554  0.12283833  1
  In  In69  1  0.83790019  0.32661001  0.63912636  1
  In  In70  1  0.83646698  0.65017825  0.12491426  1
  In  In71  1  0.82421614  0.65938967  0.62514266  1
  In  In72  1  0.33233210  0.33615372  0.25474009  1
  In  In73  1  0.00335313  0.65435538  0.24788887  1
  In  In74  1  0.83402191  0.50106233  0.50058471  1
  In  In75  1  0.33889279  -0.00148521  0.25770685  1
  In  In76  1  0.82565385  0.16702056  0.50919721  1
  In  In77  1  0.16849964  0.83339639  0.49966701  1
  In  In78  1  0.00305111  0.00161038  0.23791103  1
  In  In79  1  0.66380563  0.66105737  0.75678215  1
  In  In80  1  0.66255501  0.00252631  0.24968660  1
  In  In81  1  0.66559711  0.00477504  0.75216341  1
  In  In82  1  0.82857944  0.83385745  0.49170917  1
  In  In83  1  0.00383761  0.66484976  0.75443815  1
  In  In84  1  0.33185763  0.32835349  0.74628084  1
  In  In85  1  0.83762352  0.83392104  0.00164811  1
  Cu  Cu86  1  0.16758846  0.49791730  0.75595399  1
  Cu  Cu87  1  0.65901590  0.66233750  0.00527173  1
  Cu  Cu88  1  0.50029457  0.17034009  0.25249605  1
  Cu  Cu89  1  0.00732638  0.00562331  -0.00126349  1
  Cu  Cu90  1  0.49836530  0.50625676  0.24722125  1
  Cu  Cu91  1  0.84112046  0.83856385  0.74869735  1
  Cu  Cu92  1  0.83323171  0.17987312  0.24028579  1
  Cu  Cu93  1  0.00315234  0.00414585  0.50812035  1
  Cu  Cu94  1  0.16395821  0.16841837  0.24648923  1
  Cu  Cu95  1  0.16633675  0.49467753  0.24542408  1
  Cu  Cu96  1  0.17167888  0.84322290  0.75119235  1
  Cu  Cu97  1  0.49718954  0.83340863  0.24887382  1
  Cu  Cu98  1  0.83172966  0.49601144  0.24261073  1
  Cu  Cu99  1  0.33578241  0.33059794  -0.00339611  1
  Cu  Cu100  1  0.33634242  0.66818686  -0.00011708  1
  Cu  Cu101  1  0.83755150  0.17147706  0.75729779  1
  Cu  Cu102  1  0.33577604  -0.00559512  -0.00146026  1
  Cu  Cu103  1  0.66304553  0.33797275  0.00353207  1
  Cu  Cu104  1  0.83497138  0.48573703  0.76024238  1
  Cu  Cu105  1  0.49811808  0.49713474  0.74725442  1
  Cu  Cu106  1  0.83107344  0.83460430  0.25132864  1
  Cu  Cu107  1  0.65653509  0.67064197  0.49637504  1
  Cu  Cu108  1  0.33645572  0.66719146  0.49968834  1
  Cu  Cu109  1  0.49771626  0.16279559  0.75103829  1
  Cu  Cu110  1  0.00973231  0.66461583  0.00041101  1
  Cu  Cu111  1  0.66867003  0.33936860  0.49894341  1
  Cu  Cu112  1  0.16782808  0.16844124  0.75377865  1
  Cu  Cu113  1  0.01019099  0.33178931  0.49973933  1
  Cu  Cu114  1  0.49219998  0.83262394  0.74944326  1
  Se  Se115  1  0.09311580  0.08708475  0.05151280  1
  Se  Se116  1  0.08597435  0.08903998  0.55852494  1
  Se  Se117  1  0.08528831  0.40754048  0.04264872  1
  Se  Se118  1  0.08541926  0.41923521  0.55505298  1
  Se  Se119  1  0.09245150  0.75136406  0.04943741  1
  Se  Se120  1  0.07616037  0.74126059  0.55740569  1
  Se  Se121  1  0.42007191  0.08075334  0.04961776  1
  Se  Se122  1  0.43335627  0.10294603  0.55183272  1
  Se  Se123  1  0.41541217  0.41586871  0.05218157  1
  Se  Se124  1  0.42377151  0.42049927  0.55157448  1
  Se  Se125  1  0.41901881  0.75132484  0.05539072  1
  Se  Se126  1  0.41758971  0.75277692  0.55298297  1
  Se  Se127  1  0.72761829  0.07154905  0.04202599  1
  Se  Se128  1  0.73501553  0.06736787  0.55795184  1
  Se  Se129  1  0.74620815  0.42038461  0.05854943  1
  Se  Se130  1  0.75037873  0.40981710  0.56514047  1
  Se  Se131  1  0.74705674  0.74287593  0.06184619  1
  Se  Se132  1  0.73841193  0.74673931  0.55860577  1
  Se  Se133  1  0.25228535  0.24581891  0.04872425  1
  Se  Se134  1  0.25684932  0.26383911  0.55029259  1
  Se  Se135  1  0.25060079  0.58148712  0.04935631  1
  Se  Se136  1  0.25190314  0.58618677  0.55421903  1
  Se  Se137  1  0.25421554  0.91298805  0.05565313  1
  Se  Se138  1  0.25077788  0.91668257  0.56765599  1
  Se  Se139  1  0.57563159  0.25189747  0.05217057  1
  Se  Se140  1  0.59305604  0.25363891  0.55608229  1
  Se  Se141  1  0.57659148  0.58032268  0.06033990  1
  Se  Se142  1  0.58171417  0.58048572  0.55045640  1
  Se  Se143  1  0.59008986  0.91346448  0.04426173  1
  Se  Se144  1  0.57750468  0.91253961  0.54170332  1
  Se  Se145  1  0.89290895  0.23228316  0.05522010  1
  Se  Se146  1  0.92568581  0.25582811  0.56109541  1
  Se  Se147  1  0.91978424  0.58422722  0.04941019  1
  Se  Se148  1  0.92461576  0.58926529  0.56160016  1
  Se  Se149  1  0.92687439  0.92753593  0.06265606  1
  Se  Se150  1  0.91847337  0.92048664  0.56035570  1
  Se  Se151  1  0.08643486  0.24454348  0.44449973  1
  Se  Se152  1  0.07550352  0.25978500  0.95590930  1
  Se  Se153  1  0.08081127  0.58080908  0.44761844  1
  Se  Se154  1  0.09080447  0.58089380  0.94563325  1
  Se  Se155  1  0.07446501  0.92549225  0.44018460  1
  Se  Se156  1  0.08898143  0.91724411  0.94907599  1
  Se  Se157  1  0.41963116  0.26137780  0.45393312  1
  Se  Se158  1  0.42195010  0.24654919  0.94590491  1
  Se  Se159  1  0.41531047  0.58256863  0.44288421  1
  Se  Se160  1  0.41777627  0.58062493  0.94794452  1
  Se  Se161  1  0.39513872  0.92518211  0.44990490  1
  Se  Se162  1  0.41831259  0.91162306  0.94363440  1
  Se  Se163  1  0.75219079  0.26071548  0.43976568  1
  Se  Se164  1  0.74324425  0.25408034  0.94720673  1
  Se  Se165  1  0.74147211  0.58954303  0.43981084  1
  Se  Se166  1  0.74601101  0.58067921  0.95410181  1
  Se  Se167  1  0.73675440  0.92614195  0.43653777  1
  Se  Se168  1  0.75321537  0.91824392  0.93494181  1
  Se  Se169  1  0.25289902  0.07921969  0.45870089  1
  Se  Se170  1  0.25374704  0.08288050  0.94779481  1
  Se  Se171  1  0.25220097  0.40803758  0.44865018  1
  Se  Se172  1  0.25299509  0.41729085  0.94542961  1
  Se  Se173  1  0.25262836  0.74084683  0.43660283  1
  Se  Se174  1  0.25240167  0.75091472  0.94484443  1
  Se  Se175  1  0.59386950  0.08961383  0.44852254  1
  Se  Se176  1  0.58886795  0.07243474  0.94470112  1
  Se  Se177  1  0.58843556  0.42171091  0.44333002  1
  Se  Se178  1  0.57702302  0.41942722  0.94983822  1
  Se  Se179  1  0.57510116  0.75270751  0.44138266  1
  Se  Se180  1  0.57943314  0.74735204  0.95095275  1
  Se  Se181  1  0.92151703  0.08084600  0.44527001  1
  Se  Se182  1  0.91954005  0.08668598  0.94875584  1
  Se  Se183  1  0.92202451  0.40713038  0.44114018  1
  Se  Se184  1  0.89610756  0.43290671  0.94830512  1
  Se  Se185  1  0.92295711  0.73196140  0.44676047  1
  Se  Se186  1  0.92789399  0.74407862  0.93868439  1
  Se  Se187  1  0.24817459  0.23719404  0.31167395  1
  Se  Se188  1  0.24518459  0.24858316  0.81647928  1
  Se  Se189  1  0.25012214  0.57623624  0.29937949  1
  Se  Se190  1  0.25437944  0.58510810  0.79970779  1
  Se  Se191  1  0.23901761  0.90795323  0.30744418  1
  Se  Se192  1  0.25501910  0.92533109  0.80516722  1
  Se  Se193  1  0.58287349  0.25926361  0.30067908  1
  Se  Se194  1  0.58004159  0.24882855  0.80153041  1
  Se  Se195  1  0.58415748  0.58955180  0.30052972  1
  Se  Se196  1  0.57465770  0.57239488  0.81556527  1
  Se  Se197  1  0.56672837  0.92174781  0.31175415  1
  Se  Se198  1  0.57758786  0.90787925  0.80877522  1
  Se  Se199  1  0.92426213  0.25450721  0.29397913  1
  Se  Se200  1  0.92113326  0.25250994  0.81157996  1
  Se  Se201  1  0.91035651  0.56945033  0.31137643  1
  Se  Se202  1  0.91137972  0.57693275  0.81403012  1
  Se  Se203  1  0.91528850  0.91212462  0.30821530  1
  Se  Se204  1  0.92459033  0.92324300  0.79774055  1
  Se  Se205  1  0.08805079  0.08553483  0.30862488  1
  Se  Se206  1  0.08485248  0.08699955  0.81024872  1
  Se  Se207  1  0.08712833  0.40776310  0.29879748  1
  Se  Se208  1  0.08181124  0.41722592  0.80753926  1
  Se  Se209  1  0.08979103  0.75027817  0.30610447  1
  Se  Se210  1  0.09207327  0.75962028  0.81169921  1
  Se  Se211  1  0.42171929  0.09632214  0.31674301  1
  Se  Se212  1  0.41237759  0.07916935  0.80079225  1
  Se  Se213  1  0.42245730  0.42671780  0.31245809  1
  Se  Se214  1  0.41821284  0.41819040  0.80986892  1
  Se  Se215  1  0.41396053  0.74953922  0.30117020  1
  Se  Se216  1  0.41231662  0.74676921  0.80319895  1
  Se  Se217  1  0.75885278  0.09782236  0.30415848  1
  Se  Se218  1  0.75406474  0.09128821  0.81527860  1
  Se  Se219  1  0.74780876  0.41329452  0.29674315  1
  Se  Se220  1  0.74332809  0.40652178  0.80779974  1
  Se  Se221  1  0.74491089  0.74990924  0.29871869  1
  Se  Se222  1  0.76140672  0.75792683  0.80735782  1
  Se  Se223  1  0.24820813  0.08657109  0.19228231  1
  Se  Se224  1  0.25442694  0.09312865  0.69629243  1
  Se  Se225  1  0.24991733  0.41874777  0.18399376  1
  Se  Se226  1  0.24511149  0.42377903  0.68881318  1
  Se  Se227  1  0.25034005  0.74307473  0.19960320  1
  Se  Se228  1  0.24983033  0.74988119  0.70309865  1
  Se  Se229  1  0.57759737  0.09329496  0.18766466  1
  Se  Se230  1  0.57063294  0.07919721  0.68693098  1
  Se  Se231  1  0.58054417  0.41703771  0.19948181  1
  Se  Se232  1  0.58186907  0.41095044  0.69843735  1
  Se  Se233  1  0.58406163  0.75204562  0.19758019  1
  Se  Se234  1  0.57510525  0.74871706  0.69274910  1
  Se  Se235  1  0.91133860  0.09434136  0.18396120  1
  Se  Se236  1  0.91865267  0.08631559  0.70209977  1
  Se  Se237  1  0.91905975  0.41663189  0.19034830  1
  Se  Se238  1  0.92327733  0.40977349  0.70552578  1
  Se  Se239  1  0.91241580  0.75425858  0.19200283  1
  Se  Se240  1  0.91327085  0.75227549  0.68804598  1
  Se  Se241  1  0.08548620  0.25193796  0.19077075  1
  Se  Se242  1  0.08655122  0.25553212  0.70111862  1
  Se  Se243  1  0.08736955  0.57063791  0.18016242  1
  Se  Se244  1  0.08986170  0.57741457  0.69009823  1
  Se  Se245  1  0.09777603  0.90303090  0.19370962  1
  Se  Se246  1  0.08323431  0.92469122  0.70188237  1
  Se  Se247  1  0.41783603  0.24579650  0.19056053  1
  Se  Se248  1  0.42022153  0.24032123  0.68600263  1
  Se  Se249  1  0.41137980  0.58846899  0.19786536  1
  Se  Se250  1  0.41521104  0.58236756  0.69630331  1
  Se  Se251  1  0.42376516  0.91789843  0.18678456  1
  Se  Se252  1  0.41678101  0.92004592  0.69298771  1
  Se  Se253  1  0.73980136  0.25537356  0.19128951  1
  Se  Se254  1  0.74777583  0.24487353  0.70142946  1
  Se  Se255  1  0.74761401  0.58564190  0.19821593  1
  Se  Se256  1  0.75622248  0.56678155  0.69814964  1
  Se  Se257  1  0.75779392  0.91666269  0.18807028  1
  Se  Se258  1  0.75260115  0.90917467  0.68877277  1
