# generated using pymatgen
data_In86Cu29Se144
_symmetry_space_group_name_H-M   'P 1'
_cell_length_a   17.61678337
_cell_length_b   17.61932605
_cell_length_c   23.47251710
_cell_angle_alpha   89.96025760
_cell_angle_beta   90.02541916
_cell_angle_gamma   89.99837152
_symmetry_Int_Tables_number   1
_chemical_formula_structural   In86Cu29Se144
_chemical_formula_sum   'In86 Cu29 Se144'
_cell_volume   7285.76942904
_cell_formula_units_Z   1
loop_
 _symmetry_equiv_pos_site_id
 _symmetry_equiv_pos_as_xyz
  1  'x, y, z'
loop_
 _atom_site_type_symbol
 _atom_site_label
 _atom_site_symmetry_multiplicity
 _atom_site_fract_x
 _atom_site_fract_y
 _atom_site_fract_z
 _atom_site_occupancy
  In  In0  1  0.01639649  0.16724752  0.12662494  1
  In  In1  1  0.01080486  0.17472389  0.62391744  1
  In  In2  1  -0.01517222  0.51261497  0.12699212  1
  In  In3  1  -0.01022135  0.50880325  0.63016550  1
  In  In4  1  -0.00015194  0.81644019  0.11983023  1
  In  In5  1  0.00223969  0.82684482  0.61789156  1
  In  In6  1  0.31801954  0.16947709  0.12206467  1
  In  In7  1  0.33273771  0.17472530  0.62030940  1
  In  In8  1  0.34553914  0.50234400  0.12613257  1
  In  In9  1  0.33437932  0.47740286  0.62051082  1
  In  In10  1  0.32429224  0.82960088  0.12379887  1
  In  In11  1  0.33616170  0.84363179  0.61462222  1
  In  In12  1  0.66644892  0.16583636  0.13590687  1
  In  In13  1  0.67033854  0.17370685  0.61971943  1
  In  In14  1  0.67234108  0.49605149  0.13148148  1
  In  In15  1  0.65743265  0.49509860  0.61373326  1
  In  In16  1  0.65451210  0.83788453  0.13522235  1
  In  In17  1  0.65761959  0.83737394  0.60491979  1
  In  In18  1  0.18222914  -0.00455854  0.39362255  1
  In  In19  1  0.17933740  -0.01048406  0.87767619  1
  In  In20  1  0.16862619  0.32616476  0.37919660  1
  In  In21  1  0.16554339  0.32875033  0.87242156  1
  In  In22  1  0.17648028  0.67026016  0.36527862  1
  In  In23  1  0.16290645  0.68356770  0.87599430  1
  In  In24  1  0.53331524  -0.03507795  0.42226574  1
  In  In25  1  0.49162080  0.00461251  0.87320212  1
  In  In26  1  0.50756952  0.31984228  0.38749200  1
  In  In27  1  0.49678062  0.32449076  0.86164522  1
  In  In28  1  0.50098640  0.66274881  0.37273250  1
  In  In29  1  0.51306785  0.67384805  0.88005341  1
  In  In30  1  0.81303167  -0.00638439  0.37484081  1
  In  In31  1  0.83899360  -0.01404973  0.87422292  1
  In  In32  1  0.84195701  0.34202656  0.37179660  1
  In  In33  1  0.84139793  0.34274037  0.86909451  1
  In  In34  1  0.83592751  0.66427425  0.37097228  1
  In  In35  1  0.83288904  0.65344877  0.88316798  1
  In  In36  1  0.00210909  0.17575430  0.37536722  1
  In  In37  1  0.00361422  0.18047630  0.87290420  1
  In  In38  1  -0.00089715  0.49055995  0.36917913  1
  In  In39  1  -0.00531137  0.49831031  0.87208579  1
  In  In40  1  0.01008705  0.82192690  0.37620725  1
  In  In41  1  0.01195642  0.83950853  0.87005241  1
  In  In42  1  0.37177957  0.12905137  0.42634048  1
  In  In43  1  0.33380719  0.15967903  0.86691550  1
  In  In44  1  0.33204875  0.50769264  0.37609485  1
  In  In45  1  0.34131053  0.49147784  0.87095506  1
  In  In46  1  0.34406047  0.82730480  0.38713011  1
  In  In47  1  0.33128883  0.83972135  0.87533454  1
  In  In48  1  0.65418639  0.15468654  0.36854621  1
  In  In49  1  0.65396297  0.16915828  0.87331507  1
  In  In50  1  0.67062464  0.50014154  0.37207391  1
  In  In51  1  0.67800441  0.50106064  0.87818846  1
  In  In52  1  0.67245050  0.82851733  0.37384845  1
  In  In53  1  0.66545886  0.82092546  0.88507966  1
  In  In54  1  0.16861729  0.00088874  0.11740685  1
  In  In55  1  0.18873474  0.02319187  0.60285322  1
  In  In56  1  0.16391700  0.31851156  0.12340448  1
  In  In57  1  0.17541236  0.32347062  0.63559197  1
  In  In58  1  0.15411603  0.67480075  0.13137268  1
  In  In59  1  0.15207339  0.66182740  0.62686538  1
  In  In60  1  0.51334227  -0.00810115  0.13323312  1
  In  In61  1  0.48222736  -0.00452252  0.60829965  1
  In  In62  1  0.50226137  0.34192618  0.12904562  1
  In  In63  1  0.50357283  0.33370241  0.61851508  1
  In  In64  1  0.49084265  0.67566282  0.13814407  1
  In  In65  1  0.49991572  0.67062154  0.61350797  1
  In  In66  1  0.82237569  -0.00753300  0.13011098  1
  In  In67  1  0.83700126  -0.00652424  0.61773085  1
  In  In68  1  0.82476307  0.34630352  0.12837106  1
  In  In69  1  0.82033342  0.34344764  0.63101019  1
  In  In70  1  0.84273890  0.65752725  0.13176241  1
  In  In71  1  0.83480964  0.66970146  0.61657014  1
  In  In72  1  0.66815959  0.66436475  0.75564835  1
  In  In73  1  0.50120256  0.50220466  0.00344738  1
  In  In74  1  0.01141565  0.00560734  0.73386697  1
  In  In75  1  0.83066313  0.83161269  0.00656373  1
  In  In76  1  0.83026834  0.16238289  0.49842178  1
  In  In77  1  0.33013897  0.33267125  0.25696710  1
  In  In78  1  0.16502516  0.50068781  0.50563399  1
  In  In79  1  0.66405206  0.00346076  0.74905461  1
  In  In80  1  0.83397909  0.16989111  0.00699453  1
  In  In81  1  0.34004967  0.00175442  0.26936200  1
  In  In82  1  -0.00378588  0.00224803  0.25027388  1
  In  In83  1  0.16352333  0.50422845  -0.00508423  1
  In  In84  1  0.49587716  0.16161444  -0.00174146  1
  In  In85  1  0.33152403  0.66033163  0.75261026  1
  Cu  Cu86  1  0.16805881  0.16702830  0.25585632  1
  Cu  Cu87  1  0.33513815  0.66825248  0.49725152  1
  Cu  Cu88  1  0.83002878  0.49888669  0.75041513  1
  Cu  Cu89  1  0.15942024  0.49547224  0.74848696  1
  Cu  Cu90  1  0.33267002  0.67268220  0.00443094  1
  Cu  Cu91  1  0.83241858  0.17430176  0.25610289  1
  Cu  Cu92  1  0.82912297  0.17440462  0.75007873  1
  Cu  Cu93  1  0.16406729  0.82732953  0.24828879  1
  Cu  Cu94  1  0.83589138  0.49924234  0.25119523  1
  Cu  Cu95  1  0.16303286  0.49656749  0.24964563  1
  Cu  Cu96  1  0.49927503  0.17138777  0.25672570  1
  Cu  Cu97  1  0.66820818  0.33685827  0.00147902  1
  Cu  Cu98  1  0.50592545  0.50045840  0.25161032  1
  Cu  Cu99  1  -0.00015345  0.34195057  -0.00520114  1
  Cu  Cu100  1  0.33880670  -0.00438709  -0.00167434  1
  Cu  Cu101  1  0.50060589  0.83690831  0.74176604  1
  Cu  Cu102  1  0.17036100  0.16567241  0.74686318  1
  Cu  Cu103  1  -0.00169811  0.33980927  0.49973971  1
  Cu  Cu104  1  -0.00195038  0.66263487  0.49734371  1
  Cu  Cu105  1  0.49998402  0.83648585  0.26345981  1
  Cu  Cu106  1  0.82864330  0.83055121  0.24839440  1
  Cu  Cu107  1  0.66994652  0.66607563  0.49069292  1
  Cu  Cu108  1  0.67293486  0.33649417  0.49681633  1
  Cu  Cu109  1  0.50100103  0.49078867  0.74078747  1
  Cu  Cu110  1  0.00575063  0.00587263  -0.00146160  1
  Cu  Cu111  1  -0.00618263  -0.01063137  0.49794856  1
  Cu  Cu112  1  0.49765596  0.16717111  0.74135607  1
  Cu  Cu113  1  0.83646821  0.82777249  0.73885214  1
  Cu  Cu114  1  0.17041929  0.83587265  0.74750057  1
  Se  Se115  1  0.08920360  0.08948835  0.05066250  1
  Se  Se116  1  0.06838746  0.07841499  0.55338383  1
  Se  Se117  1  0.07846414  0.41636042  0.06121771  1
  Se  Se118  1  0.07681973  0.41198584  0.56727323  1
  Se  Se119  1  0.09324813  0.75408223  0.05104219  1
  Se  Se120  1  0.08542602  0.74279095  0.54952914  1
  Se  Se121  1  0.41093064  0.07367206  0.06575782  1
  Se  Se122  1  0.41339316  0.09580679  0.54654179  1
  Se  Se123  1  0.40791956  0.40372642  0.05433952  1
  Se  Se124  1  0.43270237  0.42765668  0.55046708  1
  Se  Se125  1  0.41729074  0.75143151  0.05975626  1
  Se  Se126  1  0.41765466  0.75645209  0.54809793  1
  Se  Se127  1  0.73945767  0.07797207  0.05947358  1
  Se  Se128  1  0.73843126  0.06937776  0.55433719  1
  Se  Se129  1  0.74924989  0.42311268  0.05220231  1
  Se  Se130  1  0.75488223  0.42021923  0.55046065  1
  Se  Se131  1  0.74605465  0.74799026  0.07198371  1
  Se  Se132  1  0.74845894  0.74975878  0.54880951  1
  Se  Se133  1  0.24851695  0.25214140  0.04968707  1
  Se  Se134  1  0.23937555  0.25110049  0.55517213  1
  Se  Se135  1  0.25508078  0.58750360  0.06125563  1
  Se  Se136  1  0.25998821  0.59029448  0.56417306  1
  Se  Se137  1  0.25113242  0.91604998  0.05208471  1
  Se  Se138  1  0.23608217  0.90559766  0.54942067  1
  Se  Se139  1  0.58810039  0.25445715  0.05905909  1
  Se  Se140  1  0.58934825  0.25228329  0.54928356  1
  Se  Se141  1  0.58147671  0.58808846  0.07009448  1
  Se  Se142  1  0.58461917  0.58809721  0.54788768  1
  Se  Se143  1  0.58356975  0.91537931  0.05769568  1
  Se  Se144  1  0.57033390  0.91711397  0.54086352  1
  Se  Se145  1  0.92643136  0.26097197  0.06219248  1
  Se  Se146  1  0.91557380  0.25781953  0.55951016  1
  Se  Se147  1  0.91625100  0.59111146  0.05049571  1
  Se  Se148  1  0.91498012  0.58002379  0.55080977  1
  Se  Se149  1  0.92534297  0.92884680  0.06120648  1
  Se  Se150  1  0.91236270  0.90567428  0.55082477  1
  Se  Se151  1  0.07946106  0.25247194  0.45006537  1
  Se  Se152  1  0.08323221  0.25359495  0.94752769  1
  Se  Se153  1  0.08285657  0.58613401  0.43694119  1
  Se  Se154  1  0.07284028  0.59561509  0.93919064  1
  Se  Se155  1  0.08271842  0.91135214  0.44605118  1
  Se  Se156  1  0.08452255  0.91882440  0.94492816  1
  Se  Se157  1  0.40269486  0.26923969  0.45324624  1
  Se  Se158  1  0.41128403  0.25419645  0.93828179  1
  Se  Se159  1  0.41762613  0.58371149  0.44574451  1
  Se  Se160  1  0.40832535  0.59206998  0.94100439  1
  Se  Se161  1  0.38806686  0.94892156  0.43871744  1
  Se  Se162  1  0.42165664  0.91493612  0.94341665  1
  Se  Se163  1  0.74783423  0.25279391  0.43448800  1
  Se  Se164  1  0.74519622  0.25431914  0.93988891  1
  Se  Se165  1  0.75487411  0.58128478  0.44167204  1
  Se  Se166  1  0.72373640  0.60496814  0.94597292  1
  Se  Se167  1  0.74799409  0.91008974  0.44854084  1
  Se  Se168  1  0.74295336  0.92568788  0.94540534  1
  Se  Se169  1  0.22841071  0.10898508  0.45158878  1
  Se  Se170  1  0.25861106  0.08013615  0.94243361  1
  Se  Se171  1  0.25551133  0.41456545  0.44501894  1
  Se  Se172  1  0.25737964  0.41144394  0.94191397  1
  Se  Se173  1  0.24607053  0.74613614  0.44479491  1
  Se  Se174  1  0.25359507  0.75336211  0.94477472  1
  Se  Se175  1  0.57717910  0.10032657  0.45155322  1
  Se  Se176  1  0.59219955  0.07162729  0.94386918  1
  Se  Se177  1  0.58839471  0.41917900  0.44362315  1
  Se  Se178  1  0.58264699  0.40705066  0.93782318  1
  Se  Se179  1  0.58243143  0.74785794  0.44081281  1
  Se  Se180  1  0.57953251  0.75245562  0.95631704  1
  Se  Se181  1  0.92005115  0.07327803  0.43554324  1
  Se  Se182  1  0.92114114  0.08053247  0.93920799  1
  Se  Se183  1  0.91675896  0.42243376  0.44659380  1
  Se  Se184  1  0.91126518  0.42262274  0.94597750  1
  Se  Se185  1  0.91725354  0.74730179  0.44216283  1
  Se  Se186  1  0.92051104  0.75510010  0.93723465  1
  Se  Se187  1  0.25481235  0.23491742  0.31735586  1
  Se  Se188  1  0.25128649  0.24926783  0.80326956  1
  Se  Se189  1  0.25183363  0.57772964  0.29943420  1
  Se  Se190  1  0.23698797  0.57437998  0.81375422  1
  Se  Se191  1  0.24079233  0.90500203  0.31297354  1
  Se  Se192  1  0.25599740  0.91790096  0.79944463  1
  Se  Se193  1  0.58470912  0.25618126  0.30556190  1
  Se  Se194  1  0.58560030  0.24588910  0.79513316  1
  Se  Se195  1  0.58816587  0.58541187  0.30366831  1
  Se  Se196  1  0.57166061  0.57098667  0.80850174  1
  Se  Se197  1  0.57566931  0.92095378  0.32152642  1
  Se  Se198  1  0.58195432  0.90629193  0.80914095  1
  Se  Se199  1  0.92216059  0.25424384  0.30378406  1
  Se  Se200  1  0.91731273  0.25243869  0.80210649  1
  Se  Se201  1  0.92172919  0.58144012  0.30323856  1
  Se  Se202  1  0.91021879  0.58410542  0.80508090  1
  Se  Se203  1  0.91042943  0.90975816  0.31045286  1
  Se  Se204  1  0.91711611  0.91425986  0.79439491  1
  Se  Se205  1  0.09098145  0.08023652  0.31451896  1
  Se  Se206  1  0.09072477  0.08580792  0.80906473  1
  Se  Se207  1  0.09097999  0.40914508  0.30707906  1
  Se  Se208  1  0.07992536  0.41378465  0.80744757  1
  Se  Se209  1  0.08007499  0.74245171  0.29897991  1
  Se  Se210  1  0.08405186  0.75374677  0.79772265  1
  Se  Se211  1  0.42719890  0.09514262  0.32309949  1
  Se  Se212  1  0.41947840  0.08096890  0.79685518  1
  Se  Se213  1  0.42578472  0.42033889  0.31263755  1
  Se  Se214  1  0.41458486  0.41244758  0.79650280  1
  Se  Se215  1  0.41244211  0.74987874  0.30866735  1
  Se  Se216  1  0.42736026  0.75334537  0.80529893  1
  Se  Se217  1  0.74937840  0.08378265  0.30146865  1
  Se  Se218  1  0.75968604  0.08818194  0.81187768  1
  Se  Se219  1  0.75172831  0.41503143  0.30269471  1
  Se  Se220  1  0.74590365  0.41646415  0.80369788  1
  Se  Se221  1  0.74885924  0.74482280  0.30230817  1
  Se  Se222  1  0.76096917  0.75859962  0.80966803  1
  Se  Se223  1  0.24611014  0.08155043  0.19783667  1
  Se  Se224  1  0.25317954  0.08557092  0.69005222  1
  Se  Se225  1  0.24507512  0.41886888  0.18792829  1
  Se  Se226  1  0.25086233  0.41785830  0.70010007  1
  Se  Se227  1  0.25137751  0.74603071  0.19698547  1
  Se  Se228  1  0.24893527  0.75072961  0.68807438  1
  Se  Se229  1  0.57990158  0.08524390  0.20270236  1
  Se  Se230  1  0.57518766  0.08327879  0.68155287  1
  Se  Se231  1  0.58708282  0.41374770  0.19978842  1
  Se  Se232  1  0.59006520  0.41261610  0.69033819  1
  Se  Se233  1  0.57925514  0.75266154  0.20657217  1
  Se  Se234  1  0.58413391  0.75528690  0.68732051  1
  Se  Se235  1  0.90745965  0.09501184  0.18902126  1
  Se  Se236  1  0.90497316  0.09429174  0.68694853  1
  Se  Se237  1  0.91912212  0.41626135  0.19583492  1
  Se  Se238  1  0.91468304  0.41614518  0.69709153  1
  Se  Se239  1  0.91859262  0.75206862  0.19761497  1
  Se  Se240  1  0.92012309  0.74470639  0.68866670  1
  Se  Se241  1  0.08539961  0.24973896  0.20252181  1
  Se  Se242  1  0.08017338  0.25094887  0.70244437  1
  Se  Se243  1  0.08088259  0.58029277  0.19565357  1
  Se  Se244  1  0.07707751  0.58405291  0.70154256  1
  Se  Se245  1  0.08752939  0.91369699  0.18957131  1
  Se  Se246  1  0.09989624  0.91353060  0.67856055  1
  Se  Se247  1  0.41865206  0.24188150  0.19030801  1
  Se  Se248  1  0.41814671  0.25486593  0.68932394  1
  Se  Se249  1  0.41486466  0.58065856  0.20276683  1
  Se  Se250  1  0.42301323  0.57943607  0.68663864  1
  Se  Se251  1  0.41711111  0.91143242  0.19875713  1
  Se  Se252  1  0.41666314  0.91827645  0.68949675  1
  Se  Se253  1  0.75125300  0.25431471  0.19674402  1
  Se  Se254  1  0.74244821  0.25167283  0.69630586  1
  Se  Se255  1  0.75154383  0.58297677  0.19906437  1
  Se  Se256  1  0.75076669  0.57896722  0.68814069  1
  Se  Se257  1  0.74289515  0.91902005  0.20357147  1
  Se  Se258  1  0.74840524  0.90765287  0.68666425  1
