# generated using pymatgen
data_In86Cu29Se144
_symmetry_space_group_name_H-M   'P 1'
_cell_length_a   17.58550279
_cell_length_b   17.58489816
_cell_length_c   23.44140712
_cell_angle_alpha   89.98540247
_cell_angle_beta   90.02634462
_cell_angle_gamma   89.98948907
_symmetry_Int_Tables_number   1
_chemical_formula_structural   In86Cu29Se144
_chemical_formula_sum   'In86 Cu29 Se144'
_cell_volume   7249.00263539
_cell_formula_units_Z   1
loop_
 _symmetry_equiv_pos_site_id
 _symmetry_equiv_pos_as_xyz
  1  'x, y, z'
loop_
 _atom_site_type_symbol
 _atom_site_label
 _atom_site_symmetry_multiplicity
 _atom_site_fract_x
 _atom_site_fract_y
 _atom_site_fract_z
 _atom_site_occupancy
  In  In0  1  0.00094712  0.15939097  0.12532529  1
  In  In1  1  -0.02022642  0.15329244  0.62671499  1
  In  In2  1  0.01042633  0.51318353  0.11639040  1
  In  In3  1  0.00880915  0.50861447  0.63233790  1
  In  In4  1  0.01903415  0.81929881  0.14872902  1
  In  In5  1  -0.00814814  0.84228675  0.63593499  1
  In  In6  1  0.32569788  0.17268813  0.12735771  1
  In  In7  1  0.33823826  0.15660259  0.62127096  1
  In  In8  1  0.34032730  0.49973556  0.12374853  1
  In  In9  1  0.34220848  0.49195246  0.62438611  1
  In  In10  1  0.33337624  0.82970190  0.13235918  1
  In  In11  1  0.34156266  0.82668971  0.62170401  1
  In  In12  1  0.68094100  0.17037698  0.12554521  1
  In  In13  1  0.66831487  0.15993960  0.61654965  1
  In  In14  1  0.66548964  0.50251867  0.12688282  1
  In  In15  1  0.66625171  0.52142048  0.62224445  1
  In  In16  1  0.65378871  0.83204762  0.12492026  1
  In  In17  1  0.66549430  0.82146984  0.60802906  1
  In  In18  1  0.16366104  -0.01435455  0.34849429  1
  In  In19  1  0.15395865  0.00584867  0.88540494  1
  In  In20  1  0.17245416  0.32490224  0.36435270  1
  In  In21  1  0.16861689  0.33084910  0.89568775  1
  In  In22  1  0.16601418  0.67777951  0.35240418  1
  In  In23  1  0.16209407  0.67479003  0.89014403  1
  In  In24  1  0.50170696  0.00302748  0.37775732  1
  In  In25  1  0.49013931  -0.00179120  0.87271469  1
  In  In26  1  0.50480918  0.32891710  0.36842534  1
  In  In27  1  0.50948090  0.34030120  0.87512267  1
  In  In28  1  0.50553939  0.66167001  0.37513600  1
  In  In29  1  0.49827359  0.66996056  0.87914018  1
  In  In30  1  0.82717507  -0.00588732  0.39063129  1
  In  In31  1  0.84330431  0.00067683  0.87271925  1
  In  In32  1  0.81905842  0.33803654  0.37233193  1
  In  In33  1  0.83588114  0.32874974  0.88531378  1
  In  In34  1  0.83276232  0.67477043  0.37047565  1
  In  In35  1  0.82548705  0.66043764  0.87137539  1
  In  In36  1  -0.00117666  0.15351119  0.37216023  1
  In  In37  1  -0.00331576  0.16262121  0.88185890  1
  In  In38  1  -0.00873866  0.51630815  0.37180283  1
  In  In39  1  -0.00791724  0.50651748  0.88950146  1
  In  In40  1  -0.01200617  0.82865883  0.36615146  1
  In  In41  1  0.00458953  0.83904589  0.87408004  1
  In  In42  1  0.34539438  0.16983108  0.36190686  1
  In  In43  1  0.32827600  0.15332314  0.87903328  1
  In  In44  1  0.34440637  0.50891886  0.36029720  1
  In  In45  1  0.33471319  0.49718923  0.89468906  1
  In  In46  1  0.34080902  0.83925233  0.35980606  1
  In  In47  1  0.33586315  0.82671430  0.88621857  1
  In  In48  1  0.65763637  0.17105774  0.38336531  1
  In  In49  1  0.66446356  0.17813837  0.87556571  1
  In  In50  1  0.66455144  0.49226551  0.36819257  1
  In  In51  1  0.65353325  0.51066060  0.88339100  1
  In  In52  1  0.67399132  0.82102593  0.39509440  1
  In  In53  1  0.66551658  0.82380240  0.87263457  1
  In  In54  1  0.16594987  -0.00428183  0.12987847  1
  In  In55  1  0.16077228  -0.01403708  0.62927591  1
  In  In56  1  0.19216824  0.34367122  0.10442792  1
  In  In57  1  0.17346790  0.33234333  0.62657079  1
  In  In58  1  0.17598252  0.67124205  0.13218036  1
  In  In59  1  0.15974728  0.66048536  0.63031449  1
  In  In60  1  0.49912196  -0.01925425  0.12513125  1
  In  In61  1  0.50995617  -0.00309143  0.60619326  1
  In  In62  1  0.48490662  0.34794077  0.13353234  1
  In  In63  1  0.50219172  0.33512101  0.61585574  1
  In  In64  1  0.50023219  0.66304425  0.12945610  1
  In  In65  1  0.52922435  0.68661360  0.59085963  1
  In  In66  1  0.84236509  0.01385892  0.12218699  1
  In  In67  1  0.83578423  0.00061460  0.61976174  1
  In  In68  1  0.82785388  0.33084931  0.12444168  1
  In  In69  1  0.83203347  0.31997973  0.62389988  1
  In  In70  1  0.83908385  0.66309148  0.12917579  1
  In  In71  1  0.82283952  0.67375309  0.63826891  1
  In  In72  1  0.00776108  0.33619010  0.23622012  1
  In  In73  1  0.33128302  0.33493679  0.75256795  1
  In  In74  1  0.66687096  -0.00309501  0.74282422  1
  In  In75  1  0.33345867  -0.00503809  0.74432173  1
  In  In76  1  -0.00575518  0.33459447  0.75990205  1
  In  In77  1  0.66601926  -0.00065077  0.25761086  1
  In  In78  1  0.33434177  0.66740178  0.75210415  1
  In  In79  1  0.17595523  0.16060051  0.49186401  1
  In  In80  1  0.66607160  0.33308063  0.74692776  1
  In  In81  1  0.83158236  0.50453416  0.49981894  1
  In  In82  1  0.49571787  0.17517976  0.00095711  1
  In  In83  1  0.16937996  0.83303324  0.49230838  1
  In  In84  1  0.83794404  0.83808436  -0.00079678  1
  In  In85  1  0.17098814  0.50252861  0.49666060  1
  Cu  Cu86  1  0.50269092  0.51394950  0.75164417  1
  Cu  Cu87  1  0.00333396  -0.00535439  0.00388779  1
  Cu  Cu88  1  0.66669403  0.33824531  0.00288842  1
  Cu  Cu89  1  0.82434989  0.84527809  0.25516718  1
  Cu  Cu90  1  0.66619838  0.33139393  0.49602358  1
  Cu  Cu91  1  0.83545411  0.17104056  0.25071183  1
  Cu  Cu92  1  0.34106203  0.66271326  0.49047003  1
  Cu  Cu93  1  0.33122364  -0.00675248  0.00394297  1
  Cu  Cu94  1  0.33490666  0.66924762  0.01007557  1
  Cu  Cu95  1  0.50060132  0.50015407  0.24926902  1
  Cu  Cu96  1  0.16723426  0.49602419  0.23904140  1
  Cu  Cu97  1  0.83379994  0.82773949  0.75124603  1
  Cu  Cu98  1  0.50510007  0.16194292  0.25073212  1
  Cu  Cu99  1  0.83232190  0.49564462  0.75849230  1
  Cu  Cu100  1  0.15256962  0.16593302  0.75673820  1
  Cu  Cu101  1  0.17770601  0.16897423  0.24361167  1
  Cu  Cu102  1  0.33747200  0.00240006  0.48848747  1
  Cu  Cu103  1  0.34636254  0.33300366  0.48763944  1
  Cu  Cu104  1  0.66365123  0.66528722  -0.00026916  1
  Cu  Cu105  1  0.00288818  0.66963056  0.00847041  1
  Cu  Cu106  1  -0.00209391  -0.00177942  0.49870927  1
  Cu  Cu107  1  -0.00557864  0.32589859  0.00734715  1
  Cu  Cu108  1  0.83189799  0.50990788  0.24947067  1
  Cu  Cu109  1  -0.00339617  0.67772913  0.49580313  1
  Cu  Cu110  1  0.66480847  0.00123643  0.00547021  1
  Cu  Cu111  1  -0.00401640  0.32851434  0.50234509  1
  Cu  Cu112  1  0.15867906  0.51099532  0.76255161  1
  Cu  Cu113  1  0.50172839  0.82326923  0.25246273  1
  Cu  Cu114  1  0.16261804  0.83500759  0.76068754  1
  Se  Se115  1  0.08650055  0.07959036  0.05668785  1
  Se  Se116  1  0.08335460  0.07643036  0.55706828  1
  Se  Se117  1  0.08003255  0.41306711  0.05382866  1
  Se  Se118  1  0.07778687  0.41033508  0.55815210  1
  Se  Se119  1  0.08497455  0.75129910  0.06392872  1
  Se  Se120  1  0.08063470  0.74970951  0.55983576  1
  Se  Se121  1  0.41608895  0.07497271  0.06034527  1
  Se  Se122  1  0.41749186  0.08395087  0.54698337  1
  Se  Se123  1  0.41453867  0.41340604  0.05210438  1
  Se  Se124  1  0.41806389  0.41801492  0.54825450  1
  Se  Se125  1  0.41994318  0.75257729  0.06215577  1
  Se  Se126  1  0.41445704  0.75569489  0.54303914  1
  Se  Se127  1  0.75197338  0.08519818  0.05190610  1
  Se  Se128  1  0.76106243  0.08858743  0.55182082  1
  Se  Se129  1  0.75011761  0.42009815  0.05712330  1
  Se  Se130  1  0.74380149  0.41036020  0.56124506  1
  Se  Se131  1  0.74555062  0.74795310  0.05771402  1
  Se  Se132  1  0.75843907  0.73365082  0.55212540  1
  Se  Se133  1  0.25638412  0.23882367  0.04450608  1
  Se  Se134  1  0.26302320  0.25927901  0.55194952  1
  Se  Se135  1  0.25008866  0.58537556  0.06067994  1
  Se  Se136  1  0.26043644  0.59379408  0.55859494  1
  Se  Se137  1  0.25128178  0.91293084  0.06158272  1
  Se  Se138  1  0.25934047  0.92635142  0.55459717  1
  Se  Se139  1  0.58718176  0.25800702  0.06462136  1
  Se  Se140  1  0.58430051  0.24785509  0.55214778  1
  Se  Se141  1  0.58178860  0.58327037  0.05645540  1
  Se  Se142  1  0.57016294  0.56024430  0.54594019  1
  Se  Se143  1  0.58110805  0.91164958  0.04884663  1
  Se  Se144  1  0.60382017  0.92410636  0.54174460  1
  Se  Se145  1  0.91203734  0.24309777  0.06059401  1
  Se  Se146  1  0.91470618  0.24301741  0.55281144  1
  Se  Se147  1  0.91207653  0.58537084  0.05219932  1
  Se  Se148  1  0.92874079  0.58920331  0.55798372  1
  Se  Se149  1  0.92817632  0.91318039  0.06718865  1
  Se  Se150  1  0.92124183  0.91194808  0.55448424  1
  Se  Se151  1  0.07958526  0.25619026  0.43960223  1
  Se  Se152  1  0.07794708  0.24290760  0.95270737  1
  Se  Se153  1  0.08306686  0.59936143  0.43839123  1
  Se  Se154  1  0.08441463  0.58279510  0.95530028  1
  Se  Se155  1  0.07930759  0.92433249  0.43382667  1
  Se  Se156  1  0.08468515  0.90809954  0.95159713  1
  Se  Se157  1  0.42409026  0.24213147  0.43863491  1
  Se  Se158  1  0.40796996  0.25911217  0.93511442  1
  Se  Se159  1  0.41996337  0.57327432  0.44156509  1
  Se  Se160  1  0.41913444  0.59025145  0.95189763  1
  Se  Se161  1  0.41478882  0.91126059  0.43838383  1
  Se  Se162  1  0.41900668  0.91813186  0.94773939  1
  Se  Se163  1  0.75424292  0.25071492  0.44596408  1
  Se  Se164  1  0.74514579  0.24922040  0.95044075  1
  Se  Se165  1  0.74271555  0.58783375  0.43676543  1
  Se  Se166  1  0.75026231  0.58366651  0.94779099  1
  Se  Se167  1  0.73018560  0.92912215  0.45769278  1
  Se  Se168  1  0.74216119  0.92435646  0.93900857  1
  Se  Se169  1  0.25279831  0.07025523  0.42403353  1
  Se  Se170  1  0.24838831  0.07888952  0.95193707  1
  Se  Se171  1  0.25619592  0.41188514  0.43383412  1
  Se  Se172  1  0.24616438  0.42033838  0.95896413  1
  Se  Se173  1  0.25603612  0.74064009  0.43233310  1
  Se  Se174  1  0.25065126  0.75294073  0.95692527  1
  Se  Se175  1  0.58275703  0.08100377  0.44825442  1
  Se  Se176  1  0.58520045  0.07964744  0.94094481  1
  Se  Se177  1  0.58483241  0.41227400  0.44011620  1
  Se  Se178  1  0.57917481  0.41939842  0.95157122  1
  Se  Se179  1  0.57079223  0.74840712  0.45083060  1
  Se  Se180  1  0.58376282  0.75289047  0.94752658  1
  Se  Se181  1  0.91716871  0.08639803  0.44818446  1
  Se  Se182  1  0.91558256  0.07581367  0.95061771  1
  Se  Se183  1  0.92451725  0.41250202  0.43942393  1
  Se  Se184  1  0.91435244  0.41339601  0.95353243  1
  Se  Se185  1  0.91049064  0.75757995  0.44425537  1
  Se  Se186  1  0.92220792  0.74173088  0.94118656  1
  Se  Se187  1  0.26056595  0.25413247  0.29484818  1
  Se  Se188  1  0.23758751  0.24489409  0.81222515  1
  Se  Se189  1  0.24719792  0.57996975  0.29600780  1
  Se  Se190  1  0.24975408  0.58149568  0.81976011  1
  Se  Se191  1  0.23666689  0.88812080  0.28931993  1
  Se  Se192  1  0.24796239  0.91532297  0.81594374  1
  Se  Se193  1  0.59096207  0.24522920  0.30123770  1
  Se  Se194  1  0.56880817  0.24202527  0.80223526  1
  Se  Se195  1  0.58584379  0.58196072  0.30219198  1
  Se  Se196  1  0.58462717  0.59376573  0.80726876  1
  Se  Se197  1  0.58249408  0.90243094  0.31402354  1
  Se  Se198  1  0.57606371  0.91120923  0.80649166  1
  Se  Se199  1  0.91966438  0.25459804  0.30772105  1
  Se  Se200  1  0.90267782  0.23820573  0.80929820  1
  Se  Se201  1  0.91658029  0.59538924  0.29872983  1
  Se  Se202  1  0.91885916  0.57834158  0.80922957  1
  Se  Se203  1  0.90537837  0.92790529  0.31056846  1
  Se  Se204  1  0.91523434  0.91200719  0.80415807  1
  Se  Se205  1  0.08884167  0.09295561  0.29791605  1
  Se  Se206  1  0.07422150  0.07914771  0.80914725  1
  Se  Se207  1  0.08655083  0.42728102  0.30864868  1
  Se  Se208  1  0.08899805  0.41944305  0.82007042  1
  Se  Se209  1  0.06985433  0.75406102  0.29423765  1
  Se  Se210  1  0.08437950  0.74478562  0.81102239  1
  Se  Se211  1  0.42229184  0.07340244  0.29959688  1
  Se  Se212  1  0.42006620  0.09384600  0.80176163  1
  Se  Se213  1  0.41883971  0.40980754  0.29959273  1
  Se  Se214  1  0.42038440  0.43178309  0.80933150  1
  Se  Se215  1  0.41765770  0.73776371  0.30344790  1
  Se  Se216  1  0.42242092  0.76371775  0.80654523  1
  Se  Se217  1  0.75655325  0.09212611  0.31377763  1
  Se  Se218  1  0.74901196  0.08637608  0.81029579  1
  Se  Se219  1  0.75132301  0.41781448  0.29592249  1
  Se  Se220  1  0.74967896  0.41781586  0.81672545  1
  Se  Se221  1  0.74224764  0.75949599  0.30800685  1
  Se  Se222  1  0.74744088  0.74625002  0.80207465  1
  Se  Se223  1  0.25764285  0.07743291  0.19557026  1
  Se  Se224  1  0.23568866  0.09243815  0.69224727  1
  Se  Se225  1  0.25342462  0.41270739  0.19046808  1
  Se  Se226  1  0.23662146  0.43343469  0.69766320  1
  Se  Se227  1  0.24169695  0.76301378  0.20486491  1
  Se  Se228  1  0.24033942  0.76215599  0.69277733  1
  Se  Se229  1  0.58231189  0.08366403  0.18631286  1
  Se  Se230  1  0.57227198  0.08687587  0.68651548  1
  Se  Se231  1  0.58502820  0.41633616  0.19674475  1
  Se  Se232  1  0.57509147  0.42751727  0.69070545  1
  Se  Se233  1  0.58791286  0.74493990  0.19822415  1
  Se  Se234  1  0.58421978  0.74698830  0.68128704  1
  Se  Se235  1  0.91846109  0.08541152  0.20095253  1
  Se  Se236  1  0.91765856  0.06573741  0.69882027  1
  Se  Se237  1  0.91253342  0.43084135  0.18687035  1
  Se  Se238  1  0.90743596  0.42189435  0.69050298  1
  Se  Se239  1  0.90217400  0.75923631  0.19928353  1
  Se  Se240  1  0.92246611  0.74382809  0.70117126  1
  Se  Se241  1  0.10162302  0.24943604  0.18009534  1
  Se  Se242  1  0.08163374  0.24832396  0.69025344  1
  Se  Se243  1  0.08305603  0.58572178  0.19478508  1
  Se  Se244  1  0.07721648  0.59266567  0.70719195  1
  Se  Se245  1  0.06197314  0.94200050  0.19847062  1
  Se  Se246  1  0.08042249  0.91875756  0.70581306  1
  Se  Se247  1  0.42093538  0.24266161  0.19513419  1
  Se  Se248  1  0.41870241  0.24859565  0.68860632  1
  Se  Se249  1  0.41394813  0.58303816  0.19831281  1
  Se  Se250  1  0.42277512  0.58618658  0.68674532  1
  Se  Se251  1  0.42041266  0.91190866  0.20209603  1
  Se  Se252  1  0.43054612  0.91246022  0.68473112  1
  Se  Se253  1  0.74988022  0.25397448  0.20091179  1
  Se  Se254  1  0.75480077  0.23452580  0.69584134  1
  Se  Se255  1  0.74584575  0.58989094  0.19601665  1
  Se  Se256  1  0.74921439  0.57810285  0.70304587  1
  Se  Se257  1  0.75256252  0.91954319  0.18551619  1
  Se  Se258  1  0.75422020  0.90238536  0.68629889  1
