# generated using pymatgen
data_In86Cu29Se144
_symmetry_space_group_name_H-M   'P 1'
_cell_length_a   17.57376343
_cell_length_b   17.57575542
_cell_length_c   23.43900443
_cell_angle_alpha   89.97999076
_cell_angle_beta   89.99880377
_cell_angle_gamma   89.98437551
_symmetry_Int_Tables_number   1
_chemical_formula_structural   In86Cu29Se144
_chemical_formula_sum   'In86 Cu29 Se144'
_cell_volume   7239.65539643
_cell_formula_units_Z   1
loop_
 _symmetry_equiv_pos_site_id
 _symmetry_equiv_pos_as_xyz
  1  'x, y, z'
loop_
 _atom_site_type_symbol
 _atom_site_label
 _atom_site_symmetry_multiplicity
 _atom_site_fract_x
 _atom_site_fract_y
 _atom_site_fract_z
 _atom_site_occupancy
  In  In0  1  -0.00108041  0.17225009  0.13251197  1
  In  In1  1  0.00642113  0.15416212  0.62800768  1
  In  In2  1  -0.00825020  0.49115843  0.11533986  1
  In  In3  1  0.01479309  0.50911568  0.62455529  1
  In  In4  1  0.01675632  0.83037455  0.12293403  1
  In  In5  1  0.01136743  0.82667763  0.63601592  1
  In  In6  1  0.32786604  0.15046799  0.12693195  1
  In  In7  1  0.33236555  0.16882706  0.62646176  1
  In  In8  1  0.34621927  0.51590424  0.12035984  1
  In  In9  1  0.31767045  0.50234516  0.62550866  1
  In  In10  1  0.33013715  0.83619373  0.12345628  1
  In  In11  1  0.32942681  0.83868796  0.62029563  1
  In  In12  1  0.67371342  0.17725821  0.11411018  1
  In  In13  1  0.66841184  0.16206477  0.63936371  1
  In  In14  1  0.65309575  0.48449020  0.11410239  1
  In  In15  1  0.66849315  0.50096813  0.63752567  1
  In  In16  1  0.65976782  0.84366859  0.11683178  1
  In  In17  1  0.66470042  0.83707151  0.64229619  1
  In  In18  1  0.16903999  0.00338014  0.37906902  1
  In  In19  1  0.15935322  -0.00811715  0.86691931  1
  In  In20  1  0.16165873  0.34589528  0.37783564  1
  In  In21  1  0.18242432  0.33123105  0.87578260  1
  In  In22  1  0.17851197  0.65481057  0.39671316  1
  In  In23  1  0.15929493  0.67092040  0.87950493  1
  In  In24  1  0.49894463  0.00987059  0.37324358  1
  In  In25  1  0.49433920  -0.00013254  0.87591894  1
  In  In26  1  0.49943234  0.32562229  0.36293794  1
  In  In27  1  0.50003425  0.33197110  0.87900014  1
  In  In28  1  0.49297646  0.68070981  0.37181120  1
  In  In29  1  0.50753241  0.65720088  0.88333498  1
  In  In30  1  0.84456773  -0.00784410  0.37938651  1
  In  In31  1  0.84151433  0.00429852  0.86808437  1
  In  In32  1  0.83185552  0.32599262  0.36420853  1
  In  In33  1  0.82072867  0.34136170  0.88294379  1
  In  In34  1  0.83725851  0.67006943  0.37551368  1
  In  In35  1  0.82641774  0.66177930  0.86423590  1
  In  In36  1  0.01899708  0.18008266  0.36034246  1
  In  In37  1  -0.00140482  0.15045756  0.87474328  1
  In  In38  1  0.01354239  0.50375137  0.37303577  1
  In  In39  1  -0.00847190  0.50385410  0.88120296  1
  In  In40  1  0.00816987  0.84693372  0.37481569  1
  In  In41  1  0.00575865  0.84288179  0.86488295  1
  In  In42  1  0.32964287  0.15126584  0.36671484  1
  In  In43  1  0.34068432  0.17291543  0.87050388  1
  In  In44  1  0.32343876  0.49877949  0.37212771  1
  In  In45  1  0.34415496  0.49292323  0.88518969  1
  In  In46  1  0.32131613  0.83005726  0.37192594  1
  In  In47  1  0.32061907  0.84054224  0.87827294  1
  In  In48  1  0.65658619  0.17105653  0.37318564  1
  In  In49  1  0.66241239  0.16751344  0.87755377  1
  In  In50  1  0.67991033  0.49867407  0.37167931  1
  In  In51  1  0.66633333  0.49897443  0.87643949  1
  In  In52  1  0.67773721  0.83453030  0.37795390  1
  In  In53  1  0.66182612  0.82357482  0.86556979  1
  In  In54  1  0.17666124  -0.00192814  0.13510234  1
  In  In55  1  0.17611689  -0.00310692  0.61767665  1
  In  In56  1  0.15108190  0.32990987  0.13050422  1
  In  In57  1  0.17687074  0.34383355  0.61970483  1
  In  In58  1  0.17617203  0.67625533  0.11774671  1
  In  In59  1  0.15898459  0.66250272  0.61201821  1
  In  In60  1  0.48921556  -0.00807520  0.11355833  1
  In  In61  1  0.49754591  -0.00039029  0.63460055  1
  In  In62  1  0.51197931  0.34513455  0.11889966  1
  In  In63  1  0.50034811  0.33205259  0.63586812  1
  In  In64  1  0.48547591  0.65834269  0.11520717  1
  In  In65  1  0.50175680  0.67467486  0.62970001  1
  In  In66  1  0.83237631  0.01052521  0.11997872  1
  In  In67  1  0.83409143  -0.00631306  0.64290764  1
  In  In68  1  0.83295939  0.32892544  0.12136876  1
  In  In69  1  0.82823753  0.32645577  0.63059003  1
  In  In70  1  0.84606747  0.65834060  0.11997097  1
  In  In71  1  0.83628342  0.67391242  0.64267438  1
  In  In72  1  -0.00138718  0.33702964  0.74818920  1
  In  In73  1  0.84572772  0.49931983  0.51055172  1
  In  In74  1  0.66659616  0.00572034  0.25175215  1
  In  In75  1  0.33491900  0.66409202  0.75093360  1
  In  In76  1  0.49213262  0.83491379  0.50918494  1
  In  In77  1  0.83147149  0.83068133  -0.01471813  1
  In  In78  1  0.49212885  0.49786219  0.49163146  1
  In  In79  1  0.49255903  0.15977216  0.49768018  1
  In  In80  1  0.65016095  0.65385619  0.23334551  1
  In  In81  1  0.00714236  0.66700692  0.25326232  1
  In  In82  1  0.33370919  0.33722769  0.24519849  1
  In  In83  1  0.83857586  0.16098798  0.51322560  1
  In  In84  1  0.16424934  0.16469828  0.00444366  1
  In  In85  1  0.84291382  0.83394029  0.50429725  1
  Cu  Cu86  1  0.16557482  0.50600607  0.25052985  1
  Cu  Cu87  1  0.65739357  0.00546687  -0.00410114  1
  Cu  Cu88  1  0.67130687  0.66582081  -0.00750418  1
  Cu  Cu89  1  0.66568599  0.33197869  -0.00310172  1
  Cu  Cu90  1  0.00817870  0.00373054  0.50144466  1
  Cu  Cu91  1  0.49668987  0.16592911  0.75656659  1
  Cu  Cu92  1  0.00521075  0.66030849  -0.00238273  1
  Cu  Cu93  1  0.66640458  0.66720133  0.50890269  1
  Cu  Cu94  1  0.33118163  0.67125038  -0.00229560  1
  Cu  Cu95  1  0.83198183  0.50465748  0.75818106  1
  Cu  Cu96  1  0.82775601  0.17241482  0.75468191  1
  Cu  Cu97  1  0.32655410  0.33140110  0.49974638  1
  Cu  Cu98  1  -0.00083053  -0.00473335  -0.00490582  1
  Cu  Cu99  1  -0.00346378  0.32762109  0.00297630  1
  Cu  Cu100  1  0.50600865  0.16809737  0.24311212  1
  Cu  Cu101  1  0.33519874  0.33653686  0.00133291  1
  Cu  Cu102  1  0.48563838  0.84055773  0.24678347  1
  Cu  Cu103  1  0.17105965  0.16085131  0.74963729  1
  Cu  Cu104  1  0.16942356  0.83840950  0.74858934  1
  Cu  Cu105  1  0.66233381  0.32446630  0.50112716  1
  Cu  Cu106  1  0.83398983  0.48547792  0.24336362  1
  Cu  Cu107  1  0.49836475  0.83142330  0.75334484  1
  Cu  Cu108  1  0.83851423  0.16556647  0.24401605  1
  Cu  Cu109  1  0.83001178  0.83036613  0.25488311  1
  Cu  Cu110  1  0.50279990  0.49443405  0.76010991  1
  Cu  Cu111  1  0.17201391  0.83755566  0.25030259  1
  Cu  Cu112  1  0.32784661  -0.00110618  -0.00095641  1
  Cu  Cu113  1  0.00786232  0.33602045  0.49421712  1
  Cu  Cu114  1  0.16923209  0.50051825  0.74819295  1
  Se  Se115  1  0.07560064  0.07202148  0.06169307  1
  Se  Se116  1  0.09121743  0.08863325  0.55331589  1
  Se  Se117  1  0.08427374  0.41062470  0.05205615  1
  Se  Se118  1  0.08407712  0.41967116  0.55354458  1
  Se  Se119  1  0.08561346  0.74957319  0.04742964  1
  Se  Se120  1  0.08293181  0.76141773  0.55433214  1
  Se  Se121  1  0.41088962  0.08545541  0.04928634  1
  Se  Se122  1  0.40770697  0.06883872  0.55826279  1
  Se  Se123  1  0.41903029  0.42160733  0.05345207  1
  Se  Se124  1  0.41231231  0.40732624  0.55925119  1
  Se  Se125  1  0.41386648  0.75652358  0.05183043  1
  Se  Se126  1  0.40393043  0.73202983  0.55756129  1
  Se  Se127  1  0.74758595  0.08215234  0.04838816  1
  Se  Se128  1  0.74414208  0.07243749  0.56736726  1
  Se  Se129  1  0.75216951  0.41350795  0.05136822  1
  Se  Se130  1  0.74017993  0.40926413  0.55889859  1
  Se  Se131  1  0.74829857  0.74493035  0.05808446  1
  Se  Se132  1  0.74558583  0.74956967  0.56586346  1
  Se  Se133  1  0.25516057  0.25730029  0.06291979  1
  Se  Se134  1  0.24824913  0.24671714  0.55481495  1
  Se  Se135  1  0.25077860  0.58350358  0.05142980  1
  Se  Se136  1  0.24811147  0.57867322  0.54979337  1
  Se  Se137  1  0.24362489  0.91943602  0.05557630  1
  Se  Se138  1  0.24433165  0.90464632  0.54631597  1
  Se  Se139  1  0.57846478  0.25017918  0.04920983  1
  Se  Se140  1  0.58446737  0.24669020  0.56225050  1
  Se  Se141  1  0.58796332  0.58964453  0.05305065  1
  Se  Se142  1  0.58480666  0.58055041  0.56007631  1
  Se  Se143  1  0.57673055  0.91514110  0.04404230  1
  Se  Se144  1  0.58980950  0.92049046  0.56408261  1
  Se  Se145  1  0.91701793  0.24080913  0.05553862  1
  Se  Se146  1  0.93077313  0.26274013  0.56214217  1
  Se  Se147  1  0.91546497  0.57801669  0.04446687  1
  Se  Se148  1  0.92337580  0.60275406  0.56439069  1
  Se  Se149  1  0.91805208  0.91330579  0.05633177  1
  Se  Se150  1  0.92490063  0.92933659  0.56445460  1
  Se  Se151  1  0.08836595  0.24868097  0.44331256  1
  Se  Se152  1  0.07715584  0.25303319  0.93806507  1
  Se  Se153  1  0.07241777  0.58456857  0.45113430  1
  Se  Se154  1  0.08909309  0.57477616  0.94634503  1
  Se  Se155  1  0.08890830  0.91661561  0.45046777  1
  Se  Se156  1  0.08458031  0.91381090  0.94336476  1
  Se  Se157  1  0.40933120  0.25693479  0.43704298  1
  Se  Se158  1  0.41383846  0.24947899  0.94756770  1
  Se  Se159  1  0.40572169  0.59593293  0.43928084  1
  Se  Se160  1  0.41901158  0.58342293  0.95262124  1
  Se  Se161  1  0.41497341  0.92061028  0.43754483  1
  Se  Se162  1  0.41183320  0.91568343  0.94561085  1
  Se  Se163  1  0.75008892  0.24935393  0.44461006  1
  Se  Se164  1  0.75014704  0.24486447  0.94814363  1
  Se  Se165  1  0.74898010  0.58969840  0.44869014  1
  Se  Se166  1  0.75587552  0.58264411  0.94166127  1
  Se  Se167  1  0.74482017  0.92679823  0.45015644  1
  Se  Se168  1  0.73905524  0.92625768  0.93463462  1
  Se  Se169  1  0.25585150  0.08558336  0.44577705  1
  Se  Se170  1  0.24902304  0.07983823  0.93698930  1
  Se  Se171  1  0.24866605  0.42191695  0.44817165  1
  Se  Se172  1  0.24828712  0.41766391  0.95018019  1
  Se  Se173  1  0.24376994  0.76387481  0.45149931  1
  Se  Se174  1  0.24447080  0.75280705  0.94692300  1
  Se  Se175  1  0.59706870  0.07311421  0.44608847  1
  Se  Se176  1  0.57238621  0.08871790  0.94475495  1
  Se  Se177  1  0.59000854  0.40555351  0.43770539  1
  Se  Se178  1  0.58215464  0.41881567  0.94612053  1
  Se  Se179  1  0.59134500  0.74700455  0.44575089  1
  Se  Se180  1  0.58635075  0.75293769  0.94538234  1
  Se  Se181  1  0.92684574  0.08530121  0.44274311  1
  Se  Se182  1  0.91291393  0.08096107  0.94830266  1
  Se  Se183  1  0.91804739  0.40880518  0.43753820  1
  Se  Se184  1  0.91593318  0.41358135  0.94837686  1
  Se  Se185  1  0.92993256  0.74456893  0.44162498  1
  Se  Se186  1  0.92783946  0.74057658  0.93345698  1
  Se  Se187  1  0.24704972  0.25378254  0.31067637  1
  Se  Se188  1  0.25173273  0.24905685  0.80072609  1
  Se  Se189  1  0.24222794  0.58948809  0.30817337  1
  Se  Se190  1  0.24846624  0.57576842  0.81422574  1
  Se  Se191  1  0.25143684  0.92458375  0.30440962  1
  Se  Se192  1  0.25524570  0.92131560  0.79944740  1
  Se  Se193  1  0.59003353  0.25119776  0.29497169  1
  Se  Se194  1  0.58115796  0.25120829  0.80723557  1
  Se  Se195  1  0.57726181  0.57885795  0.31397430  1
  Se  Se196  1  0.58530736  0.58467824  0.80643714  1
  Se  Se197  1  0.57778311  0.90642833  0.30854036  1
  Se  Se198  1  0.57859875  0.91787385  0.80608649  1
  Se  Se199  1  0.92111788  0.25193265  0.29663130  1
  Se  Se200  1  0.91291317  0.24997897  0.81378170  1
  Se  Se201  1  0.90677724  0.57274463  0.30459543  1
  Se  Se202  1  0.92578185  0.58449364  0.80278911  1
  Se  Se203  1  0.91625023  0.91420956  0.30302074  1
  Se  Se204  1  0.91651420  0.91821523  0.79899172  1
  Se  Se205  1  0.06262122  0.05761288  0.31239813  1
  Se  Se206  1  0.08085262  0.08146417  0.79943264  1
  Se  Se207  1  0.08254703  0.41816425  0.29966562  1
  Se  Se208  1  0.09039426  0.42088766  0.81086768  1
  Se  Se209  1  0.09662440  0.75461801  0.31300117  1
  Se  Se210  1  0.08998968  0.75156938  0.80241739  1
  Se  Se211  1  0.42355003  0.08438716  0.29663048  1
  Se  Se212  1  0.41072220  0.07831063  0.80319886  1
  Se  Se213  1  0.42402633  0.42929072  0.30450399  1
  Se  Se214  1  0.41389097  0.41277946  0.80833139  1
  Se  Se215  1  0.40835077  0.75283775  0.30056542  1
  Se  Se216  1  0.42013225  0.75129941  0.81567303  1
  Se  Se217  1  0.76202886  0.09126637  0.31288338  1
  Se  Se218  1  0.74728583  0.08659886  0.80753886  1
  Se  Se219  1  0.74574200  0.41040621  0.29913275  1
  Se  Se220  1  0.74821799  0.41628659  0.80488276  1
  Se  Se221  1  0.74522374  0.74264097  0.30177287  1
  Se  Se222  1  0.76117497  0.76048417  0.79971515  1
  Se  Se223  1  0.23935177  0.09582331  0.20315335  1
  Se  Se224  1  0.25271625  0.07960086  0.69249214  1
  Se  Se225  1  0.24399933  0.42892958  0.18571260  1
  Se  Se226  1  0.25340214  0.41372317  0.69966206  1
  Se  Se227  1  0.25040777  0.75136469  0.19467392  1
  Se  Se228  1  0.24483050  0.75061360  0.68972933  1
  Se  Se229  1  0.58164140  0.08448513  0.18144219  1
  Se  Se230  1  0.58003876  0.08101276  0.70343468  1
  Se  Se231  1  0.58166696  0.42176008  0.19696446  1
  Se  Se232  1  0.58595747  0.41381696  0.70201450  1
  Se  Se233  1  0.57005647  0.76391786  0.18617878  1
  Se  Se234  1  0.58273795  0.74423421  0.70438335  1
  Se  Se235  1  0.91774599  0.07613267  0.19437476  1
  Se  Se236  1  0.91388299  0.09299185  0.70028237  1
  Se  Se237  1  0.92222411  0.40811705  0.19065153  1
  Se  Se238  1  0.90900310  0.43099252  0.68872629  1
  Se  Se239  1  0.91176467  0.75508912  0.19215378  1
  Se  Se240  1  0.91090633  0.76858203  0.70397090  1
  Se  Se241  1  0.09459777  0.23548380  0.20187042  1
  Se  Se242  1  0.09277962  0.24773570  0.69126568  1
  Se  Se243  1  0.08599930  0.58010361  0.18375508  1
  Se  Se244  1  0.09132007  0.58994883  0.69679313  1
  Se  Se245  1  0.08290000  0.91517109  0.19711422  1
  Se  Se246  1  0.09067778  0.92512090  0.69333413  1
  Se  Se247  1  0.42269721  0.24676416  0.18389966  1
  Se  Se248  1  0.41453246  0.24731622  0.69861398  1
  Se  Se249  1  0.41875014  0.59013991  0.19791826  1
  Se  Se250  1  0.42576953  0.56998446  0.69204572  1
  Se  Se251  1  0.40822483  0.92702967  0.19240455  1
  Se  Se252  1  0.41414529  0.90739869  0.69512515  1
  Se  Se253  1  0.75051501  0.24672373  0.19285302  1
  Se  Se254  1  0.74370689  0.25712046  0.70365815  1
  Se  Se255  1  0.75744665  0.57121299  0.18441941  1
  Se  Se256  1  0.74757667  0.58780611  0.70372926  1
  Se  Se257  1  0.75392758  0.91029020  0.19160621  1
  Se  Se258  1  0.74108760  0.92390580  0.70871193  1
