# generated using pymatgen
data_In86Cu29Se144
_symmetry_space_group_name_H-M   'P 1'
_cell_length_a   17.59366007
_cell_length_b   17.59765849
_cell_length_c   23.46122159
_cell_angle_alpha   90.02193222
_cell_angle_beta   89.97882395
_cell_angle_gamma   90.01700348
_symmetry_Int_Tables_number   1
_chemical_formula_structural   In86Cu29Se144
_chemical_formula_sum   'In86 Cu29 Se144'
_cell_volume   7263.76228313
_cell_formula_units_Z   1
loop_
 _symmetry_equiv_pos_site_id
 _symmetry_equiv_pos_as_xyz
  1  'x, y, z'
loop_
 _atom_site_type_symbol
 _atom_site_label
 _atom_site_symmetry_multiplicity
 _atom_site_fract_x
 _atom_site_fract_y
 _atom_site_fract_z
 _atom_site_occupancy
  In  In0  1  -0.00899002  0.16671675  0.13654735  1
  In  In1  1  0.01197858  0.15575915  0.63149819  1
  In  In2  1  -0.00299422  0.49363707  0.11995977  1
  In  In3  1  -0.00215795  0.50136388  0.62858006  1
  In  In4  1  0.01120683  0.83924271  0.12937074  1
  In  In5  1  0.01172356  0.83959752  0.61419798  1
  In  In6  1  0.33795935  0.15651411  0.12603760  1
  In  In7  1  0.31773440  0.17495218  0.63129466  1
  In  In8  1  0.30985541  0.51779960  0.14315553  1
  In  In9  1  0.33789210  0.48465807  0.63262730  1
  In  In10  1  0.30636722  0.85282951  0.14609710  1
  In  In11  1  0.32445198  0.84562945  0.62990071  1
  In  In12  1  0.65792792  0.15805608  0.11734237  1
  In  In13  1  0.65856497  0.15920302  0.62706833  1
  In  In14  1  0.67471839  0.48289815  0.12663101  1
  In  In15  1  0.66916463  0.50753664  0.61744127  1
  In  In16  1  0.67002274  0.84972217  0.12774809  1
  In  In17  1  0.67961183  0.83203586  0.62293802  1
  In  In18  1  0.16717486  0.00173055  0.37497325  1
  In  In19  1  0.16352435  -0.00595318  0.87575973  1
  In  In20  1  0.15871577  0.33078403  0.36568998  1
  In  In21  1  0.17188810  0.34148467  0.86631332  1
  In  In22  1  0.18343032  0.66051640  0.37193565  1
  In  In23  1  0.17323551  0.65798296  0.88264622  1
  In  In24  1  0.49753987  0.00085270  0.36929513  1
  In  In25  1  0.50444302  0.00545060  0.87187036  1
  In  In26  1  0.49524181  0.34660000  0.38100542  1
  In  In27  1  0.48249459  0.33170274  0.87505965  1
  In  In28  1  0.48505360  0.66423083  0.37552654  1
  In  In29  1  0.48884406  0.67560434  0.87262749  1
  In  In30  1  0.83882306  -0.00566331  0.35708386  1
  In  In31  1  0.84458050  0.00881949  0.87082513  1
  In  In32  1  0.84739343  0.33351626  0.37334784  1
  In  In33  1  0.84479224  0.32423466  0.88253989  1
  In  In34  1  0.83645327  0.66767681  0.38100554  1
  In  In35  1  0.82627419  0.66192091  0.87765044  1
  In  In36  1  0.00092929  0.17981719  0.36309528  1
  In  In37  1  -0.00178685  0.16236965  0.87371309  1
  In  In38  1  0.00505207  0.48294824  0.37293380  1
  In  In39  1  0.01502513  0.48473318  0.88262439  1
  In  In40  1  -0.00253935  0.84351345  0.37599685  1
  In  In41  1  0.00311146  0.84995095  0.87597295  1
  In  In42  1  0.32376570  0.15689809  0.37118068  1
  In  In43  1  0.33785172  0.16876739  0.87678111  1
  In  In44  1  0.32938174  0.50375791  0.36979588  1
  In  In45  1  0.31697821  0.49377882  0.86089414  1
  In  In46  1  0.32080839  0.82977743  0.36370601  1
  In  In47  1  0.32316679  0.82498162  0.86891162  1
  In  In48  1  0.67926513  0.15640837  0.36820380  1
  In  In49  1  0.67723014  0.16169859  0.88147306  1
  In  In50  1  0.66858665  0.50227231  0.38393906  1
  In  In51  1  0.67424037  0.50518810  0.87711736  1
  In  In52  1  0.67605006  0.84762175  0.37140625  1
  In  In53  1  0.65477790  0.83707616  0.87515876  1
  In  In54  1  0.16663122  -0.01025390  0.13672301  1
  In  In55  1  0.16402389  0.00121246  0.62375349  1
  In  In56  1  0.15652088  0.34278595  0.13523227  1
  In  In57  1  0.18125044  0.31852358  0.63403488  1
  In  In58  1  0.17300920  0.68062840  0.12099945  1
  In  In59  1  0.16186474  0.67645782  0.62392661  1
  In  In60  1  0.48439344  0.01342845  0.12714942  1
  In  In61  1  0.50015250  0.00158226  0.63234053  1
  In  In62  1  0.49186689  0.31725299  0.11756859  1
  In  In63  1  0.47477041  0.33603988  0.62139381  1
  In  In64  1  0.48746455  0.65587947  0.12336190  1
  In  In65  1  0.49537526  0.65472755  0.62145147  1
  In  In66  1  0.81729562  0.01147478  0.14601616  1
  In  In67  1  0.84602487  -0.00754442  0.63046180  1
  In  In68  1  0.84148297  0.33386382  0.12126956  1
  In  In69  1  0.83751729  0.34512970  0.62372967  1
  In  In70  1  0.84874397  0.66230610  0.12535347  1
  In  In71  1  0.83443184  0.66993332  0.61585553  1
  In  In72  1  0.00401825  0.66818044  0.74587539  1
  In  In73  1  0.00622082  0.67215764  0.24846788  1
  In  In74  1  0.66330941  0.67481395  0.25726541  1
  In  In75  1  0.84111339  0.83283815  0.00388384  1
  In  In76  1  0.66487036  0.33002439  0.74514022  1
  In  In77  1  0.49415827  0.49136735  -0.00479313  1
  In  In78  1  0.49491248  0.16879745  0.50206332  1
  In  In79  1  0.83846182  0.16928883  0.49267917  1
  In  In80  1  0.50175252  0.83331815  0.49111511  1
  In  In81  1  0.16709642  0.49911810  0.50024560  1
  In  In82  1  0.66131928  0.32524705  0.24833202  1
  In  In83  1  0.16994125  0.16344848  0.00205104  1
  In  In84  1  0.66112224  0.67051188  0.75067244  1
  In  In85  1  0.49389470  0.82960474  -0.00282691  1
  Cu  Cu86  1  0.49450702  0.83870460  0.75187479  1
  Cu  Cu87  1  0.00527515  0.66173123  0.00358375  1
  Cu  Cu88  1  0.50028586  0.16439535  0.24610976  1
  Cu  Cu89  1  0.00338511  0.00139300  0.49925166  1
  Cu  Cu90  1  0.67542784  0.65522834  0.00478814  1
  Cu  Cu91  1  -0.00078264  0.00362200  0.00174606  1
  Cu  Cu92  1  0.33399797  0.66553137  0.49702189  1
  Cu  Cu93  1  0.67378581  0.66819778  0.49830459  1
  Cu  Cu94  1  0.48712498  0.49725423  0.25004223  1
  Cu  Cu95  1  0.67557729  0.32792653  0.00173584  1
  Cu  Cu96  1  0.66621355  0.34251672  0.50193342  1
  Cu  Cu97  1  0.66962409  0.00318204  -0.00063494  1
  Cu  Cu98  1  0.67664164  -0.00223436  0.49681605  1
  Cu  Cu99  1  0.83595077  0.49675460  0.24718447  1
  Cu  Cu100  1  0.00373033  0.33319367  0.49675597  1
  Cu  Cu101  1  0.32086618  0.00198635  0.50080841  1
  Cu  Cu102  1  0.50198941  0.83295679  0.25175520  1
  Cu  Cu103  1  0.83550032  0.16403563  0.75629055  1
  Cu  Cu104  1  0.49100144  0.49682299  0.74654705  1
  Cu  Cu105  1  0.49840778  0.16355149  0.75090950  1
  Cu  Cu106  1  0.32815458  0.33576000  -0.00054594  1
  Cu  Cu107  1  -0.00213633  0.66908787  0.49899569  1
  Cu  Cu108  1  0.84080081  0.49745900  0.75095759  1
  Cu  Cu109  1  0.32494708  0.66862974  0.00096853  1
  Cu  Cu110  1  0.00264632  0.33090807  0.00433044  1
  Cu  Cu111  1  0.16345757  0.83943235  0.74677581  1
  Cu  Cu112  1  0.16819864  0.16797176  0.24762333  1
  Cu  Cu113  1  0.16599997  0.16145071  0.75501863  1
  Cu  Cu114  1  0.83447800  0.84522898  0.74682058  1
  Se  Se115  1  0.07928582  0.07968430  0.06531588  1
  Se  Se116  1  0.08561575  0.08614528  0.55178654  1
  Se  Se117  1  0.08826342  0.41544530  0.05354124  1
  Se  Se118  1  0.08118281  0.40850383  0.56276743  1
  Se  Se119  1  0.07950615  0.75440318  0.05437124  1
  Se  Se120  1  0.08781487  0.75063276  0.54636494  1
  Se  Se121  1  0.41804817  0.08851559  0.04836941  1
  Se  Se122  1  0.40793657  0.07560086  0.56129793  1
  Se  Se123  1  0.40353119  0.41774775  0.06374856  1
  Se  Se124  1  0.41392286  0.42565694  0.54932312  1
  Se  Se125  1  0.40426455  0.74760183  0.06166688  1
  Se  Se126  1  0.41207740  0.75034800  0.55719741  1
  Se  Se127  1  0.75571114  0.07711836  0.05786964  1
  Se  Se128  1  0.75086325  0.08118250  0.55829137  1
  Se  Se129  1  0.75673530  0.41549523  0.05154556  1
  Se  Se130  1  0.75461946  0.42197903  0.55329018  1
  Se  Se131  1  0.74473741  0.74434495  0.06380303  1
  Se  Se132  1  0.75514374  0.75638548  0.54762057  1
  Se  Se133  1  0.25214260  0.25702924  0.06391902  1
  Se  Se134  1  0.25171380  0.25105626  0.55260325  1
  Se  Se135  1  0.24596850  0.58211461  0.05589918  1
  Se  Se136  1  0.25566298  0.58879749  0.56148541  1
  Se  Se137  1  0.24668657  0.91926184  0.06029292  1
  Se  Se138  1  0.24278752  0.91334717  0.55339643  1
  Se  Se139  1  0.58362358  0.24819497  0.04866230  1
  Se  Se140  1  0.58901039  0.26051051  0.56163808  1
  Se  Se141  1  0.58866488  0.57769959  0.06004589  1
  Se  Se142  1  0.58529373  0.58869372  0.54943397  1
  Se  Se143  1  0.58390611  0.92346817  0.05521899  1
  Se  Se144  1  0.58918077  0.92318412  0.55597051  1
  Se  Se145  1  0.92206433  0.24385090  0.05627289  1
  Se  Se146  1  0.92512426  0.25276900  0.56004192  1
  Se  Se147  1  0.91587613  0.57946105  0.05067661  1
  Se  Se148  1  0.92162384  0.58251071  0.55529675  1
  Se  Se149  1  0.91851251  0.92764742  0.06598930  1
  Se  Se150  1  0.91685223  0.91830550  0.55117342  1
  Se  Se151  1  0.08121660  0.25001501  0.44026282  1
  Se  Se152  1  0.08362982  0.25513850  0.94038357  1
  Se  Se153  1  0.07680438  0.58816794  0.43756528  1
  Se  Se154  1  0.08702964  0.57827502  0.94952839  1
  Se  Se155  1  0.08677378  0.91746939  0.44595934  1
  Se  Se156  1  0.08366396  0.91859896  0.95235411  1
  Se  Se157  1  0.40663036  0.25290954  0.44014702  1
  Se  Se158  1  0.41467768  0.25077903  0.95159516  1
  Se  Se159  1  0.41315090  0.57720562  0.44573810  1
  Se  Se160  1  0.40604525  0.58840717  0.94020858  1
  Se  Se161  1  0.40563812  0.92527403  0.44064502  1
  Se  Se162  1  0.41037692  0.91785563  0.93444165  1
  Se  Se163  1  0.73952485  0.26030320  0.43908261  1
  Se  Se164  1  0.75934343  0.24356291  0.94982104  1
  Se  Se165  1  0.75802752  0.58104224  0.44898999  1
  Se  Se166  1  0.75882500  0.57449104  0.95122344  1
  Se  Se167  1  0.76282325  0.92436512  0.43946643  1
  Se  Se168  1  0.74765510  0.91825051  0.94048829  1
  Se  Se169  1  0.24216466  0.08897863  0.44830842  1
  Se  Se170  1  0.25787315  0.07363971  0.94274008  1
  Se  Se171  1  0.25001159  0.40934004  0.43719219  1
  Se  Se172  1  0.25002221  0.41823381  0.94193297  1
  Se  Se173  1  0.25366109  0.74990407  0.44328253  1
  Se  Se174  1  0.24489859  0.75535559  0.94766209  1
  Se  Se175  1  0.59075073  0.07892944  0.44289460  1
  Se  Se176  1  0.58433357  0.08335644  0.94526892  1
  Se  Se177  1  0.58015780  0.42371614  0.45049085  1
  Se  Se178  1  0.59336897  0.40396999  0.93776143  1
  Se  Se179  1  0.59478387  0.74262386  0.43259997  1
  Se  Se180  1  0.59333402  0.73343969  0.94495749  1
  Se  Se181  1  0.92508032  0.07764908  0.43409325  1
  Se  Se182  1  0.91658598  0.08597845  0.94808272  1
  Se  Se183  1  0.91725116  0.41757045  0.44812952  1
  Se  Se184  1  0.91926792  0.41544838  0.94958707  1
  Se  Se185  1  0.91871668  0.75556299  0.44485688  1
  Se  Se186  1  0.92764421  0.74207861  0.93927964  1
  Se  Se187  1  0.25103150  0.24895205  0.30306646  1
  Se  Se188  1  0.25146921  0.24521190  0.80693422  1
  Se  Se189  1  0.24186703  0.57202923  0.29743864  1
  Se  Se190  1  0.25808771  0.60288282  0.80343174  1
  Se  Se191  1  0.26319043  0.93746828  0.30500716  1
  Se  Se192  1  0.24803814  0.91859973  0.80317165  1
  Se  Se193  1  0.57241159  0.24110397  0.31517828  1
  Se  Se194  1  0.57819573  0.24538927  0.81145478  1
  Se  Se195  1  0.57582624  0.57254384  0.30791297  1
  Se  Se196  1  0.57195317  0.57344458  0.80910287  1
  Se  Se197  1  0.58371057  0.91764570  0.30389611  1
  Se  Se198  1  0.58394633  0.91837384  0.80173637  1
  Se  Se199  1  0.89792637  0.24189757  0.29894991  1
  Se  Se200  1  0.91913495  0.25046375  0.80480579  1
  Se  Se201  1  0.91384275  0.57839514  0.30789609  1
  Se  Se202  1  0.91601675  0.58082712  0.81119877  1
  Se  Se203  1  0.94358251  0.92965242  0.29448553  1
  Se  Se204  1  0.92145137  0.92156444  0.80147875  1
  Se  Se205  1  0.08684291  0.08770708  0.30514267  1
  Se  Se206  1  0.08166545  0.07818292  0.80751182  1
  Se  Se207  1  0.08048151  0.41545784  0.29596261  1
  Se  Se208  1  0.08075388  0.41718537  0.80026754  1
  Se  Se209  1  0.09283808  0.75499914  0.31408236  1
  Se  Se210  1  0.08768196  0.75808797  0.81068506  1
  Se  Se211  1  0.41580177  0.08395099  0.30241385  1
  Se  Se212  1  0.41409699  0.08270903  0.80534669  1
  Se  Se213  1  0.41108633  0.41117559  0.30500022  1
  Se  Se214  1  0.41114093  0.41159197  0.80021620  1
  Se  Se215  1  0.41712911  0.74994077  0.30316144  1
  Se  Se216  1  0.41177187  0.74922018  0.79809750  1
  Se  Se217  1  0.75108276  0.07951780  0.29451421  1
  Se  Se218  1  0.74836785  0.08118255  0.80510834  1
  Se  Se219  1  0.74927729  0.42223834  0.30694527  1
  Se  Se220  1  0.75553276  0.41775893  0.80794086  1
  Se  Se221  1  0.76625662  0.75892544  0.30658564  1
  Se  Se222  1  0.75802390  0.76180343  0.80762481  1
  Se  Se223  1  0.25106209  0.08254420  0.19659468  1
  Se  Se224  1  0.24675380  0.07948228  0.69676187  1
  Se  Se225  1  0.26541332  0.39900329  0.19607555  1
  Se  Se226  1  0.24750108  0.41502398  0.70053138  1
  Se  Se227  1  0.24744810  0.74359413  0.20327421  1
  Se  Se228  1  0.24571101  0.75400361  0.69447338  1
  Se  Se229  1  0.58352386  0.08037203  0.19387353  1
  Se  Se230  1  0.58600387  0.08033384  0.70168412  1
  Se  Se231  1  0.56857224  0.41856443  0.18998107  1
  Se  Se232  1  0.57817922  0.42468047  0.68618580  1
  Se  Se233  1  0.57538883  0.75343054  0.18587696  1
  Se  Se234  1  0.57305079  0.75916018  0.68742441  1
  Se  Se235  1  0.93413601  0.06088693  0.20125254  1
  Se  Se236  1  0.91824026  0.08320966  0.69846403  1
  Se  Se237  1  0.91898634  0.41461804  0.19443583  1
  Se  Se238  1  0.92198436  0.41301058  0.69866241  1
  Se  Se239  1  0.90874443  0.76184097  0.19370420  1
  Se  Se240  1  0.91140373  0.75898505  0.68792678  1
  Se  Se241  1  0.07897363  0.25086922  0.19965624  1
  Se  Se242  1  0.08512388  0.24623761  0.69965736  1
  Se  Se243  1  0.08628274  0.58199708  0.18385858  1
  Se  Se244  1  0.09756860  0.57498487  0.69381178  1
  Se  Se245  1  0.08013306  0.91520812  0.20809882  1
  Se  Se246  1  0.07756181  0.91921564  0.69291085  1
  Se  Se247  1  0.41509582  0.24708952  0.19517445  1
  Se  Se248  1  0.41608435  0.24679872  0.69676098  1
  Se  Se249  1  0.41066320  0.59164439  0.20331282  1
  Se  Se250  1  0.41187353  0.58546498  0.69509506  1
  Se  Se251  1  0.42101653  0.91661066  0.19650844  1
  Se  Se252  1  0.41211776  0.92261470  0.69817639  1
  Se  Se253  1  0.75021190  0.24363619  0.18452319  1
  Se  Se254  1  0.76071869  0.24031080  0.68817728  1
  Se  Se255  1  0.75204651  0.58070225  0.19352077  1
  Se  Se256  1  0.75878968  0.58122382  0.69417946  1
  Se  Se257  1  0.74779069  0.91011096  0.20678832  1
  Se  Se258  1  0.74506304  0.92251612  0.69458632  1
