# generated using pymatgen
data_In86Cu29Se144
_symmetry_space_group_name_H-M   'P 1'
_cell_length_a   17.58771548
_cell_length_b   17.58297453
_cell_length_c   23.44201162
_cell_angle_alpha   89.95918780
_cell_angle_beta   89.99412872
_cell_angle_gamma   90.00443720
_symmetry_Int_Tables_number   1
_chemical_formula_structural   In86Cu29Se144
_chemical_formula_sum   'In86 Cu29 Se144'
_cell_volume   7249.30782326
_cell_formula_units_Z   1
loop_
 _symmetry_equiv_pos_site_id
 _symmetry_equiv_pos_as_xyz
  1  'x, y, z'
loop_
 _atom_site_type_symbol
 _atom_site_label
 _atom_site_symmetry_multiplicity
 _atom_site_fract_x
 _atom_site_fract_y
 _atom_site_fract_z
 _atom_site_occupancy
  In  In0  1  -0.00110423  0.16620829  0.14596902  1
  In  In1  1  -0.01677865  0.14756104  0.61370354  1
  In  In2  1  0.00706536  0.49872034  0.13333859  1
  In  In3  1  -0.00056600  0.50107319  0.61322871  1
  In  In4  1  -0.00294973  0.83351028  0.12994243  1
  In  In5  1  0.00067368  0.83895888  0.61851241  1
  In  In6  1  0.35372717  0.17114630  0.13462958  1
  In  In7  1  0.34098505  0.17181869  0.61556240  1
  In  In8  1  0.32899457  0.49616540  0.12471744  1
  In  In9  1  0.31805201  0.49636147  0.62502089  1
  In  In10  1  0.33228421  0.83604012  0.11973744  1
  In  In11  1  0.33934556  0.84890986  0.60419090  1
  In  In12  1  0.64822602  0.15717082  0.13986960  1
  In  In13  1  0.66864341  0.16645745  0.61209461  1
  In  In14  1  0.66509141  0.51702497  0.12464215  1
  In  In15  1  0.66624359  0.48978487  0.61614422  1
  In  In16  1  0.66722978  0.82846887  0.12677578  1
  In  In17  1  0.67216152  0.84044498  0.61655954  1
  In  In18  1  0.16073355  0.01114614  0.38736334  1
  In  In19  1  0.15389291  -0.00621465  0.87354148  1
  In  In20  1  0.16574579  0.33476178  0.37679539  1
  In  In21  1  0.17834761  0.32580309  0.87495095  1
  In  In22  1  0.15509790  0.67925683  0.38053485  1
  In  In23  1  0.16008509  0.66706968  0.88605652  1
  In  In24  1  0.50550912  -0.00298321  0.37956836  1
  In  In25  1  0.50723252  -0.00450566  0.88797133  1
  In  In26  1  0.48260218  0.32848612  0.36503415  1
  In  In27  1  0.49036724  0.33792378  0.88582916  1
  In  In28  1  0.51629762  0.67705171  0.36280730  1
  In  In29  1  0.50338604  0.66657480  0.89151589  1
  In  In30  1  0.83117976  0.00194595  0.36707548  1
  In  In31  1  0.83421311  -0.01057191  0.86819030  1
  In  In32  1  0.85541291  0.31306929  0.38147301  1
  In  In33  1  0.83961218  0.33741744  0.87463328  1
  In  In34  1  0.83179848  0.66866135  0.37365558  1
  In  In35  1  0.84599381  0.67618464  0.87477398  1
  In  In36  1  -0.00063526  0.16708927  0.36885213  1
  In  In37  1  0.00826612  0.16095419  0.86757290  1
  In  In38  1  0.00197391  0.50093234  0.37541123  1
  In  In39  1  -0.00516224  0.51215647  0.88180036  1
  In  In40  1  -0.00485779  0.83257923  0.37285040  1
  In  In41  1  -0.00653798  0.84094822  0.88692404  1
  In  In42  1  0.32362882  0.16841171  0.38867076  1
  In  In43  1  0.33336993  0.17657796  0.87319923  1
  In  In44  1  0.33197229  0.48918838  0.37158695  1
  In  In45  1  0.33647220  0.49159189  0.88412621  1
  In  In46  1  0.33463293  0.84291748  0.38555262  1
  In  In47  1  0.33620373  0.82747976  0.88424956  1
  In  In48  1  0.67959326  0.15372705  0.37539717  1
  In  In49  1  0.66130686  0.15334377  0.87955251  1
  In  In50  1  0.67006288  0.51502899  0.36692345  1
  In  In51  1  0.66302148  0.48879717  0.88331618  1
  In  In52  1  0.66485082  0.84349902  0.36708037  1
  In  In53  1  0.67188547  0.82884139  0.88787540  1
  In  In54  1  0.16430286  -0.01001577  0.12824813  1
  In  In55  1  0.15182823  -0.01299951  0.61035282  1
  In  In56  1  0.16394984  0.33890799  0.13400356  1
  In  In57  1  0.16920110  0.33873682  0.62101094  1
  In  In58  1  0.16311321  0.66245452  0.12493824  1
  In  In59  1  0.16608347  0.66798211  0.61479347  1
  In  In60  1  0.50609078  0.00310506  0.13016348  1
  In  In61  1  0.50192506  0.00529277  0.60934607  1
  In  In62  1  0.48635703  0.32200383  0.12512692  1
  In  In63  1  0.49593014  0.31942898  0.62291056  1
  In  In64  1  0.52603170  0.68645731  0.10764421  1
  In  In65  1  0.49021653  0.67386357  0.62327287  1
  In  In66  1  0.84592013  -0.00810165  0.13814041  1
  In  In67  1  0.84408907  0.00474845  0.61964664  1
  In  In68  1  0.83861250  0.34010209  0.13328089  1
  In  In69  1  0.82917979  0.32999032  0.60929269  1
  In  In70  1  0.81443602  0.68524506  0.13822528  1
  In  In71  1  0.83934124  0.67265084  0.61266269  1
  In  In72  1  0.00348563  0.32755977  0.74763764  1
  In  In73  1  0.32598820  0.66922796  0.74933308  1
  In  In74  1  0.66324940  0.32399471  0.73966864  1
  In  In75  1  0.67144305  0.00394899  0.74301038  1
  In  In76  1  0.67224013  0.33371982  0.25432593  1
  In  In77  1  0.33216337  0.00206959  0.74268317  1
  In  In78  1  0.16888051  0.16019971  -0.00190995  1
  In  In79  1  0.82623670  0.51709268  0.00585612  1
  In  In80  1  0.33925731  0.66653564  0.24772549  1
  In  In81  1  0.50494318  0.50361883  0.48957133  1
  In  In82  1  0.82774212  0.16307523  0.00285960  1
  In  In83  1  0.00467286  0.67253405  0.74188645  1
  In  In84  1  0.66931444  0.66568393  0.76100175  1
  In  In85  1  0.33375461  0.00192083  0.25320683  1
  Cu  Cu86  1  0.50168337  0.50379858  0.24183914  1
  Cu  Cu87  1  0.17051385  0.49150027  0.75184532  1
  Cu  Cu88  1  0.33122579  0.33672322  0.49737368  1
  Cu  Cu89  1  0.16725739  0.49966531  0.25170390  1
  Cu  Cu90  1  0.32724655  0.66197288  0.00511162  1
  Cu  Cu91  1  0.00647051  0.33096710  0.49592661  1
  Cu  Cu92  1  -0.00412396  0.66596021  0.49351869  1
  Cu  Cu93  1  0.66818302  0.67516082  0.49002021  1
  Cu  Cu94  1  0.17167854  0.16908767  0.26071133  1
  Cu  Cu95  1  0.00459102  0.33600738  0.01120558  1
  Cu  Cu96  1  0.15702323  0.83588203  0.25399051  1
  Cu  Cu97  1  0.33447384  0.66679877  0.49613613  1
  Cu  Cu98  1  0.33041612  0.33065071  0.00281590  1
  Cu  Cu99  1  0.66511688  -0.00118483  0.00714048  1
  Cu  Cu100  1  0.82773512  0.49878955  0.74018824  1
  Cu  Cu101  1  0.66931963  0.33426568  0.49095513  1
  Cu  Cu102  1  0.16555593  0.15958942  0.74263413  1
  Cu  Cu103  1  0.00187490  0.67074107  0.00853801  1
  Cu  Cu104  1  0.83275744  0.82958257  0.25382795  1
  Cu  Cu105  1  0.33722398  -0.00041184  0.00682942  1
  Cu  Cu106  1  0.48764027  0.49075189  0.75886201  1
  Cu  Cu107  1  -0.00631849  -0.00223561  0.49062419  1
  Cu  Cu108  1  0.65697009  0.32750435  0.00816328  1
  Cu  Cu109  1  0.49279944  0.17078376  0.74936582  1
  Cu  Cu110  1  0.50518811  0.83500825  0.75177884  1
  Cu  Cu111  1  0.67007149  -0.00414869  0.49289887  1
  Cu  Cu112  1  -0.00263381  -0.00445536  0.00485533  1
  Cu  Cu113  1  0.16564841  0.83561793  0.74326660  1
  Cu  Cu114  1  0.84331650  0.50007022  0.25346888  1
  Se  Se115  1  0.07282349  0.08297327  0.06316365  1
  Se  Se116  1  0.07814878  0.08171170  0.54479077  1
  Se  Se117  1  0.08826642  0.42029869  0.05993928  1
  Se  Se118  1  0.08630279  0.41768925  0.55024851  1
  Se  Se119  1  0.08544926  0.75557788  0.06024962  1
  Se  Se120  1  0.07758580  0.74839198  0.55127319  1
  Se  Se121  1  0.41810148  0.08245059  0.06084587  1
  Se  Se122  1  0.41737602  0.08805170  0.54639594  1
  Se  Se123  1  0.41448186  0.41323505  0.05649742  1
  Se  Se124  1  0.41604505  0.41814514  0.55648348  1
  Se  Se125  1  0.41192821  0.74856007  0.05352333  1
  Se  Se126  1  0.42050417  0.75097898  0.54671668  1
  Se  Se127  1  0.74437993  0.07758950  0.06935501  1
  Se  Se128  1  0.75172869  0.07774368  0.55076569  1
  Se  Se129  1  0.74488645  0.40981373  0.06051902  1
  Se  Se130  1  0.75085022  0.42045824  0.54334760  1
  Se  Se131  1  0.74734464  0.74735910  0.05439604  1
  Se  Se132  1  0.75098966  0.75422777  0.54861445  1
  Se  Se133  1  0.25224804  0.24837785  0.06406781  1
  Se  Se134  1  0.24930685  0.25357398  0.55261435  1
  Se  Se135  1  0.24412771  0.57802558  0.05671332  1
  Se  Se136  1  0.25300724  0.58342008  0.55079981  1
  Se  Se137  1  0.24595904  0.91893903  0.05347903  1
  Se  Se138  1  0.24431489  0.91866069  0.54142815  1
  Se  Se139  1  0.58096459  0.24128702  0.06315549  1
  Se  Se140  1  0.58544596  0.25607886  0.54947182  1
  Se  Se141  1  0.58470491  0.57892827  0.04650268  1
  Se  Se142  1  0.58933876  0.59561650  0.55550465  1
  Se  Se143  1  0.58171682  0.91606059  0.06006785  1
  Se  Se144  1  0.58427642  0.91464048  0.54795592  1
  Se  Se145  1  0.92315949  0.25024491  0.06362407  1
  Se  Se146  1  0.91863681  0.24825427  0.54727724  1
  Se  Se147  1  0.91954662  0.59392784  0.07024335  1
  Se  Se148  1  0.91250571  0.58017001  0.54682793  1
  Se  Se149  1  0.91294566  0.91431942  0.05821693  1
  Se  Se150  1  0.91352098  0.91444588  0.54829109  1
  Se  Se151  1  0.08488375  0.24450046  0.44152914  1
  Se  Se152  1  0.07389188  0.25587011  0.94316487  1
  Se  Se153  1  0.08507259  0.58235460  0.44662178  1
  Se  Se154  1  0.07965337  0.58158027  0.95444420  1
  Se  Se155  1  0.08021398  0.91136217  0.44368615  1
  Se  Se156  1  0.08713024  0.91601918  0.95290836  1
  Se  Se157  1  0.41882234  0.25477804  0.44779969  1
  Se  Se158  1  0.41373071  0.24397547  0.95074056  1
  Se  Se159  1  0.41495367  0.59416194  0.43027889  1
  Se  Se160  1  0.41269436  0.58084084  0.95066117  1
  Se  Se161  1  0.42377174  0.91858546  0.45070232  1
  Se  Se162  1  0.41713268  0.91421844  0.95038690  1
  Se  Se163  1  0.75350511  0.24581465  0.44423162  1
  Se  Se164  1  0.74115735  0.26003586  0.94137608  1
  Se  Se165  1  0.74919316  0.58365576  0.44441501  1
  Se  Se166  1  0.74131074  0.59751084  0.93530203  1
  Se  Se167  1  0.75410063  0.91537718  0.43873640  1
  Se  Se168  1  0.75133651  0.92676415  0.94655639  1
  Se  Se169  1  0.25802129  0.07210684  0.45631063  1
  Se  Se170  1  0.25978903  0.07089104  0.93690264  1
  Se  Se171  1  0.24806397  0.42153586  0.44651527  1
  Se  Se172  1  0.24463139  0.41173831  0.94905058  1
  Se  Se173  1  0.24935405  0.75204486  0.44640390  1
  Se  Se174  1  0.24736536  0.74914720  0.95029217  1
  Se  Se175  1  0.58710490  0.08605837  0.44625360  1
  Se  Se176  1  0.58139986  0.08626115  0.95647214  1
  Se  Se177  1  0.58891360  0.41064527  0.42823305  1
  Se  Se178  1  0.57846555  0.41504410  0.95407523  1
  Se  Se179  1  0.58358380  0.75794836  0.43934364  1
  Se  Se180  1  0.57573044  0.76216261  0.95243102  1
  Se  Se181  1  0.91422120  0.08476485  0.43774843  1
  Se  Se182  1  0.92474579  0.07965708  0.94178687  1
  Se  Se183  1  0.92050539  0.41530626  0.44505513  1
  Se  Se184  1  0.91896475  0.41408281  0.95190006  1
  Se  Se185  1  0.91211980  0.75213017  0.44422761  1
  Se  Se186  1  0.91606321  0.75065287  0.95349764  1
  Se  Se187  1  0.25595307  0.25190650  0.31166247  1
  Se  Se188  1  0.24520679  0.24248314  0.79899031  1
  Se  Se189  1  0.24454068  0.58491831  0.31107614  1
  Se  Se190  1  0.24153994  0.57841351  0.81313096  1
  Se  Se191  1  0.24003582  0.91402958  0.31239037  1
  Se  Se192  1  0.25007160  0.90748036  0.80704198  1
  Se  Se193  1  0.58261082  0.24280820  0.31142565  1
  Se  Se194  1  0.57702118  0.24483719  0.81154872  1
  Se  Se195  1  0.58666850  0.58656168  0.29301943  1
  Se  Se196  1  0.57118263  0.57162031  0.81348662  1
  Se  Se197  1  0.58942282  0.93708665  0.29926462  1
  Se  Se198  1  0.58540260  0.91428609  0.81031918  1
  Se  Se199  1  0.92081636  0.24941460  0.29671639  1
  Se  Se200  1  0.90669597  0.24118399  0.80602631  1
  Se  Se201  1  0.92117438  0.58757089  0.30714555  1
  Se  Se202  1  0.90914924  0.57647863  0.80055611  1
  Se  Se203  1  0.91788281  0.91649120  0.30173081  1
  Se  Se204  1  0.93156293  0.91838736  0.80674502  1
  Se  Se205  1  0.08795262  0.07894845  0.30574184  1
  Se  Se206  1  0.08502793  0.07688311  0.79773593  1
  Se  Se207  1  0.08402241  0.41666779  0.30620009  1
  Se  Se208  1  0.08249599  0.42286637  0.81404207  1
  Se  Se209  1  0.07600482  0.74650610  0.30231050  1
  Se  Se210  1  0.09131867  0.75596127  0.80858268  1
  Se  Se211  1  0.41599806  0.09033570  0.31740751  1
  Se  Se212  1  0.42453891  0.08140468  0.81084589  1
  Se  Se213  1  0.41690845  0.42351988  0.29549548  1
  Se  Se214  1  0.40628620  0.40594297  0.80929525  1
  Se  Se215  1  0.41827869  0.76535029  0.30758778  1
  Se  Se216  1  0.42576298  0.75149777  0.80895340  1
  Se  Se217  1  0.75167716  0.08450676  0.29609956  1
  Se  Se218  1  0.75767317  0.09442274  0.80688329  1
  Se  Se219  1  0.76488566  0.41917017  0.31503957  1
  Se  Se220  1  0.75108680  0.42035350  0.80331639  1
  Se  Se221  1  0.74513108  0.74819909  0.30487788  1
  Se  Se222  1  0.76160927  0.76515481  0.80765150  1
  Se  Se223  1  0.24339214  0.09255757  0.19047544  1
  Se  Se224  1  0.24197121  0.08314630  0.67818869  1
  Se  Se225  1  0.25403702  0.41736494  0.20066412  1
  Se  Se226  1  0.25191949  0.40853588  0.69887580  1
  Se  Se227  1  0.24247743  0.75998928  0.19428032  1
  Se  Se228  1  0.24925395  0.76208881  0.68196390  1
  Se  Se229  1  0.58779595  0.06206249  0.21232150  1
  Se  Se230  1  0.57392021  0.09397489  0.68815910  1
  Se  Se231  1  0.58345900  0.41753364  0.18684525  1
  Se  Se232  1  0.56991966  0.42427161  0.69074116  1
  Se  Se233  1  0.58478707  0.74523859  0.19658911  1
  Se  Se234  1  0.58302960  0.75208987  0.69228507  1
  Se  Se235  1  0.91090826  0.08587400  0.20787306  1
  Se  Se236  1  0.91626293  0.08095333  0.69684961  1
  Se  Se237  1  0.92529382  0.41429982  0.20205785  1
  Se  Se238  1  0.91116451  0.41763674  0.68532026  1
  Se  Se239  1  0.91951804  0.74743337  0.20050912  1
  Se  Se240  1  0.90678957  0.75886960  0.69013184  1
  Se  Se241  1  0.08911089  0.25234978  0.20457457  1
  Se  Se242  1  0.08468807  0.23911679  0.68217883  1
  Se  Se243  1  0.08566749  0.58706022  0.20103535  1
  Se  Se244  1  0.09353708  0.57217610  0.68987664  1
  Se  Se245  1  0.07644080  0.92169495  0.20000207  1
  Se  Se246  1  0.08029064  0.91776339  0.69232647  1
  Se  Se247  1  0.42322632  0.25102519  0.20930146  1
  Se  Se248  1  0.40857837  0.25138953  0.69625889  1
  Se  Se249  1  0.42688908  0.58698600  0.18008339  1
  Se  Se250  1  0.41933082  0.57490368  0.69290824  1
  Se  Se251  1  0.41906641  0.90826623  0.19361511  1
  Se  Se252  1  0.42786954  0.91074176  0.68730645  1
  Se  Se253  1  0.75590353  0.24160984  0.19077321  1
  Se  Se254  1  0.76130895  0.23873512  0.68621554  1
  Se  Se255  1  0.75377236  0.57762689  0.20050418  1
  Se  Se256  1  0.74815901  0.58204572  0.68475493  1
  Se  Se257  1  0.75098304  0.91029118  0.19690716  1
  Se  Se258  1  0.76073101  0.90905777  0.69063164  1
