# generated using pymatgen
data_In86Cu29Se144
_symmetry_space_group_name_H-M   'P 1'
_cell_length_a   17.57238214
_cell_length_b   17.57248501
_cell_length_c   23.42973247
_cell_angle_alpha   90.00661739
_cell_angle_beta   89.99171355
_cell_angle_gamma   90.02618727
_symmetry_Int_Tables_number   1
_chemical_formula_structural   In86Cu29Se144
_chemical_formula_sum   'In86 Cu29 Se144'
_cell_volume   7234.87609016
_cell_formula_units_Z   1
loop_
 _symmetry_equiv_pos_site_id
 _symmetry_equiv_pos_as_xyz
  1  'x, y, z'
loop_
 _atom_site_type_symbol
 _atom_site_label
 _atom_site_symmetry_multiplicity
 _atom_site_fract_x
 _atom_site_fract_y
 _atom_site_fract_z
 _atom_site_occupancy
  In  In0  1  -0.00409502  0.17876314  0.12133694  1
  In  In1  1  -0.00474904  0.16894193  0.62732941  1
  In  In2  1  -0.00030570  0.47993625  0.12303900  1
  In  In3  1  -0.00908514  0.50426616  0.62319762  1
  In  In4  1  -0.00694302  0.84789147  0.12188365  1
  In  In5  1  0.00187330  0.83836462  0.61740496  1
  In  In6  1  0.36012249  0.15394148  0.15716617  1
  In  In7  1  0.32619842  0.17635568  0.61432518  1
  In  In8  1  0.33614442  0.49891649  0.13336680  1
  In  In9  1  0.34026463  0.48197915  0.61385811  1
  In  In10  1  0.34761406  0.82393011  0.13969522  1
  In  In11  1  0.33513721  0.83607882  0.61035838  1
  In  In12  1  0.67064315  0.16816299  0.13159765  1
  In  In13  1  0.66652202  0.14458977  0.62559448  1
  In  In14  1  0.64890976  0.50837196  0.14437966  1
  In  In15  1  0.66419795  0.49774675  0.61108791  1
  In  In16  1  0.66452044  0.83645544  0.12599707  1
  In  In17  1  0.66838067  0.83767987  0.61685758  1
  In  In18  1  0.17901572  -0.00193420  0.38827820  1
  In  In19  1  0.15462388  0.01368375  0.87091524  1
  In  In20  1  0.15941702  0.33191555  0.37200378  1
  In  In21  1  0.17015092  0.33483229  0.87759839  1
  In  In22  1  0.18401261  0.66824486  0.37387542  1
  In  In23  1  0.15981421  0.65735917  0.87920950  1
  In  In24  1  0.49171706  -0.00179229  0.36543719  1
  In  In25  1  0.53907172  -0.00125160  0.88058587  1
  In  In26  1  0.51814387  0.32497135  0.35432499  1
  In  In27  1  0.50266465  0.32666962  0.89195078  1
  In  In28  1  0.50669107  0.66621491  0.36653573  1
  In  In29  1  0.49514755  0.66159636  0.88016301  1
  In  In30  1  0.83063280  0.00582088  0.38229203  1
  In  In31  1  0.83366585  -0.00044156  0.86975936  1
  In  In32  1  0.83519733  0.32968880  0.37546012  1
  In  In33  1  0.82946556  0.31918098  0.87386317  1
  In  In34  1  0.82028379  0.67633494  0.38056158  1
  In  In35  1  0.83560068  0.67459381  0.87865463  1
  In  In36  1  -0.00349594  0.17840284  0.38465924  1
  In  In37  1  -0.01306568  0.14494941  0.85228278  1
  In  In38  1  -0.00154291  0.48244669  0.37496218  1
  In  In39  1  0.01513544  0.50342015  0.87775380  1
  In  In40  1  -0.00454653  0.84291445  0.38820237  1
  In  In41  1  -0.01428238  0.83789646  0.87411307  1
  In  In42  1  0.33254338  0.16235169  0.36812304  1
  In  In43  1  0.33174089  0.17284248  0.87951032  1
  In  In44  1  0.35382207  0.50494935  0.35268747  1
  In  In45  1  0.34033621  0.48033745  0.89092998  1
  In  In46  1  0.34022076  0.83717640  0.37870199  1
  In  In47  1  0.34213618  0.83152265  0.87587534  1
  In  In48  1  0.67655738  0.16946086  0.36249952  1
  In  In49  1  0.69526854  0.13819788  0.91157487  1
  In  In50  1  0.66377812  0.50152941  0.36703038  1
  In  In51  1  0.66204742  0.48645165  0.88354668  1
  In  In52  1  0.66592778  0.83253286  0.37339255  1
  In  In53  1  0.67630065  0.85353258  0.86396752  1
  In  In54  1  0.17351196  0.01083997  0.12521268  1
  In  In55  1  0.16433255  0.00050274  0.61936422  1
  In  In56  1  0.16180340  0.32994860  0.12711579  1
  In  In57  1  0.15779892  0.29957099  0.60686699  1
  In  In58  1  0.18618212  0.66174460  0.13076684  1
  In  In59  1  0.15730399  0.67009166  0.61907475  1
  In  In60  1  0.50442767  0.00316297  0.13267316  1
  In  In61  1  0.51327825  -0.00632183  0.62836122  1
  In  In62  1  0.49752458  0.33411079  0.14044861  1
  In  In63  1  0.48933271  0.33740293  0.61383668  1
  In  In64  1  0.50713196  0.65759153  0.13964157  1
  In  In65  1  0.50187527  0.66394792  0.61126532  1
  In  In66  1  0.81895262  -0.00317482  0.11201513  1
  In  In67  1  0.82752467  -0.00290822  0.62062225  1
  In  In68  1  0.83901330  0.32312571  0.13241610  1
  In  In69  1  0.84029897  0.34316592  0.61903162  1
  In  In70  1  0.81752364  0.67207712  0.12650653  1
  In  In71  1  0.83318518  0.66855859  0.61358671  1
  In  In72  1  -0.00033663  0.66574855  0.26066397  1
  In  In73  1  0.50935565  0.83695598  0.00457941  1
  In  In74  1  0.33010889  0.32887887  0.74791989  1
  In  In75  1  -0.00317474  0.67689542  0.74125009  1
  In  In76  1  0.17495492  0.50317864  0.49105711  1
  In  In77  1  0.82594164  0.49401727  0.00870697  1
  In  In78  1  0.50349719  0.17112842  0.49173474  1
  In  In79  1  0.00136582  0.00540564  0.25097597  1
  In  In80  1  0.33409923  0.00348413  0.74347085  1
  In  In81  1  0.33215661  0.66327369  0.75336910  1
  In  In82  1  0.66267246  0.32634940  0.75366978  1
  In  In83  1  0.66690062  0.67195509  0.74447795  1
  In  In84  1  0.16729422  0.17966957  0.00167243  1
  In  In85  1  0.16970385  0.82320255  0.00181399  1
  Cu  Cu86  1  0.66024462  0.66979316  0.00801143  1
  Cu  Cu87  1  0.65916458  0.66211538  0.49234488  1
  Cu  Cu88  1  0.16757304  0.83909905  0.74499639  1
  Cu  Cu89  1  -0.01067756  0.00150021  -0.00579355  1
  Cu  Cu90  1  0.00012756  0.33210306  0.49962318  1
  Cu  Cu91  1  0.33794579  0.00427352  0.49570410  1
  Cu  Cu92  1  0.16874886  0.48897246  0.75391104  1
  Cu  Cu93  1  0.82703722  0.16392456  0.74860588  1
  Cu  Cu94  1  0.50379175  0.83482664  0.25490828  1
  Cu  Cu95  1  -0.00242283  0.32977864  -0.00400177  1
  Cu  Cu96  1  -0.00406078  0.66648242  0.49884248  1
  Cu  Cu97  1  0.00125812  0.66357853  0.00159481  1
  Cu  Cu98  1  0.33768572  0.66836346  0.48760159  1
  Cu  Cu99  1  0.17454319  0.84127046  0.25940385  1
  Cu  Cu100  1  0.66674243  -0.00494269  0.49736008  1
  Cu  Cu101  1  0.33879059  0.00132829  0.00987716  1
  Cu  Cu102  1  0.00004182  0.01048913  0.50378041  1
  Cu  Cu103  1  0.65239904  0.33700998  0.01409380  1
  Cu  Cu104  1  0.82825507  0.49334318  0.25125161  1
  Cu  Cu105  1  0.34051817  0.64811251  0.00695841  1
  Cu  Cu106  1  0.66804588  0.32965898  0.49006060  1
  Cu  Cu107  1  0.16406047  0.16653665  0.25193205  1
  Cu  Cu108  1  0.50003761  0.49948847  0.74767704  1
  Cu  Cu109  1  0.83519550  0.16526869  0.25328202  1
  Cu  Cu110  1  0.84026918  0.50048231  0.74614022  1
  Cu  Cu111  1  0.33427792  0.33126088  0.01772397  1
  Cu  Cu112  1  0.16149109  0.49941423  0.25158897  1
  Cu  Cu113  1  0.49971822  0.16387399  0.75749113  1
  Cu  Cu114  1  0.82576601  0.83385194  0.24883581  1
  Se  Se115  1  0.07383689  0.07763012  0.05557603  1
  Se  Se116  1  0.08497760  0.09292636  0.55605940  1
  Se  Se117  1  0.08399930  0.40808497  0.05006899  1
  Se  Se118  1  0.08308834  0.41886414  0.55649136  1
  Se  Se119  1  0.07790786  0.74189175  0.06753834  1
  Se  Se120  1  0.08209682  0.75163985  0.54800980  1
  Se  Se121  1  0.41446734  0.08526209  0.06710392  1
  Se  Se122  1  0.41832790  0.08063151  0.56039737  1
  Se  Se123  1  0.42041997  0.41682684  0.06505866  1
  Se  Se124  1  0.42968563  0.42517964  0.53910001  1
  Se  Se125  1  0.41625592  0.74247354  0.05958229  1
  Se  Se126  1  0.41888484  0.75062849  0.54583392  1
  Se  Se127  1  0.75537522  0.10321007  0.05381340  1
  Se  Se128  1  0.74923885  0.08243143  0.54765317  1
  Se  Se129  1  0.73634215  0.41509799  0.07516795  1
  Se  Se130  1  0.74941660  0.41260689  0.54785918  1
  Se  Se131  1  0.74729126  0.75638970  0.05298665  1
  Se  Se132  1  0.74143164  0.74493228  0.54922637  1
  Se  Se133  1  0.26226792  0.23991065  0.07425423  1
  Se  Se134  1  0.28147515  0.28644803  0.55071333  1
  Se  Se135  1  0.24846474  0.57230470  0.05719665  1
  Se  Se136  1  0.26133754  0.59354254  0.55709181  1
  Se  Se137  1  0.25990738  0.91294849  0.06460166  1
  Se  Se138  1  0.24994559  0.92285048  0.54896269  1
  Se  Se139  1  0.57619327  0.25120655  0.06945052  1
  Se  Se140  1  0.59507437  0.25337213  0.56017289  1
  Se  Se141  1  0.58257808  0.58398022  0.06176432  1
  Se  Se142  1  0.57665910  0.57466667  0.54352772  1
  Se  Se143  1  0.59663734  0.93624299  0.05604505  1
  Se  Se144  1  0.57767509  0.91474150  0.54838251  1
  Se  Se145  1  0.91013951  0.25229532  0.04982741  1
  Se  Se146  1  0.91508171  0.25013177  0.55345676  1
  Se  Se147  1  0.91941525  0.58715406  0.06524183  1
  Se  Se148  1  0.91310307  0.57877805  0.54796631  1
  Se  Se149  1  0.90968677  0.91459068  0.04698573  1
  Se  Se150  1  0.91642383  0.92030545  0.55076936  1
  Se  Se151  1  0.09152361  0.25183528  0.45145776  1
  Se  Se152  1  0.07030835  0.24560851  0.93304984  1
  Se  Se153  1  0.07657676  0.59081737  0.43389213  1
  Se  Se154  1  0.08870998  0.57870179  0.95591384  1
  Se  Se155  1  0.08374847  0.92337339  0.45274958  1
  Se  Se156  1  0.08199050  0.92103743  0.94403305  1
  Se  Se157  1  0.41923595  0.25920128  0.42910418  1
  Se  Se158  1  0.40794178  0.24892212  0.95470724  1
  Se  Se159  1  0.41703449  0.58355844  0.43427817  1
  Se  Se160  1  0.42576547  0.57200881  0.95046673  1
  Se  Se161  1  0.42457732  0.92139411  0.44645884  1
  Se  Se162  1  0.41590603  0.92610811  0.94334370  1
  Se  Se163  1  0.75125665  0.24159035  0.44166860  1
  Se  Se164  1  0.74120507  0.26774260  0.95322248  1
  Se  Se165  1  0.74556539  0.57798081  0.44222285  1
  Se  Se166  1  0.74167848  0.58955436  0.94477900  1
  Se  Se167  1  0.75177376  0.91136698  0.44464823  1
  Se  Se168  1  0.74192373  0.93013758  0.94169006  1
  Se  Se169  1  0.25511281  0.09608167  0.45046495  1
  Se  Se170  1  0.25252186  0.07311847  0.94702964  1
  Se  Se171  1  0.25999433  0.42310653  0.42391337  1
  Se  Se172  1  0.24857695  0.40461922  0.95632161  1
  Se  Se173  1  0.24928576  0.75748140  0.44662696  1
  Se  Se174  1  0.26613244  0.73233139  0.94364434  1
  Se  Se175  1  0.59081172  0.07785908  0.43404964  1
  Se  Se176  1  0.56115912  0.10763905  0.94979330  1
  Se  Se177  1  0.58461978  0.40674133  0.43230657  1
  Se  Se178  1  0.57513709  0.42261193  0.95779980  1
  Se  Se179  1  0.57966021  0.75073297  0.44121041  1
  Se  Se180  1  0.59354213  0.74865178  0.93652967  1
  Se  Se181  1  0.91489959  0.08897220  0.44848751  1
  Se  Se182  1  0.91467141  0.08894441  0.93883208  1
  Se  Se183  1  0.91377888  0.41414951  0.44881964  1
  Se  Se184  1  0.91656134  0.41589060  0.93881316  1
  Se  Se185  1  0.91131809  0.75164950  0.44808731  1
  Se  Se186  1  0.92087192  0.74910041  0.94916474  1
  Se  Se187  1  0.24594568  0.25076836  0.30477932  1
  Se  Se188  1  0.23898578  0.23758216  0.80571441  1
  Se  Se189  1  0.24907220  0.58395381  0.29878113  1
  Se  Se190  1  0.24928512  0.56654470  0.81504675  1
  Se  Se191  1  0.25672091  0.92509691  0.31138312  1
  Se  Se192  1  0.24616012  0.91138680  0.81101575  1
  Se  Se193  1  0.57342384  0.21547318  0.29034924  1
  Se  Se194  1  0.57822058  0.24199015  0.81894386  1
  Se  Se195  1  0.57975445  0.57814299  0.29591313  1
  Se  Se196  1  0.58260641  0.57473026  0.80858348  1
  Se  Se197  1  0.58842767  0.92033284  0.30416970  1
  Se  Se198  1  0.56923503  0.90641531  0.80048869  1
  Se  Se199  1  0.92080980  0.24820482  0.30517923  1
  Se  Se200  1  0.91158672  0.25142869  0.79825229  1
  Se  Se201  1  0.90544301  0.57466847  0.31442028  1
  Se  Se202  1  0.91550746  0.58184823  0.80905322  1
  Se  Se203  1  0.91231920  0.91018303  0.30757078  1
  Se  Se204  1  0.92533367  0.92588935  0.80151100  1
  Se  Se205  1  0.08802454  0.08748220  0.31753252  1
  Se  Se206  1  0.09018976  0.08337440  0.78971272  1
  Se  Se207  1  0.07755201  0.41165810  0.29905445  1
  Se  Se208  1  0.08190156  0.41065624  0.80770269  1
  Se  Se209  1  0.08815735  0.76439259  0.31536766  1
  Se  Se210  1  0.09212550  0.75513866  0.80869017  1
  Se  Se211  1  0.41449953  0.08419470  0.29744886  1
  Se  Se212  1  0.41914453  0.08257621  0.81605601  1
  Se  Se213  1  0.42875498  0.40951278  0.28745805  1
  Se  Se214  1  0.42546917  0.41485181  0.80972884  1
  Se  Se215  1  0.41589532  0.75372913  0.30602332  1
  Se  Se216  1  0.43047477  0.75499593  0.80461155  1
  Se  Se217  1  0.75638706  0.07279816  0.30084638  1
  Se  Se218  1  0.74330582  0.09382124  0.81252557  1
  Se  Se219  1  0.74909586  0.40859379  0.30576471  1
  Se  Se220  1  0.75686428  0.42536471  0.80746285  1
  Se  Se221  1  0.74588416  0.74742598  0.30136905  1
  Se  Se222  1  0.76399785  0.75754782  0.80214322  1
  Se  Se223  1  0.24808448  0.07849219  0.20388907  1
  Se  Se224  1  0.24457535  0.09695072  0.68731881  1
  Se  Se225  1  0.24101765  0.41730509  0.19497801  1
  Se  Se226  1  0.24334419  0.41737124  0.68527183  1
  Se  Se227  1  0.24946383  0.75229352  0.20365625  1
  Se  Se228  1  0.24574696  0.75389868  0.68853008  1
  Se  Se229  1  0.57983877  0.09395168  0.20160465  1
  Se  Se230  1  0.58118672  0.08102107  0.70246248  1
  Se  Se231  1  0.56664182  0.42685153  0.21313119  1
  Se  Se232  1  0.57846116  0.41864057  0.68795464  1
  Se  Se233  1  0.58742726  0.75447217  0.19788885  1
  Se  Se234  1  0.57193510  0.75327667  0.68499554  1
  Se  Se235  1  0.91050797  0.08625545  0.18651218  1
  Se  Se236  1  0.90812825  0.08289041  0.69130289  1
  Se  Se237  1  0.91701910  0.41436642  0.19940449  1
  Se  Se238  1  0.92236486  0.41489365  0.69540583  1
  Se  Se239  1  0.91501179  0.75705437  0.19305766  1
  Se  Se240  1  0.90136771  0.76343917  0.68611485  1
  Se  Se241  1  0.07921148  0.24642823  0.19675318  1
  Se  Se242  1  0.07679720  0.26133406  0.69096345  1
  Se  Se243  1  0.08064302  0.57987062  0.18998109  1
  Se  Se244  1  0.09256830  0.57518585  0.69448818  1
  Se  Se245  1  0.09450543  0.91088904  0.19219329  1
  Se  Se246  1  0.08344027  0.91746327  0.68968458  1
  Se  Se247  1  0.38703396  0.28280905  0.20669747  1
  Se  Se248  1  0.42707441  0.24055594  0.69001322  1
  Se  Se249  1  0.39562401  0.60426166  0.19774284  1
  Se  Se250  1  0.41832766  0.57524741  0.68737616  1
  Se  Se251  1  0.42015037  0.92018999  0.20145393  1
  Se  Se252  1  0.41894796  0.90424638  0.68960781  1
  Se  Se253  1  0.75036007  0.25292836  0.20388939  1
  Se  Se254  1  0.75127258  0.24626623  0.68584203  1
  Se  Se255  1  0.75253362  0.58505755  0.20010664  1
  Se  Se256  1  0.75503580  0.57429218  0.68666019  1
  Se  Se257  1  0.75085435  0.92065224  0.19251638  1
  Se  Se258  1  0.73145636  0.92953069  0.68864613  1
