# generated using pymatgen
data_In86Cu29Se144
_symmetry_space_group_name_H-M   'P 1'
_cell_length_a   17.58568828
_cell_length_b   17.57952427
_cell_length_c   23.44371997
_cell_angle_alpha   89.96998500
_cell_angle_beta   89.99615917
_cell_angle_gamma   90.00401664
_symmetry_Int_Tables_number   1
_chemical_formula_structural   In86Cu29Se144
_chemical_formula_sum   'In86 Cu29 Se144'
_cell_volume   7247.57891170
_cell_formula_units_Z   1
loop_
 _symmetry_equiv_pos_site_id
 _symmetry_equiv_pos_as_xyz
  1  'x, y, z'
loop_
 _atom_site_type_symbol
 _atom_site_label
 _atom_site_symmetry_multiplicity
 _atom_site_fract_x
 _atom_site_fract_y
 _atom_site_fract_z
 _atom_site_occupancy
  In  In0  1  -0.00208818  0.16260141  0.12218411  1
  In  In1  1  0.00084601  0.16536843  0.62495005  1
  In  In2  1  0.01299475  0.50629953  0.12833754  1
  In  In3  1  -0.00492744  0.49339654  0.61625235  1
  In  In4  1  0.00075815  0.83982297  0.12689365  1
  In  In5  1  0.00681590  0.83076869  0.62615893  1
  In  In6  1  0.31996563  0.15249617  0.11875164  1
  In  In7  1  0.32383075  0.14997351  0.61816738  1
  In  In8  1  0.32785914  0.49177635  0.12724211  1
  In  In9  1  0.33131921  0.52160973  0.61958067  1
  In  In10  1  0.33098960  0.85264034  0.12501709  1
  In  In11  1  0.33116266  0.84048269  0.62429258  1
  In  In12  1  0.68311349  0.14919187  0.14603970  1
  In  In13  1  0.65819868  0.15485036  0.60979764  1
  In  In14  1  0.66721681  0.50524464  0.13953364  1
  In  In15  1  0.67015722  0.49026533  0.61936603  1
  In  In16  1  0.67011531  0.83342493  0.13543222  1
  In  In17  1  0.67051570  0.85042769  0.62254421  1
  In  In18  1  0.16676313  0.00216662  0.37479668  1
  In  In19  1  0.16256741  0.00289118  0.87862572  1
  In  In20  1  0.17249782  0.32386210  0.38499172  1
  In  In21  1  0.14903079  0.33304574  0.86781298  1
  In  In22  1  0.15980380  0.68686012  0.39011071  1
  In  In23  1  0.17695009  0.67397564  0.86593750  1
  In  In24  1  0.49662693  0.00400767  0.37052344  1
  In  In25  1  0.49488789  -0.01800484  0.85696655  1
  In  In26  1  0.50618156  0.31170599  0.37382612  1
  In  In27  1  0.50441390  0.33266120  0.86739994  1
  In  In28  1  0.51853977  0.67316333  0.38831930  1
  In  In29  1  0.49153084  0.69560874  0.86638937  1
  In  In30  1  0.84706754  0.01056349  0.37055721  1
  In  In31  1  0.83617442  -0.00130380  0.87326021  1
  In  In32  1  0.82608485  0.33698754  0.37822408  1
  In  In33  1  0.83095793  0.31066053  0.87509838  1
  In  In34  1  0.82211101  0.65969128  0.37392525  1
  In  In35  1  0.85011937  0.67159318  0.87595868  1
  In  In36  1  0.01134695  0.15309030  0.38145345  1
  In  In37  1  -0.00204149  0.16246658  0.87288178  1
  In  In38  1  -0.01329134  0.50520631  0.38093992  1
  In  In39  1  0.01763330  0.50060290  0.86873211  1
  In  In40  1  0.00887249  0.84649012  0.36934692  1
  In  In41  1  -0.01855833  0.85349690  0.88624892  1
  In  In42  1  0.34005786  0.15419230  0.37665339  1
  In  In43  1  0.32812810  0.14029672  0.87163838  1
  In  In44  1  0.32755214  0.49750705  0.38319274  1
  In  In45  1  0.31174927  0.51121477  0.86858625  1
  In  In46  1  0.32141787  0.84744705  0.39013942  1
  In  In47  1  0.32775942  0.83253907  0.86979656  1
  In  In48  1  0.66552075  0.16837442  0.36930477  1
  In  In49  1  0.68263738  0.15450092  0.88138367  1
  In  In50  1  0.68090236  0.51452207  0.37275106  1
  In  In51  1  0.66432117  0.49862362  0.87753121  1
  In  In52  1  0.65979737  0.82763987  0.37602881  1
  In  In53  1  0.67367422  0.84852141  0.86983127  1
  In  In54  1  0.16964965  -0.00355639  0.12603120  1
  In  In55  1  0.16645446  0.00102458  0.62608028  1
  In  In56  1  0.17687391  0.32379227  0.12611240  1
  In  In57  1  0.15355351  0.31978100  0.61700010  1
  In  In58  1  0.15198643  0.66927675  0.13178184  1
  In  In59  1  0.18638721  0.69032003  0.60046956  1
  In  In60  1  0.49720580  0.01026172  0.14469910  1
  In  In61  1  0.49754843  -0.00376409  0.62024780  1
  In  In62  1  0.50663965  0.34094382  0.13400801  1
  In  In63  1  0.51658139  0.32997952  0.62011766  1
  In  In64  1  0.50205205  0.68113036  0.13462646  1
  In  In65  1  0.48196368  0.67505160  0.61805286  1
  In  In66  1  0.83364676  0.00102988  0.12618844  1
  In  In67  1  0.82212721  0.00341435  0.63226993  1
  In  In68  1  0.84030142  0.31747762  0.12637746  1
  In  In69  1  0.84111896  0.33400487  0.61777460  1
  In  In70  1  0.82546120  0.68357554  0.13498851  1
  In  In71  1  0.84195583  0.66671278  0.61972211  1
  In  In72  1  0.34065091  0.66767236  0.26051697  1
  In  In73  1  -0.00209688  0.33238407  0.24621871  1
  In  In74  1  0.33587061  0.31894967  0.25760319  1
  In  In75  1  0.49838342  0.50109786  0.00304621  1
  In  In76  1  0.16595512  0.50011766  0.00061435  1
  In  In77  1  0.50366319  0.16034174  0.00610529  1
  In  In78  1  0.82916308  0.83262169  0.50035306  1
  In  In79  1  0.33214123  0.32862339  0.73997466  1
  In  In80  1  0.50182312  0.84272266  -0.00405641  1
  In  In81  1  0.67367840  0.32652002  0.74481194  1
  In  In82  1  0.84296302  0.49851884  0.00283823  1
  In  In83  1  0.65899335  0.67471753  0.74092183  1
  In  In84  1  0.00884005  0.67072905  0.73842297  1
  In  In85  1  0.50306182  0.49491969  0.49965800  1
  Cu  Cu86  1  -0.00428995  0.66376723  0.49676757  1
  Cu  Cu87  1  0.48940402  0.51313089  0.74716161  1
  Cu  Cu88  1  0.15653134  0.50319078  0.26074660  1
  Cu  Cu89  1  0.50524996  0.83198896  0.25825484  1
  Cu  Cu90  1  0.50561542  0.50126538  0.26069166  1
  Cu  Cu91  1  0.67637664  0.67538757  0.00740614  1
  Cu  Cu92  1  0.84040327  0.49093445  0.74268528  1
  Cu  Cu93  1  0.83595282  0.83711305  0.25323056  1
  Cu  Cu94  1  0.16455231  0.50364387  0.73716559  1
  Cu  Cu95  1  0.16516410  0.83835826  0.74702849  1
  Cu  Cu96  1  0.33285977  0.67249451  -0.00614183  1
  Cu  Cu97  1  0.83228920  0.50702285  0.25554722  1
  Cu  Cu98  1  0.67248692  0.32757301  0.49517796  1
  Cu  Cu99  1  -0.00333198  0.32771455  0.49668222  1
  Cu  Cu100  1  0.00068458  0.68189517  0.00415699  1
  Cu  Cu101  1  0.66622318  0.00070862  0.00400064  1
  Cu  Cu102  1  0.33188814  0.32954075  0.50077685  1
  Cu  Cu103  1  0.00122008  0.00460771  0.00257749  1
  Cu  Cu104  1  0.83776487  0.16093931  0.75043226  1
  Cu  Cu105  1  0.33443690  0.00188572  0.50028840  1
  Cu  Cu106  1  0.50600285  0.15542869  0.74088257  1
  Cu  Cu107  1  0.66422138  0.00587268  0.49615005  1
  Cu  Cu108  1  0.16403182  0.16345716  0.74712760  1
  Cu  Cu109  1  0.00542747  -0.00060561  0.49977867  1
  Cu  Cu110  1  0.33031918  0.31352377  -0.00428854  1
  Cu  Cu111  1  0.83368908  0.16976019  0.25203221  1
  Cu  Cu112  1  0.67471609  0.32213442  0.00951158  1
  Cu  Cu113  1  -0.00323453  0.32221477  -0.00507893  1
  Cu  Cu114  1  0.16918697  0.83475596  0.25313636  1
  Se  Se115  1  0.08663686  0.08298149  0.05716373  1
  Se  Se116  1  0.08603340  0.08500400  0.55563916  1
  Se  Se117  1  0.07456561  0.40390455  0.05786096  1
  Se  Se118  1  0.08075722  0.41197849  0.54892868  1
  Se  Se119  1  0.08861813  0.75729310  0.05786041  1
  Se  Se120  1  0.07479249  0.75527392  0.54634304  1
  Se  Se121  1  0.41387044  0.06350563  0.05776667  1
  Se  Se122  1  0.42177815  0.08650676  0.55041245  1
  Se  Se123  1  0.40563617  0.39987236  0.05601212  1
  Se  Se124  1  0.41029993  0.40893840  0.56302927  1
  Se  Se125  1  0.41410874  0.74672204  0.05758250  1
  Se  Se126  1  0.39697183  0.75022681  0.54905874  1
  Se  Se127  1  0.74685434  0.08570360  0.05863022  1
  Se  Se128  1  0.75685049  0.07880153  0.54963374  1
  Se  Se129  1  0.74618520  0.41573569  0.06475042  1
  Se  Se130  1  0.75213646  0.41296549  0.54995031  1
  Se  Se131  1  0.75367381  0.76328261  0.05851129  1
  Se  Se132  1  0.73942356  0.74144892  0.55953548  1
  Se  Se133  1  0.24167239  0.23992528  0.04994620  1
  Se  Se134  1  0.24937956  0.24496804  0.55382767  1
  Se  Se135  1  0.25762100  0.59251491  0.06024416  1
  Se  Se136  1  0.23931319  0.57407967  0.54511269  1
  Se  Se137  1  0.23869693  0.90666393  0.05247728  1
  Se  Se138  1  0.24679289  0.92194570  0.55321343  1
  Se  Se139  1  0.59118765  0.24855741  0.06991562  1
  Se  Se140  1  0.58173619  0.24773305  0.54369993  1
  Se  Se141  1  0.59062451  0.59443875  0.06309194  1
  Se  Se142  1  0.58506775  0.58776591  0.56280394  1
  Se  Se143  1  0.58409796  0.92622569  0.06675738  1
  Se  Se144  1  0.58462086  0.91933314  0.54878173  1
  Se  Se145  1  0.91393200  0.24223828  0.05017571  1
  Se  Se146  1  0.91670806  0.24299207  0.55208493  1
  Se  Se147  1  0.92450369  0.59518659  0.06390592  1
  Se  Se148  1  0.91233932  0.57944290  0.54856585  1
  Se  Se149  1  0.91774827  0.92089280  0.05683136  1
  Se  Se150  1  0.92071628  0.92256515  0.56037121  1
  Se  Se151  1  0.08525561  0.24301849  0.45040964  1
  Se  Se152  1  0.08470507  0.24570745  0.94163426  1
  Se  Se153  1  0.08197891  0.58251653  0.44436953  1
  Se  Se154  1  0.07794147  0.59839899  0.94223111  1
  Se  Se155  1  0.08825817  0.91554704  0.44686458  1
  Se  Se156  1  0.08223603  0.91825512  0.94980637  1
  Se  Se157  1  0.41313244  0.24871317  0.44467374  1
  Se  Se158  1  0.41868440  0.24703591  0.93454374  1
  Se  Se159  1  0.41421626  0.58946913  0.44396316  1
  Se  Se160  1  0.41188192  0.58869879  0.93547677  1
  Se  Se161  1  0.42285269  0.92230489  0.44713999  1
  Se  Se162  1  0.40583151  0.92762816  0.93908536  1
  Se  Se163  1  0.75296458  0.24123493  0.44310634  1
  Se  Se164  1  0.75508006  0.24057817  0.95351968  1
  Se  Se165  1  0.75007241  0.58629085  0.45244360  1
  Se  Se166  1  0.74737006  0.58979577  0.94395358  1
  Se  Se167  1  0.74936713  0.92709794  0.43680288  1
  Se  Se168  1  0.74975492  0.92091657  0.94686311  1
  Se  Se169  1  0.24898324  0.08327844  0.44635118  1
  Se  Se170  1  0.24176193  0.08811593  0.94908759  1
  Se  Se171  1  0.24732960  0.41553213  0.45193231  1
  Se  Se172  1  0.25500366  0.40652964  0.93950307  1
  Se  Se173  1  0.26443916  0.74216239  0.45473453  1
  Se  Se174  1  0.24645214  0.75309714  0.94317947  1
  Se  Se175  1  0.58196644  0.08693604  0.43964834  1
  Se  Se176  1  0.58243221  0.06797421  0.93690750  1
  Se  Se177  1  0.59183613  0.41038865  0.43472552  1
  Se  Se178  1  0.59230137  0.40170460  0.94838892  1
  Se  Se179  1  0.59078278  0.75863447  0.45835922  1
  Se  Se180  1  0.59342147  0.74553780  0.94107211  1
  Se  Se181  1  0.91783821  0.08297903  0.45120537  1
  Se  Se182  1  0.91645766  0.08165987  0.94404580  1
  Se  Se183  1  0.91225408  0.41443544  0.44795487  1
  Se  Se184  1  0.92579184  0.41145421  0.93459944  1
  Se  Se185  1  0.92082677  0.75042256  0.43579182  1
  Se  Se186  1  0.90959627  0.75702298  0.95291012  1
  Se  Se187  1  0.23720866  0.23364132  0.30984176  1
  Se  Se188  1  0.24634999  0.24532317  0.80791579  1
  Se  Se189  1  0.24091444  0.58286227  0.31611530  1
  Se  Se190  1  0.24471985  0.58893616  0.79010491  1
  Se  Se191  1  0.25260258  0.91558506  0.30758764  1
  Se  Se192  1  0.24310931  0.92044834  0.80655271  1
  Se  Se193  1  0.58233283  0.24507156  0.29589024  1
  Se  Se194  1  0.58404281  0.23414723  0.80561051  1
  Se  Se195  1  0.58417685  0.59140309  0.30961026  1
  Se  Se196  1  0.57473168  0.58339748  0.81118424  1
  Se  Se197  1  0.58778358  0.91920041  0.30711418  1
  Se  Se198  1  0.58295670  0.90196676  0.79459733  1
  Se  Se199  1  0.91690043  0.24535201  0.31411215  1
  Se  Se200  1  0.91856870  0.24939645  0.80094879  1
  Se  Se201  1  0.91821975  0.58943065  0.30561006  1
  Se  Se202  1  0.91696929  0.57605949  0.80216853  1
  Se  Se203  1  0.92172477  0.92257685  0.30052035  1
  Se  Se204  1  0.91551941  0.91608877  0.80216853  1
  Se  Se205  1  0.07276425  0.06988690  0.30463335  1
  Se  Se206  1  0.08253780  0.08202293  0.80422514  1
  Se  Se207  1  0.08326718  0.41374553  0.31670181  1
  Se  Se208  1  0.08440002  0.41951662  0.79173877  1
  Se  Se209  1  0.08736108  0.75016562  0.30634920  1
  Se  Se210  1  0.08099295  0.76098718  0.80958328  1
  Se  Se211  1  0.41358006  0.08268251  0.29905663  1
  Se  Se212  1  0.41784007  0.08008498  0.79655835  1
  Se  Se213  1  0.42164495  0.42008912  0.31492836  1
  Se  Se214  1  0.41427970  0.42551007  0.80604967  1
  Se  Se215  1  0.42379428  0.75809548  0.32237125  1
  Se  Se216  1  0.40256358  0.75418756  0.79392091  1
  Se  Se217  1  0.75289997  0.08322719  0.30378524  1
  Se  Se218  1  0.75029811  0.08005114  0.80214576  1
  Se  Se219  1  0.75010453  0.41879264  0.30483835  1
  Se  Se220  1  0.75812457  0.42086965  0.80943912  1
  Se  Se221  1  0.75136663  0.75461798  0.30685744  1
  Se  Se222  1  0.75506096  0.74597120  0.80922822  1
  Se  Se223  1  0.25760300  0.07242329  0.19656559  1
  Se  Se224  1  0.25092581  0.08064230  0.69857407  1
  Se  Se225  1  0.23950062  0.42132345  0.20210619  1
  Se  Se226  1  0.24516720  0.41923984  0.67968953  1
  Se  Se227  1  0.25131171  0.75116354  0.19408623  1
  Se  Se228  1  0.24281857  0.75394666  0.69004763  1
  Se  Se229  1  0.58013111  0.09135125  0.21049880  1
  Se  Se230  1  0.59079074  0.07531362  0.68773323  1
  Se  Se231  1  0.58765982  0.41764736  0.20620206  1
  Se  Se232  1  0.57550072  0.42766988  0.69689914  1
  Se  Se233  1  0.58942753  0.74838135  0.20606130  1
  Se  Se234  1  0.56957222  0.76366512  0.68297552  1
  Se  Se235  1  0.91454540  0.08874467  0.19499441  1
  Se  Se236  1  0.91927172  0.08030735  0.69388103  1
  Se  Se237  1  0.90757337  0.42948969  0.18871573  1
  Se  Se238  1  0.92373753  0.40862135  0.69183933  1
  Se  Se239  1  0.92151423  0.75495300  0.19918281  1
  Se  Se240  1  0.90441347  0.76049656  0.69340879  1
  Se  Se241  1  0.09232321  0.24051217  0.19395068  1
  Se  Se242  1  0.08097120  0.24962697  0.69760408  1
  Se  Se243  1  0.07739033  0.58781531  0.20600457  1
  Se  Se244  1  0.09231007  0.58571706  0.67231805  1
  Se  Se245  1  0.08566376  0.91651384  0.19815424  1
  Se  Se246  1  0.08006009  0.91938765  0.69490116  1
  Se  Se247  1  0.41586208  0.24211612  0.18393752  1
  Se  Se248  1  0.42800704  0.24091548  0.68303428  1
  Se  Se249  1  0.42338456  0.57227586  0.19416441  1
  Se  Se250  1  0.40781363  0.59664029  0.69552136  1
  Se  Se251  1  0.41982471  0.90895462  0.20170328  1
  Se  Se252  1  0.40394755  0.93260135  0.69122496  1
  Se  Se253  1  0.75167993  0.25873155  0.20236323  1
  Se  Se254  1  0.75707886  0.23584053  0.68353962  1
  Se  Se255  1  0.74932788  0.59343385  0.20253760  1
  Se  Se256  1  0.75580467  0.57499669  0.69009965  1
  Se  Se257  1  0.75208815  0.92159427  0.19946571  1
  Se  Se258  1  0.75053678  0.91259359  0.70101783  1
