# generated using pymatgen
data_In86Cu29Se144
_symmetry_space_group_name_H-M   'P 1'
_cell_length_a   17.58133706
_cell_length_b   17.57927936
_cell_length_c   23.43752637
_cell_angle_alpha   90.01224335
_cell_angle_beta   89.99575521
_cell_angle_gamma   90.02960397
_symmetry_Int_Tables_number   1
_chemical_formula_structural   In86Cu29Se144
_chemical_formula_sum   'In86 Cu29 Se144'
_cell_volume   7243.77033363
_cell_formula_units_Z   1
loop_
 _symmetry_equiv_pos_site_id
 _symmetry_equiv_pos_as_xyz
  1  'x, y, z'
loop_
 _atom_site_type_symbol
 _atom_site_label
 _atom_site_symmetry_multiplicity
 _atom_site_fract_x
 _atom_site_fract_y
 _atom_site_fract_z
 _atom_site_occupancy
  In  In0  1  -0.01788025  0.16809257  0.11739048  1
  In  In1  1  -0.01073736  0.18016250  0.61806591  1
  In  In2  1  0.00690146  0.49756626  0.12659091  1
  In  In3  1  0.03178772  0.50081662  0.62404646  1
  In  In4  1  0.00537124  0.83981043  0.11568330  1
  In  In5  1  -0.00555808  0.82569968  0.62097249  1
  In  In6  1  0.35075613  0.14962583  0.13645269  1
  In  In7  1  0.34357032  0.16137139  0.63354032  1
  In  In8  1  0.32426589  0.49658955  0.12663688  1
  In  In9  1  0.33340131  0.50040910  0.62944711  1
  In  In10  1  0.34066122  0.84844951  0.10906600  1
  In  In11  1  0.33300364  0.83733497  0.62167227  1
  In  In12  1  0.65693892  0.15565550  0.11954290  1
  In  In13  1  0.67482414  0.15852532  0.63136855  1
  In  In14  1  0.66897431  0.50894989  0.12636283  1
  In  In15  1  0.65568274  0.51007274  0.63122942  1
  In  In16  1  0.66722343  0.83629466  0.12598965  1
  In  In17  1  0.66595540  0.83443266  0.62561090  1
  In  In18  1  0.17848416  -0.01524534  0.37650955  1
  In  In19  1  0.17262792  -0.01387194  0.87730350  1
  In  In20  1  0.18083721  0.32654186  0.37944315  1
  In  In21  1  0.17370024  0.32595216  0.86994846  1
  In  In22  1  0.16752973  0.66830821  0.38769238  1
  In  In23  1  0.18206898  0.68020413  0.85037448  1
  In  In24  1  0.48920028  -0.01487483  0.36811882  1
  In  In25  1  0.49858422  -0.00602930  0.87436499  1
  In  In26  1  0.49426108  0.34415599  0.38054295  1
  In  In27  1  0.49282091  0.32113252  0.86968218  1
  In  In28  1  0.49928597  0.66794853  0.38092241  1
  In  In29  1  0.51012127  0.68199395  0.86408872  1
  In  In30  1  0.82133777  0.00254693  0.37727180  1
  In  In31  1  0.81985221  0.01033644  0.88290618  1
  In  In32  1  0.82686425  0.32368702  0.38112295  1
  In  In33  1  0.82546586  0.33393102  0.87521843  1
  In  In34  1  0.83238505  0.68286336  0.37896064  1
  In  In35  1  0.83868673  0.67420722  0.86610402  1
  In  In36  1  -0.00987217  0.16003034  0.37462536  1
  In  In37  1  0.00031739  0.15942569  0.88118777  1
  In  In38  1  0.00324044  0.51285727  0.38250315  1
  In  In39  1  -0.00679086  0.50641312  0.86786532  1
  In  In40  1  0.00771462  0.82804655  0.38388202  1
  In  In41  1  0.00325533  0.82448325  0.87940670  1
  In  In42  1  0.33117228  0.16350991  0.36910677  1
  In  In43  1  0.34094843  0.16645151  0.87272942  1
  In  In44  1  0.33842449  0.49465722  0.38689217  1
  In  In45  1  0.32637791  0.50157546  0.85901567  1
  In  In46  1  0.32618484  0.85044155  0.39300819  1
  In  In47  1  0.33899007  0.83723463  0.86927380  1
  In  In48  1  0.67890421  0.15739412  0.37462203  1
  In  In49  1  0.66443054  0.16159812  0.87373863  1
  In  In50  1  0.64646007  0.50386508  0.38119874  1
  In  In51  1  0.67104687  0.49914600  0.86353516  1
  In  In52  1  0.66393359  0.83516024  0.37447244  1
  In  In53  1  0.66330878  0.83841822  0.87503313  1
  In  In54  1  0.18013856  -0.00771562  0.12687416  1
  In  In55  1  0.18443115  -0.00380802  0.62364870  1
  In  In56  1  0.17140472  0.34118843  0.12702853  1
  In  In57  1  0.16990493  0.35622908  0.62392588  1
  In  In58  1  0.16083708  0.67244512  0.12259755  1
  In  In59  1  0.16997434  0.66817308  0.62968766  1
  In  In60  1  0.49952656  0.00135011  0.12181955  1
  In  In61  1  0.50435764  -0.00412265  0.62729732  1
  In  In62  1  0.50209726  0.31571977  0.12384366  1
  In  In63  1  0.48972712  0.34556503  0.63405775  1
  In  In64  1  0.49658001  0.68884544  0.12163092  1
  In  In65  1  0.50084363  0.66903933  0.62520307  1
  In  In66  1  0.82590698  -0.00499416  0.12188591  1
  In  In67  1  0.82762019  -0.01000173  0.61953039  1
  In  In68  1  0.83006136  0.31676704  0.12096950  1
  In  In69  1  0.83887401  0.31692517  0.62354638  1
  In  In70  1  0.81948461  0.66655715  0.12831811  1
  In  In71  1  0.82327300  0.67660475  0.63217398  1
  In  In72  1  -0.00063840  -0.00085271  0.75730426  1
  In  In73  1  0.16093737  0.16577396  0.49874134  1
  In  In74  1  0.17072895  0.16036375  -0.00182140  1
  In  In75  1  0.65647338  0.33190926  0.25178272  1
  In  In76  1  0.00371764  0.33857409  0.74479979  1
  In  In77  1  -0.00115978  0.33285489  0.24917837  1
  In  In78  1  0.49682225  0.50213792  -0.01463577  1
  In  In79  1  0.83535077  0.50070245  0.50849704  1
  In  In80  1  0.83333752  0.50100597  -0.00511353  1
  In  In81  1  0.00123214  -0.00001874  0.24577242  1
  In  In82  1  0.16381332  0.50481196  -0.00152441  1
  In  In83  1  0.33672116  0.67562334  0.24901424  1
  In  In84  1  -0.00040965  0.67376976  0.26038862  1
  In  In85  1  0.50356715  0.16060592  0.50851344  1
  Cu  Cu86  1  0.83384817  0.50318766  0.74499647  1
  Cu  Cu87  1  0.17512984  0.49712388  0.25652911  1
  Cu  Cu88  1  0.83158004  0.83629522  0.25122599  1
  Cu  Cu89  1  0.50856485  0.16379587  0.75208214  1
  Cu  Cu90  1  0.50425858  0.83883759  0.24692122  1
  Cu  Cu91  1  0.66845849  0.32140888  -0.00336151  1
  Cu  Cu92  1  0.66325640  0.67688878  -0.00095215  1
  Cu  Cu93  1  0.66658809  0.67157282  0.50564164  1
  Cu  Cu94  1  0.33163769  0.33463116  0.50709151  1
  Cu  Cu95  1  0.83034709  0.16374225  0.75146644  1
  Cu  Cu96  1  -0.00321039  -0.00135980  0.49887753  1
  Cu  Cu97  1  0.00808033  0.66596494  0.50624541  1
  Cu  Cu98  1  0.49754711  0.16288332  0.24904852  1
  Cu  Cu99  1  0.49909162  0.83235795  0.74700969  1
  Cu  Cu100  1  0.16954749  0.16732439  0.24968350  1
  Cu  Cu101  1  0.66496759  -0.00253506  -0.00069937  1
  Cu  Cu102  1  0.66296766  0.33292073  0.50076490  1
  Cu  Cu103  1  0.32970926  0.68050232  -0.01228646  1
  Cu  Cu104  1  -0.00702309  -0.00147694  -0.00010770  1
  Cu  Cu105  1  0.33662925  0.32737585  -0.00010674  1
  Cu  Cu106  1  0.17865066  0.16993781  0.74775385  1
  Cu  Cu107  1  0.16881350  0.83410453  0.74854501  1
  Cu  Cu108  1  0.33532185  0.66447332  0.50814374  1
  Cu  Cu109  1  -0.00139397  0.66954165  -0.00463321  1
  Cu  Cu110  1  0.49330926  0.50361086  0.25778379  1
  Cu  Cu111  1  0.66781738  -0.00541234  0.50129003  1
  Cu  Cu112  1  0.50117444  0.50287719  0.74908635  1
  Cu  Cu113  1  0.82398640  0.83894588  0.75004507  1
  Cu  Cu114  1  0.82058539  0.49934598  0.24923323  1
  Se  Se115  1  0.07614411  0.07548428  0.06174792  1
  Se  Se116  1  0.07456753  0.07545896  0.56375921  1
  Se  Se117  1  0.07492857  0.40607885  0.05378687  1
  Se  Se118  1  0.06594140  0.39552675  0.55289871  1
  Se  Se119  1  0.08456904  0.75043074  0.04917825  1
  Se  Se120  1  0.09079915  0.75249070  0.55730955  1
  Se  Se121  1  0.41847519  0.08696768  0.05368949  1
  Se  Se122  1  0.40559599  0.06966069  0.55710750  1
  Se  Se123  1  0.41488702  0.41504643  0.05712891  1
  Se  Se124  1  0.41704234  0.42012835  0.55598045  1
  Se  Se125  1  0.41804395  0.75535979  0.04350478  1
  Se  Se126  1  0.41970894  0.75208082  0.55573334  1
  Se  Se127  1  0.74967184  0.08266090  0.05200779  1
  Se  Se128  1  0.74915079  0.08187629  0.55397042  1
  Se  Se129  1  0.73917990  0.41094918  0.05690691  1
  Se  Se130  1  0.74118364  0.41125481  0.56502353  1
  Se  Se131  1  0.75060250  0.75164764  0.05554618  1
  Se  Se132  1  0.75289414  0.75503511  0.55467681  1
  Se  Se133  1  0.25570951  0.25182213  0.06206987  1
  Se  Se134  1  0.25424898  0.24814595  0.56426716  1
  Se  Se135  1  0.26145208  0.59643395  0.05376224  1
  Se  Se136  1  0.24923745  0.58133984  0.55944481  1
  Se  Se137  1  0.23772439  0.91312399  0.04650015  1
  Se  Se138  1  0.24363744  0.90835773  0.54952760  1
  Se  Se139  1  0.58029260  0.24328500  0.04897407  1
  Se  Se140  1  0.58684709  0.25638450  0.56760605  1
  Se  Se141  1  0.58289418  0.58937543  0.05424061  1
  Se  Se142  1  0.58217033  0.58463286  0.55360634  1
  Se  Se143  1  0.58367186  0.91507216  0.05553417  1
  Se  Se144  1  0.58240876  0.91468984  0.55464305  1
  Se  Se145  1  0.91980252  0.26012262  0.04699984  1
  Se  Se146  1  0.90674400  0.24584428  0.54263564  1
  Se  Se147  1  0.92399621  0.58961718  0.06040757  1
  Se  Se148  1  0.92434190  0.59071415  0.56836148  1
  Se  Se149  1  0.91044446  0.91370350  0.05280178  1
  Se  Se150  1  0.91560483  0.91252674  0.55232899  1
  Se  Se151  1  0.07182600  0.25599188  0.43798567  1
  Se  Se152  1  0.08165007  0.25816074  0.94277767  1
  Se  Se153  1  0.09043574  0.57891068  0.45567224  1
  Se  Se154  1  0.08056482  0.59380845  0.93413566  1
  Se  Se155  1  0.08626576  0.91944917  0.44806358  1
  Se  Se156  1  0.07746523  0.91900774  0.94485527  1
  Se  Se157  1  0.40948934  0.25060967  0.44680401  1
  Se  Se158  1  0.42026053  0.24484824  0.94751371  1
  Se  Se159  1  0.41878406  0.58395640  0.45042038  1
  Se  Se160  1  0.40577971  0.59432032  0.92952711  1
  Se  Se161  1  0.43246435  0.91232944  0.45279306  1
  Se  Se162  1  0.42680147  0.90278378  0.94337419  1
  Se  Se163  1  0.74293131  0.24574331  0.45033781  1
  Se  Se164  1  0.75373035  0.24258348  0.94270660  1
  Se  Se165  1  0.74560819  0.58837617  0.44393834  1
  Se  Se166  1  0.74062695  0.59199372  0.93951660  1
  Se  Se167  1  0.75150707  0.91111775  0.44641286  1
  Se  Se168  1  0.74972237  0.91305513  0.94777071  1
  Se  Se169  1  0.25853113  0.07826650  0.44519800  1
  Se  Se170  1  0.26325500  0.07146418  0.94232157  1
  Se  Se171  1  0.24660881  0.41556264  0.45225918  1
  Se  Se172  1  0.25915109  0.41225137  0.94185463  1
  Se  Se173  1  0.25403799  0.74888583  0.45323471  1
  Se  Se174  1  0.24227178  0.75618297  0.93330077  1
  Se  Se175  1  0.58703537  0.07477719  0.44070269  1
  Se  Se176  1  0.58272127  0.07919119  0.94303295  1
  Se  Se177  1  0.57649814  0.41821950  0.45435000  1
  Se  Se178  1  0.59406039  0.40815684  0.93663875  1
  Se  Se179  1  0.58544899  0.75158601  0.44623763  1
  Se  Se180  1  0.57805972  0.75571109  0.94494261  1
  Se  Se181  1  0.91218225  0.07983975  0.44544729  1
  Se  Se182  1  0.91246134  0.08658722  0.94981593  1
  Se  Se183  1  0.91869747  0.41390250  0.44039203  1
  Se  Se184  1  0.92714621  0.41043038  0.93962253  1
  Se  Se185  1  0.92270296  0.74662893  0.45164887  1
  Se  Se186  1  0.90874428  0.75014686  0.94591841  1
  Se  Se187  1  0.25286466  0.25235896  0.30143920  1
  Se  Se188  1  0.26140526  0.25194337  0.80199807  1
  Se  Se189  1  0.25082150  0.58374871  0.31361771  1
  Se  Se190  1  0.24327774  0.57678527  0.78923394  1
  Se  Se191  1  0.26324883  0.91368739  0.30559612  1
  Se  Se192  1  0.25252892  0.91911494  0.79976857  1
  Se  Se193  1  0.57146875  0.24160094  0.31629921  1
  Se  Se194  1  0.58955851  0.25150826  0.80391589  1
  Se  Se195  1  0.57895352  0.58785042  0.30607210  1
  Se  Se196  1  0.58616031  0.58602552  0.80113777  1
  Se  Se197  1  0.58868347  0.92061119  0.30174351  1
  Se  Se198  1  0.58235823  0.91595965  0.80164911  1
  Se  Se199  1  0.90350795  0.24298390  0.30331861  1
  Se  Se200  1  0.91796298  0.24293390  0.80692523  1
  Se  Se201  1  0.90430624  0.57575107  0.30993989  1
  Se  Se202  1  0.91699703  0.58805419  0.79667658  1
  Se  Se203  1  0.91868657  0.90858823  0.31179756  1
  Se  Se204  1  0.90526359  0.91284682  0.81547607  1
  Se  Se205  1  0.09236260  0.08712577  0.31114034  1
  Se  Se206  1  0.09736270  0.09287772  0.80963099  1
  Se  Se207  1  0.08672137  0.42202580  0.31333675  1
  Se  Se208  1  0.09344037  0.42429306  0.80744452  1
  Se  Se209  1  0.10201892  0.75895178  0.30957599  1
  Se  Se210  1  0.07535395  0.75584083  0.79765007  1
  Se  Se211  1  0.41421043  0.07923560  0.30314492  1
  Se  Se212  1  0.42098698  0.08204841  0.80387840  1
  Se  Se213  1  0.41084419  0.41774401  0.30747108  1
  Se  Se214  1  0.42142709  0.41665879  0.80348998  1
  Se  Se215  1  0.42335680  0.76304067  0.31131534  1
  Se  Se216  1  0.41232968  0.74807577  0.79745744  1
  Se  Se217  1  0.75137621  0.07957740  0.30003793  1
  Se  Se218  1  0.74659715  0.07897175  0.80213710  1
  Se  Se219  1  0.74703838  0.42120596  0.31479026  1
  Se  Se220  1  0.75674330  0.41442294  0.79858210  1
  Se  Se221  1  0.74920091  0.75119658  0.30447132  1
  Se  Se222  1  0.74393575  0.75210630  0.80467148  1
  Se  Se223  1  0.25061219  0.07942028  0.19892508  1
  Se  Se224  1  0.25606937  0.07793975  0.69847788  1
  Se  Se225  1  0.25449680  0.41333498  0.20140419  1
  Se  Se226  1  0.26100942  0.40780646  0.69830527  1
  Se  Se227  1  0.25083341  0.75883552  0.18302053  1
  Se  Se228  1  0.25512084  0.75407420  0.69490786  1
  Se  Se229  1  0.58120422  0.08088558  0.19591700  1
  Se  Se230  1  0.58683122  0.07813254  0.69674527  1
  Se  Se231  1  0.57032913  0.42585076  0.18995611  1
  Se  Se232  1  0.58663106  0.41578161  0.70000737  1
  Se  Se233  1  0.58513565  0.75031488  0.19608108  1
  Se  Se234  1  0.58569827  0.74964268  0.69515609  1
  Se  Se235  1  0.90559489  0.08985923  0.19324270  1
  Se  Se236  1  0.91421315  0.08735913  0.69086602  1
  Se  Se237  1  0.90237568  0.42299104  0.18932455  1
  Se  Se238  1  0.91367231  0.42597054  0.68245224  1
  Se  Se239  1  0.91415815  0.75672998  0.19089105  1
  Se  Se240  1  0.91186255  0.75827793  0.69828333  1
  Se  Se241  1  0.08663648  0.23986044  0.18711949  1
  Se  Se242  1  0.09292569  0.24271326  0.68691775  1
  Se  Se243  1  0.09224581  0.57803688  0.19918772  1
  Se  Se244  1  0.08239503  0.59089231  0.69952643  1
  Se  Se245  1  0.09242669  0.90387247  0.19471507  1
  Se  Se246  1  0.08574723  0.91561561  0.69014836  1
  Se  Se247  1  0.41611844  0.25348932  0.20015709  1
  Se  Se248  1  0.42246040  0.24768212  0.70053987  1
  Se  Se249  1  0.42326478  0.58065333  0.18684241  1
  Se  Se250  1  0.41877250  0.58606824  0.69514379  1
  Se  Se251  1  0.41715407  0.91461276  0.19023089  1
  Se  Se252  1  0.41573735  0.91710901  0.69438888  1
  Se  Se253  1  0.74506043  0.24174933  0.19282182  1
  Se  Se254  1  0.75155479  0.25149032  0.69819812  1
  Se  Se255  1  0.73990076  0.58922662  0.20199146  1
  Se  Se256  1  0.74521427  0.58767312  0.69843485  1
  Se  Se257  1  0.74887530  0.91856416  0.19727634  1
  Se  Se258  1  0.74441113  0.92298039  0.69577744  1
