# generated using pymatgen
data_In86Cu29Se144
_symmetry_space_group_name_H-M   'P 1'
_cell_length_a   17.57779156
_cell_length_b   17.58118532
_cell_length_c   23.44362504
_cell_angle_alpha   90.03251979
_cell_angle_beta   89.99408883
_cell_angle_gamma   90.02577064
_symmetry_Int_Tables_number   1
_chemical_formula_structural   In86Cu29Se144
_chemical_formula_sum   'In86 Cu29 Se144'
_cell_volume   7244.97869377
_cell_formula_units_Z   1
loop_
 _symmetry_equiv_pos_site_id
 _symmetry_equiv_pos_as_xyz
  1  'x, y, z'
loop_
 _atom_site_type_symbol
 _atom_site_label
 _atom_site_symmetry_multiplicity
 _atom_site_fract_x
 _atom_site_fract_y
 _atom_site_fract_z
 _atom_site_occupancy
  In  In0  1  0.00677120  0.17529450  0.12617819  1
  In  In1  1  -0.00512058  0.17658698  0.63242816  1
  In  In2  1  0.00159591  0.49065493  0.12338850  1
  In  In3  1  -0.00052868  0.50357906  0.62226458  1
  In  In4  1  -0.00222417  0.82992163  0.11487516  1
  In  In5  1  0.00340717  0.81092160  0.63056838  1
  In  In6  1  0.34144018  0.15915596  0.13232411  1
  In  In7  1  0.33877745  0.15283463  0.62922106  1
  In  In8  1  0.32445557  0.50178493  0.12508632  1
  In  In9  1  0.33590974  0.50451593  0.62454971  1
  In  In10  1  0.34254593  0.84463432  0.11382511  1
  In  In11  1  0.33339669  0.83046073  0.62608639  1
  In  In12  1  0.65910911  0.17737457  0.13368047  1
  In  In13  1  0.65836861  0.18537641  0.63027356  1
  In  In14  1  0.65742919  0.49180130  0.12952671  1
  In  In15  1  0.66442649  0.50059578  0.62497695  1
  In  In16  1  0.67784445  0.84805955  0.11205591  1
  In  In17  1  0.65164429  0.83724554  0.62558041  1
  In  In18  1  0.16983020  -0.01280825  0.37457220  1
  In  In19  1  0.17205462  -0.01651654  0.87711211  1
  In  In20  1  0.17405191  0.33616021  0.37311327  1
  In  In21  1  0.17358214  0.36395048  0.87284925  1
  In  In22  1  0.16742786  0.66527777  0.38493281  1
  In  In23  1  0.17237784  0.66498694  0.86958392  1
  In  In24  1  0.49907127  0.00108639  0.37301856  1
  In  In25  1  0.49179968  0.00543338  0.87916810  1
  In  In26  1  0.50048113  0.33076111  0.37887941  1
  In  In27  1  0.50015532  0.31726613  0.87274217  1
  In  In28  1  0.49913565  0.67030040  0.38751018  1
  In  In29  1  0.50976446  0.67807408  0.86568104  1
  In  In30  1  0.83027676  0.01251194  0.36820250  1
  In  In31  1  0.81799271  -0.00106382  0.87917492  1
  In  In32  1  0.83879442  0.33515134  0.36449449  1
  In  In33  1  0.83971264  0.33488492  0.86338733  1
  In  In34  1  0.81965954  0.66125930  0.37816585  1
  In  In35  1  0.83401004  0.66711949  0.87156758  1
  In  In36  1  -0.01188308  0.17959879  0.37200939  1
  In  In37  1  -0.00033191  0.18587731  0.87148606  1
  In  In38  1  0.00756955  0.49110596  0.38436354  1
  In  In39  1  0.02042385  0.51684925  0.85476563  1
  In  In40  1  0.01064573  0.84312515  0.37759632  1
  In  In41  1  0.00991038  0.81816116  0.88014102  1
  In  In42  1  0.34479640  0.17593677  0.36891426  1
  In  In43  1  0.36218178  0.17433031  0.86975531  1
  In  In44  1  0.34314675  0.49305895  0.38823010  1
  In  In45  1  0.31711105  0.49790743  0.87574034  1
  In  In46  1  0.32970594  0.83706373  0.37606589  1
  In  In47  1  0.33607997  0.83093701  0.87165681  1
  In  In48  1  0.66063893  0.15636694  0.36487018  1
  In  In49  1  0.65116486  0.16889379  0.87030613  1
  In  In50  1  0.67291275  0.49336949  0.38596811  1
  In  In51  1  0.67038443  0.50242081  0.86558928  1
  In  In52  1  0.65641142  0.83151839  0.37143403  1
  In  In53  1  0.66741509  0.82091001  0.88890691  1
  In  In54  1  0.17845073  0.00132020  0.12404180  1
  In  In55  1  0.18924214  0.00265856  0.62725661  1
  In  In56  1  0.16320561  0.34113689  0.12922505  1
  In  In57  1  0.15375161  0.34030089  0.62798976  1
  In  In58  1  0.16466536  0.66364939  0.11173503  1
  In  In59  1  0.16566814  0.66257225  0.62678432  1
  In  In60  1  0.49762110  0.00192421  0.12497132  1
  In  In61  1  0.49017915  -0.01307851  0.61532341  1
  In  In62  1  0.50704674  0.32427646  0.13170176  1
  In  In63  1  0.50208696  0.34077139  0.62025347  1
  In  In64  1  0.49131324  0.66611768  0.11820878  1
  In  In65  1  0.49838962  0.66768756  0.62830266  1
  In  In66  1  0.82660463  -0.01564733  0.12795464  1
  In  In67  1  0.82941962  -0.00302309  0.62137184  1
  In  In68  1  0.83358725  0.33079552  0.13634422  1
  In  In69  1  0.81643401  0.34765443  0.63296834  1
  In  In70  1  0.82681954  0.68558689  0.12144674  1
  In  In71  1  0.84583009  0.65320601  0.63499499  1
  In  In72  1  0.82756335  0.16761727  0.49301510  1
  In  In73  1  0.83139110  0.16586809  0.00264506  1
  In  In74  1  0.83681617  0.50342061  -0.00526360  1
  In  In75  1  0.65747032  0.00312330  0.75552835  1
  In  In76  1  0.17373382  0.16733544  0.50433837  1
  In  In77  1  -0.00059484  0.66432455  0.24355567  1
  In  In78  1  0.83329379  0.82789367  0.49894293  1
  In  In79  1  0.33241741  0.33842462  0.74834865  1
  In  In80  1  0.33294119  0.66581931  0.24667931  1
  In  In81  1  0.17496814  0.16284220  0.00504261  1
  In  In82  1  0.00283531  -0.00142327  0.75333702  1
  In  In83  1  0.66319203  0.66783150  0.24841809  1
  In  In84  1  0.49813748  0.50135202  -0.00105184  1
  In  In85  1  -0.00223009  0.00811377  0.25195626  1
  Cu  Cu86  1  0.65755975  -0.00167473  0.00014912  1
  Cu  Cu87  1  0.00078512  0.66625638  -0.00937173  1
  Cu  Cu88  1  0.17092893  0.49087756  0.25728286  1
  Cu  Cu89  1  0.32880655  0.66881953  -0.00648092  1
  Cu  Cu90  1  0.66077880  0.33644770  0.50046706  1
  Cu  Cu91  1  0.17189655  0.83526188  0.24667798  1
  Cu  Cu92  1  0.66585946  0.66514659  0.50711037  1
  Cu  Cu93  1  0.33383051  -0.00383855  -0.00080944  1
  Cu  Cu94  1  0.83253353  0.49659932  0.74545465  1
  Cu  Cu95  1  0.33307173  0.66992029  0.50721814  1
  Cu  Cu96  1  -0.00700274  0.33903634  0.50183821  1
  Cu  Cu97  1  0.50346015  0.48802239  0.25882602  1
  Cu  Cu98  1  0.00927027  0.34517150  -0.00301013  1
  Cu  Cu99  1  0.01293008  -0.00415377  0.50287457  1
  Cu  Cu100  1  0.65819297  0.00272041  0.49578490  1
  Cu  Cu101  1  0.17352240  0.16706234  0.75063938  1
  Cu  Cu102  1  0.16830279  0.17142023  0.24660535  1
  Cu  Cu103  1  0.34032284  -0.00417267  0.49903829  1
  Cu  Cu104  1  0.82897716  0.83181538  0.75764731  1
  Cu  Cu105  1  0.49554982  0.83109853  0.74895166  1
  Cu  Cu106  1  0.50211174  0.50034774  0.74497632  1
  Cu  Cu107  1  0.83469027  0.49841872  0.25165821  1
  Cu  Cu108  1  0.66470635  0.32929050  0.00230097  1
  Cu  Cu109  1  0.33297445  0.33597720  0.49927552  1
  Cu  Cu110  1  0.00246750  0.66260416  0.50608901  1
  Cu  Cu111  1  0.17108779  0.82918117  0.75033291  1
  Cu  Cu112  1  -0.00776790  -0.00768504  -0.00301818  1
  Cu  Cu113  1  0.49678956  0.16365161  0.25135731  1
  Cu  Cu114  1  0.50106677  0.84165977  0.24657758  1
  Se  Se115  1  0.07225066  0.07298328  0.05757946  1
  Se  Se116  1  0.08013724  0.08096378  0.56686508  1
  Se  Se117  1  0.09282298  0.42475104  0.05219395  1
  Se  Se118  1  0.08197251  0.41897280  0.55192774  1
  Se  Se119  1  0.08304533  0.75061988  0.04705180  1
  Se  Se120  1  0.08743815  0.74929831  0.55342385  1
  Se  Se121  1  0.41297726  0.08222398  0.05417848  1
  Se  Se122  1  0.41822735  0.08597992  0.55055532  1
  Se  Se123  1  0.41723903  0.41280344  0.06483474  1
  Se  Se124  1  0.41491305  0.42075967  0.55381372  1
  Se  Se125  1  0.41374149  0.74886404  0.04814251  1
  Se  Se126  1  0.42067756  0.75290311  0.55659167  1
  Se  Se127  1  0.74013610  0.07796018  0.06165249  1
  Se  Se128  1  0.73819343  0.08034571  0.55757874  1
  Se  Se129  1  0.74877566  0.41058530  0.05852180  1
  Se  Se130  1  0.74652237  0.41877016  0.55246008  1
  Se  Se131  1  0.74068570  0.74648231  0.04767991  1
  Se  Se132  1  0.74821974  0.74546254  0.56690228  1
  Se  Se133  1  0.25720158  0.25412688  0.06680553  1
  Se  Se134  1  0.25883569  0.25842969  0.56714751  1
  Se  Se135  1  0.25237142  0.58023292  0.04817690  1
  Se  Se136  1  0.24906694  0.58264572  0.55530170  1
  Se  Se137  1  0.24366892  0.91520468  0.04877649  1
  Se  Se138  1  0.25414523  0.91614120  0.55330171  1
  Se  Se139  1  0.58152862  0.24644186  0.05441564  1
  Se  Se140  1  0.57888806  0.25008345  0.55123086  1
  Se  Se141  1  0.59442867  0.58808277  0.05805649  1
  Se  Se142  1  0.57881083  0.58311825  0.55775434  1
  Se  Se143  1  0.57294158  0.91542600  0.05287956  1
  Se  Se144  1  0.58118261  0.91207255  0.54685407  1
  Se  Se145  1  0.92528348  0.26483029  0.05494560  1
  Se  Se146  1  0.91264525  0.25579398  0.55880244  1
  Se  Se147  1  0.92400562  0.59398806  0.06070092  1
  Se  Se148  1  0.91073732  0.58117737  0.55165739  1
  Se  Se149  1  0.90820331  0.91322168  0.05202388  1
  Se  Se150  1  0.92762486  0.91677523  0.56014361  1
  Se  Se151  1  0.07582534  0.25346850  0.44592114  1
  Se  Se152  1  0.08935181  0.25730118  0.94348319  1
  Se  Se153  1  0.08564341  0.57977362  0.45073279  1
  Se  Se154  1  0.08594535  0.58240733  0.94014400  1
  Se  Se155  1  0.09529994  0.91103882  0.45211898  1
  Se  Se156  1  0.08203864  0.91331009  0.94661766  1
  Se  Se157  1  0.41526112  0.24897584  0.44901570  1
  Se  Se158  1  0.42039986  0.25226142  0.95098228  1
  Se  Se159  1  0.41746998  0.58587133  0.45369352  1
  Se  Se160  1  0.41182789  0.58905494  0.93462258  1
  Se  Se161  1  0.42119869  0.91289675  0.44254151  1
  Se  Se162  1  0.41607306  0.91292546  0.94434370  1
  Se  Se163  1  0.73871566  0.25858566  0.43497318  1
  Se  Se164  1  0.74843324  0.25687579  0.93862677  1
  Se  Se165  1  0.75053641  0.58243630  0.45445999  1
  Se  Se166  1  0.73899545  0.59046784  0.94232644  1
  Se  Se167  1  0.74772246  0.92507155  0.43994564  1
  Se  Se168  1  0.74678417  0.91610872  0.95173398  1
  Se  Se169  1  0.25787090  0.07825086  0.43964096  1
  Se  Se170  1  0.26002056  0.08006860  0.93618989  1
  Se  Se171  1  0.24419726  0.41689867  0.44956728  1
  Se  Se172  1  0.26481701  0.40487822  0.95153273  1
  Se  Se173  1  0.25386923  0.75112322  0.44678859  1
  Se  Se174  1  0.24638691  0.75316387  0.94037820  1
  Se  Se175  1  0.57935146  0.08860486  0.44217039  1
  Se  Se176  1  0.58201663  0.08608505  0.94533074  1
  Se  Se177  1  0.57534740  0.42104232  0.44896608  1
  Se  Se178  1  0.59195662  0.41316424  0.93956961  1
  Se  Se179  1  0.59043801  0.75207378  0.45008835  1
  Se  Se180  1  0.56875326  0.74929151  0.95066790  1
  Se  Se181  1  0.92995983  0.07356310  0.44344212  1
  Se  Se182  1  0.92389759  0.08145138  0.93750440  1
  Se  Se183  1  0.90758222  0.41440211  0.44346868  1
  Se  Se184  1  0.92701832  0.41769582  0.93379902  1
  Se  Se185  1  0.92769116  0.74030894  0.43799251  1
  Se  Se186  1  0.91070059  0.74932052  0.94483382  1
  Se  Se187  1  0.25180450  0.25184310  0.30380019  1
  Se  Se188  1  0.24761443  0.24850536  0.81512117  1
  Se  Se189  1  0.24860858  0.57791438  0.31318975  1
  Se  Se190  1  0.23944354  0.56952650  0.80105241  1
  Se  Se191  1  0.25447514  0.91723191  0.30038052  1
  Se  Se192  1  0.25371239  0.91577037  0.80104203  1
  Se  Se193  1  0.57786740  0.24991352  0.30516019  1
  Se  Se194  1  0.58622493  0.25577339  0.79728469  1
  Se  Se195  1  0.57767875  0.58013404  0.31452685  1
  Se  Se196  1  0.58472421  0.58477047  0.79976495  1
  Se  Se197  1  0.58516667  0.92074609  0.30230088  1
  Se  Se198  1  0.57657579  0.90561660  0.81448874  1
  Se  Se199  1  0.90863782  0.24339982  0.29541295  1
  Se  Se200  1  0.91344424  0.24353978  0.79629059  1
  Se  Se201  1  0.91363554  0.57933479  0.31144522  1
  Se  Se202  1  0.91117813  0.58348609  0.80049864  1
  Se  Se203  1  0.91237176  0.90924268  0.30946514  1
  Se  Se204  1  0.91113742  0.91201442  0.81545872  1
  Se  Se205  1  0.09245342  0.09419495  0.31411272  1
  Se  Se206  1  0.09301473  0.08909482  0.81419741  1
  Se  Se207  1  0.07983030  0.41269253  0.30745199  1
  Se  Se208  1  0.06533008  0.39458740  0.80406644  1
  Se  Se209  1  0.09258604  0.75329963  0.30601624  1
  Se  Se210  1  0.08400455  0.74750135  0.80144840  1
  Se  Se211  1  0.41245894  0.07847568  0.30271988  1
  Se  Se212  1  0.42994434  0.08602957  0.79944277  1
  Se  Se213  1  0.41197554  0.41301659  0.31085931  1
  Se  Se214  1  0.42493618  0.42415433  0.81128652  1
  Se  Se215  1  0.42645730  0.75338042  0.30636572  1
  Se  Se216  1  0.41114189  0.74480505  0.79955665  1
  Se  Se217  1  0.75671265  0.09152970  0.29632994  1
  Se  Se218  1  0.75607440  0.09397498  0.80725410  1
  Se  Se219  1  0.74579093  0.42235536  0.30571151  1
  Se  Se220  1  0.74861667  0.41412316  0.79936619  1
  Se  Se221  1  0.75810752  0.75740914  0.30615791  1
  Se  Se222  1  0.74219143  0.75032862  0.80875844  1
  Se  Se223  1  0.24938836  0.08116055  0.19919767  1
  Se  Se224  1  0.25866931  0.08006344  0.70537971  1
  Se  Se225  1  0.25506890  0.41550312  0.19849981  1
  Se  Se226  1  0.23806745  0.42898231  0.69429844  1
  Se  Se227  1  0.24518056  0.75349596  0.18349385  1
  Se  Se228  1  0.25194485  0.74603139  0.69436202  1
  Se  Se229  1  0.58021061  0.08252534  0.19547255  1
  Se  Se230  1  0.57471853  0.08065413  0.68350697  1
  Se  Se231  1  0.58750218  0.40885270  0.20289350  1
  Se  Se232  1  0.58465000  0.41389586  0.69473469  1
  Se  Se233  1  0.57360050  0.75420308  0.18651257  1
  Se  Se234  1  0.58389469  0.75019524  0.69822059  1
  Se  Se235  1  0.91025110  0.08928580  0.18446368  1
  Se  Se236  1  0.90709579  0.08260115  0.69298481  1
  Se  Se237  1  0.92124327  0.41859920  0.19787447  1
  Se  Se238  1  0.92003275  0.41641722  0.69231361  1
  Se  Se239  1  0.90976402  0.76428375  0.19529745  1
  Se  Se240  1  0.91323866  0.74948329  0.70391161  1
  Se  Se241  1  0.08210930  0.25581637  0.19863210  1
  Se  Se242  1  0.08751224  0.24808502  0.69934428  1
  Se  Se243  1  0.09823479  0.57390216  0.19240303  1
  Se  Se244  1  0.06424603  0.59868047  0.69136349  1
  Se  Se245  1  0.08429539  0.91252728  0.18959692  1
  Se  Se246  1  0.09142132  0.91211646  0.68927883  1
  Se  Se247  1  0.41505671  0.25141193  0.20014904  1
  Se  Se248  1  0.42271199  0.24760961  0.69091489  1
  Se  Se249  1  0.42914085  0.57064852  0.19521332  1
  Se  Se250  1  0.41490638  0.58417217  0.69722060  1
  Se  Se251  1  0.41114647  0.91878119  0.19407051  1
  Se  Se252  1  0.41532040  0.91683678  0.69510925  1
  Se  Se253  1  0.74811442  0.25161334  0.20095554  1
  Se  Se254  1  0.75993421  0.24082132  0.69541473  1
  Se  Se255  1  0.75917391  0.57876488  0.18823565  1
  Se  Se256  1  0.74566360  0.58258622  0.69667867  1
  Se  Se257  1  0.74065306  0.91189218  0.19833959  1
  Se  Se258  1  0.75330170  0.91124397  0.69507845  1
