# generated using pymatgen
data_In86Cu29Se144
_symmetry_space_group_name_H-M   'P 1'
_cell_length_a   17.57929375
_cell_length_b   17.57801023
_cell_length_c   23.42863688
_cell_angle_alpha   90.01033216
_cell_angle_beta   90.00321702
_cell_angle_gamma   89.98188343
_symmetry_Int_Tables_number   1
_chemical_formula_structural   In86Cu29Se144
_chemical_formula_sum   'In86 Cu29 Se144'
_cell_volume   7239.65928751
_cell_formula_units_Z   1
loop_
 _symmetry_equiv_pos_site_id
 _symmetry_equiv_pos_as_xyz
  1  'x, y, z'
loop_
 _atom_site_type_symbol
 _atom_site_label
 _atom_site_symmetry_multiplicity
 _atom_site_fract_x
 _atom_site_fract_y
 _atom_site_fract_z
 _atom_site_occupancy
  In  In0  1  0.02070851  0.16481695  0.13249324  1
  In  In1  1  -0.00627764  0.16907952  0.63047969  1
  In  In2  1  -0.00463834  0.50563676  0.12785532  1
  In  In3  1  -0.00025421  0.50847406  0.63504629  1
  In  In4  1  -0.00143857  0.82009251  0.12123265  1
  In  In5  1  0.01274566  0.82128859  0.63286121  1
  In  In6  1  0.31353847  0.16999522  0.12397457  1
  In  In7  1  0.33188895  0.16373743  0.62854642  1
  In  In8  1  0.34908411  0.50878116  0.11995737  1
  In  In9  1  0.32869014  0.50293160  0.64867666  1
  In  In10  1  0.33186869  0.83234356  0.12364782  1
  In  In11  1  0.33293547  0.83516861  0.63060957  1
  In  In12  1  0.66961860  0.16886455  0.12156622  1
  In  In13  1  0.65532813  0.17616980  0.63364704  1
  In  In14  1  0.66778279  0.50847576  0.11242910  1
  In  In15  1  0.67458032  0.48834809  0.63866362  1
  In  In16  1  0.64504373  0.82279079  0.11360535  1
  In  In17  1  0.66816080  0.82909246  0.63679903  1
  In  In18  1  0.16165325  -0.01753564  0.37836734  1
  In  In19  1  0.17201727  0.00243378  0.87699717  1
  In  In20  1  0.16294849  0.34391561  0.37279651  1
  In  In21  1  0.16403028  0.33074450  0.86727910  1
  In  In22  1  0.17237467  0.67421095  0.37005365  1
  In  In23  1  0.17830980  0.67474790  0.86530075  1
  In  In24  1  0.50043251  0.01349079  0.37812116  1
  In  In25  1  0.48882771  -0.01565772  0.86953435  1
  In  In26  1  0.48664453  0.32818915  0.38015089  1
  In  In27  1  0.51721232  0.36425407  0.85127921  1
  In  In28  1  0.49887878  0.65991343  0.36070800  1
  In  In29  1  0.50648459  0.66607281  0.88169471  1
  In  In30  1  0.82922775  0.00313861  0.37583392  1
  In  In31  1  0.83646170  0.00288497  0.86507231  1
  In  In32  1  0.85667143  0.34337921  0.37603496  1
  In  In33  1  0.84095150  0.34792046  0.87079985  1
  In  In34  1  0.82483449  0.65732154  0.36875404  1
  In  In35  1  0.82432810  0.65098275  0.87259518  1
  In  In36  1  -0.00029557  0.17624494  0.37289425  1
  In  In37  1  0.01223089  0.17967578  0.86884778  1
  In  In38  1  -0.01198530  0.49279674  0.37013655  1
  In  In39  1  -0.00247931  0.49083762  0.86502198  1
  In  In40  1  0.01338182  0.83547247  0.37655252  1
  In  In41  1  0.00908215  0.84324535  0.87062599  1
  In  In42  1  0.34444193  0.17168885  0.37660499  1
  In  In43  1  0.33234636  0.16092751  0.87410154  1
  In  In44  1  0.32609975  0.50247271  0.36915934  1
  In  In45  1  0.34678488  0.52923780  0.84368007  1
  In  In46  1  0.32609580  0.82424594  0.37053447  1
  In  In47  1  0.33241944  0.83389759  0.87900828  1
  In  In48  1  0.66235610  0.15958145  0.37924175  1
  In  In49  1  0.66685941  0.17293823  0.86576902  1
  In  In50  1  0.66978035  0.51515900  0.37542667  1
  In  In51  1  0.66819673  0.51097923  0.87806547  1
  In  In52  1  0.67374753  0.82347226  0.37318136  1
  In  In53  1  0.64951544  0.81184219  0.86741091  1
  In  In54  1  0.17714766  0.00848118  0.11766392  1
  In  In55  1  0.17843053  -0.01290799  0.62997076  1
  In  In56  1  0.16775063  0.32132266  0.12148537  1
  In  In57  1  0.15646445  0.35030610  0.64991027  1
  In  In58  1  0.15982678  0.67644000  0.12446214  1
  In  In59  1  0.16244142  0.67010714  0.63565590  1
  In  In60  1  0.49894168  -0.01700901  0.12258030  1
  In  In61  1  0.48602028  0.01317648  0.63745614  1
  In  In62  1  0.49280773  0.34683287  0.11635831  1
  In  In63  1  0.50841798  0.33263640  0.63564529  1
  In  In64  1  0.49528877  0.66070204  0.12577853  1
  In  In65  1  0.50292814  0.65101131  0.64614878  1
  In  In66  1  0.83579847  -0.00295654  0.12447579  1
  In  In67  1  0.83340740  -0.00187329  0.63606893  1
  In  In68  1  0.83068657  0.34723878  0.12328536  1
  In  In69  1  0.83211263  0.33784570  0.62600212  1
  In  In70  1  0.84014308  0.65824303  0.12608705  1
  In  In71  1  0.84076112  0.65745648  0.63052448  1
  In  In72  1  0.83081144  0.17059397  0.49647871  1
  In  In73  1  0.82991930  0.82731532  -0.00363236  1
  In  In74  1  0.17002768  0.16847026  0.49794240  1
  In  In75  1  0.17103547  0.49982703  -0.01328900  1
  In  In76  1  0.00280619  0.00006830  0.25458270  1
  In  In77  1  0.66833699  0.33499818  0.24070616  1
  In  In78  1  0.50061717  0.83136788  0.50663423  1
  In  In79  1  0.16261320  0.50132130  0.50999959  1
  In  In80  1  0.33103367  0.33877023  0.24691305  1
  In  In81  1  0.49028719  0.16960873  -0.00734344  1
  In  In82  1  0.66413378  -0.00746537  0.25531200  1
  In  In83  1  0.83748067  0.83379930  0.49427987  1
  In  In84  1  0.84024300  0.17062320  0.00451066  1
  In  In85  1  0.50069063  0.49766658  0.50559819  1
  Cu  Cu86  1  0.66192498  -0.00772504  -0.01074287  1
  Cu  Cu87  1  0.67143320  0.66306614  0.50143008  1
  Cu  Cu88  1  0.00682055  0.66325944  0.50517380  1
  Cu  Cu89  1  0.83837331  0.82854803  0.75376682  1
  Cu  Cu90  1  0.49589493  0.16399384  0.25001483  1
  Cu  Cu91  1  0.16341057  0.15443415  0.74952203  1
  Cu  Cu92  1  0.16387177  0.50684520  0.24679692  1
  Cu  Cu93  1  0.33509368  0.33724494  -0.01218957  1
  Cu  Cu94  1  0.16773559  0.83410294  0.24756320  1
  Cu  Cu95  1  0.33488960  0.67049659  -0.00437351  1
  Cu  Cu96  1  0.01094294  0.00299922  -0.00518157  1
  Cu  Cu97  1  0.50144485  0.16264443  0.75461368  1
  Cu  Cu98  1  0.82842871  0.82569000  0.24566021  1
  Cu  Cu99  1  0.33223676  0.66930866  0.50032034  1
  Cu  Cu100  1  0.66595914  0.33587677  0.50871459  1
  Cu  Cu101  1  0.82899606  0.50178650  0.75087938  1
  Cu  Cu102  1  0.65594691  0.00904509  0.50863052  1
  Cu  Cu103  1  0.49998606  0.83124488  0.75530363  1
  Cu  Cu104  1  0.83171351  0.17087277  0.74851893  1
  Cu  Cu105  1  0.66477627  0.34237311  -0.00867454  1
  Cu  Cu106  1  0.00410605  0.33739449  -0.00645528  1
  Cu  Cu107  1  0.33193957  -0.00297596  -0.00141790  1
  Cu  Cu108  1  0.00006598  0.66410538  -0.00073890  1
  Cu  Cu109  1  0.33662559  -0.00354361  0.50743988  1
  Cu  Cu110  1  0.83598030  0.49975495  0.24712615  1
  Cu  Cu111  1  0.49089680  0.82971131  0.24357086  1
  Cu  Cu112  1  0.16903261  0.84009726  0.75352098  1
  Cu  Cu113  1  0.00714804  -0.00458451  0.50619675  1
  Cu  Cu114  1  0.33381246  0.33016136  0.50994946  1
  Se  Se115  1  0.08657223  0.08890610  0.05203569  1
  Se  Se116  1  0.08363772  0.08037827  0.56362222  1
  Se  Se117  1  0.08408992  0.41723062  0.05644234  1
  Se  Se118  1  0.07466634  0.40776563  0.56532867  1
  Se  Se119  1  0.08384763  0.75179257  0.04674308  1
  Se  Se120  1  0.09053658  0.74646303  0.55664754  1
  Se  Se121  1  0.41079931  0.07967536  0.06090846  1
  Se  Se122  1  0.41629512  0.08554502  0.55613206  1
  Se  Se123  1  0.41385370  0.42241531  0.04323094  1
  Se  Se124  1  0.40702365  0.41730212  0.56869120  1
  Se  Se125  1  0.41543116  0.74882938  0.05596905  1
  Se  Se126  1  0.41803700  0.73537647  0.56639312  1
  Se  Se127  1  0.74089598  0.07032104  0.05173192  1
  Se  Se128  1  0.74738013  0.08229376  0.56377404  1
  Se  Se129  1  0.75114356  0.41857539  0.04823910  1
  Se  Se130  1  0.74949035  0.42144084  0.55697182  1
  Se  Se131  1  0.74386477  0.73746647  0.05715099  1
  Se  Se132  1  0.74917228  0.74809126  0.55928799  1
  Se  Se133  1  0.25474868  0.25634830  0.04545855  1
  Se  Se134  1  0.24338548  0.26042523  0.56790918  1
  Se  Se135  1  0.25120572  0.58998704  0.05502130  1
  Se  Se136  1  0.26116528  0.58683741  0.56540446  1
  Se  Se137  1  0.24826069  0.91329591  0.05239234  1
  Se  Se138  1  0.25298039  0.90880134  0.55398706  1
  Se  Se139  1  0.58921970  0.25794805  0.05298099  1
  Se  Se140  1  0.57965236  0.25322370  0.55729355  1
  Se  Se141  1  0.56312688  0.57165254  0.05267531  1
  Se  Se142  1  0.59054348  0.58800801  0.56429228  1
  Se  Se143  1  0.57616917  0.91437704  0.04380819  1
  Se  Se144  1  0.58545655  0.92251501  0.56896941  1
  Se  Se145  1  0.93120232  0.26001129  0.06234315  1
  Se  Se146  1  0.92330914  0.25675728  0.55500448  1
  Se  Se147  1  0.91778050  0.58009616  0.05113548  1
  Se  Se148  1  0.92221907  0.58192928  0.55730526  1
  Se  Se149  1  0.92542138  0.92388042  0.05255289  1
  Se  Se150  1  0.92151999  0.91771136  0.56310134  1
  Se  Se151  1  0.07706885  0.26365871  0.44526984  1
  Se  Se152  1  0.08963570  0.25250181  0.94592092  1
  Se  Se153  1  0.08332812  0.58638102  0.43863598  1
  Se  Se154  1  0.07749063  0.59102215  0.93195377  1
  Se  Se155  1  0.08758778  0.90755928  0.45575869  1
  Se  Se156  1  0.09140832  0.91433289  0.94571335  1
  Se  Se157  1  0.41575704  0.24731099  0.45568413  1
  Se  Se158  1  0.42202153  0.26558035  0.92573436  1
  Se  Se159  1  0.41173398  0.58773007  0.44147810  1
  Se  Se160  1  0.40517342  0.58197116  0.93704845  1
  Se  Se161  1  0.41401754  0.91846541  0.44172609  1
  Se  Se162  1  0.41822794  0.91310105  0.95028354  1
  Se  Se163  1  0.74121262  0.26298590  0.43797395  1
  Se  Se164  1  0.74824801  0.25514266  0.94077614  1
  Se  Se165  1  0.75711485  0.58131223  0.44983681  1
  Se  Se166  1  0.75430401  0.58064829  0.95197114  1
  Se  Se167  1  0.73355248  0.92808356  0.44613081  1
  Se  Se168  1  0.74675019  0.91723468  0.93134807  1
  Se  Se169  1  0.25876363  0.07323336  0.44083896  1
  Se  Se170  1  0.25163385  0.08638358  0.94908538  1
  Se  Se171  1  0.25881526  0.41250445  0.44701449  1
  Se  Se172  1  0.26282822  0.41949066  0.92371757  1
  Se  Se173  1  0.24830313  0.75062031  0.44752662  1
  Se  Se174  1  0.24533016  0.75083552  0.94595536  1
  Se  Se175  1  0.57607425  0.09193402  0.45340143  1
  Se  Se176  1  0.58469302  0.08122292  0.93472277  1
  Se  Se177  1  0.58856017  0.41121355  0.44024135  1
  Se  Se178  1  0.57704417  0.42329202  0.94177790  1
  Se  Se179  1  0.58644033  0.73924503  0.44237188  1
  Se  Se180  1  0.58315678  0.75134828  0.95267884  1
  Se  Se181  1  0.92872711  0.07354496  0.44427750  1
  Se  Se182  1  0.92410314  0.08161492  0.93946201  1
  Se  Se183  1  0.91848279  0.42580456  0.45296897  1
  Se  Se184  1  0.91938880  0.42294046  0.94605900  1
  Se  Se185  1  0.92653723  0.73862296  0.43882291  1
  Se  Se186  1  0.92344900  0.74478830  0.93487852  1
  Se  Se187  1  0.24650899  0.24818198  0.31067591  1
  Se  Se188  1  0.24531246  0.23736366  0.80456868  1
  Se  Se189  1  0.24999413  0.58703234  0.30020414  1
  Se  Se190  1  0.21967201  0.56764169  0.79489427  1
  Se  Se191  1  0.24865102  0.91616472  0.30428959  1
  Se  Se192  1  0.25525360  0.91984275  0.80761592  1
  Se  Se193  1  0.57693960  0.24602486  0.30760275  1
  Se  Se194  1  0.58694184  0.25532318  0.79627584  1
  Se  Se195  1  0.59087161  0.58238501  0.29965513  1
  Se  Se196  1  0.57608779  0.57936732  0.80802172  1
  Se  Se197  1  0.56892088  0.90321225  0.31303619  1
  Se  Se198  1  0.58791971  0.91725138  0.80395129  1
  Se  Se199  1  0.90839977  0.24454174  0.30560542  1
  Se  Se200  1  0.91346820  0.25165668  0.80619083  1
  Se  Se201  1  0.91791480  0.58568652  0.30092972  1
  Se  Se202  1  0.91734237  0.58372355  0.80163869  1
  Se  Se203  1  0.90487582  0.90535608  0.30947902  1
  Se  Se204  1  0.92124195  0.91805416  0.80043182  1
  Se  Se205  1  0.09449675  0.08877584  0.31371845  1
  Se  Se206  1  0.07997353  0.07650663  0.80746088  1
  Se  Se207  1  0.08334124  0.42205713  0.30162981  1
  Se  Se208  1  0.07385750  0.40274891  0.79817914  1
  Se  Se209  1  0.08243006  0.75225124  0.30174079  1
  Se  Se210  1  0.08379519  0.75326546  0.80171929  1
  Se  Se211  1  0.41385650  0.08212405  0.30421654  1
  Se  Se212  1  0.41546007  0.07893191  0.80454053  1
  Se  Se213  1  0.42752503  0.42468480  0.30663222  1
  Se  Se214  1  0.39241755  0.40144521  0.79917888  1
  Se  Se215  1  0.41081916  0.74641132  0.30089184  1
  Se  Se216  1  0.41931101  0.75071151  0.81325026  1
  Se  Se217  1  0.75626997  0.09342782  0.30420495  1
  Se  Se218  1  0.74907534  0.08583831  0.80075003  1
  Se  Se219  1  0.75465133  0.42060254  0.30866677  1
  Se  Se220  1  0.74554035  0.42093884  0.80686861  1
  Se  Se221  1  0.74457857  0.74265946  0.29882968  1
  Se  Se222  1  0.75275589  0.74580885  0.80522450  1
  Se  Se223  1  0.24276082  0.08748339  0.19631639  1
  Se  Se224  1  0.25372521  0.07680195  0.69735761  1
  Se  Se225  1  0.24369473  0.42821858  0.18363790  1
  Se  Se226  1  0.27672489  0.38841845  0.70643819  1
  Se  Se227  1  0.24965663  0.74944464  0.19393938  1
  Se  Se228  1  0.25046701  0.75322663  0.69977853  1
  Se  Se229  1  0.57940510  0.08664901  0.18949244  1
  Se  Se230  1  0.58777296  0.07952660  0.70088835  1
  Se  Se231  1  0.57572085  0.42603514  0.18808523  1
  Se  Se232  1  0.56555676  0.43628753  0.70060381  1
  Se  Se233  1  0.57980109  0.74849766  0.19457584  1
  Se  Se234  1  0.58505113  0.74664431  0.70397621  1
  Se  Se235  1  0.91204950  0.08753412  0.19178988  1
  Se  Se236  1  0.91726177  0.08382934  0.70042203  1
  Se  Se237  1  0.91951243  0.41438789  0.19598990  1
  Se  Se238  1  0.91352296  0.41935966  0.69646133  1
  Se  Se239  1  0.91780545  0.74673456  0.19504201  1
  Se  Se240  1  0.92046129  0.74528197  0.69752959  1
  Se  Se241  1  0.08920006  0.25653307  0.20017258  1
  Se  Se242  1  0.07984459  0.24415071  0.70111218  1
  Se  Se243  1  0.08035473  0.59000880  0.19306008  1
  Se  Se244  1  0.10801045  0.56226063  0.69913770  1
  Se  Se245  1  0.08488495  0.91233458  0.18692042  1
  Se  Se246  1  0.08263533  0.91906227  0.69773767  1
  Se  Se247  1  0.42319010  0.24629232  0.18610913  1
  Se  Se248  1  0.42140202  0.24226695  0.69544787  1
  Se  Se249  1  0.41054004  0.58667512  0.19916852  1
  Se  Se250  1  0.40222401  0.59490538  0.71395078  1
  Se  Se251  1  0.41035442  0.91978895  0.19583265  1
  Se  Se252  1  0.41663188  0.91417174  0.70067602  1
  Se  Se253  1  0.76331219  0.23991076  0.18963057  1
  Se  Se254  1  0.74928440  0.25570987  0.69507280  1
  Se  Se255  1  0.75021326  0.57672747  0.19051776  1
  Se  Se256  1  0.74695352  0.58948222  0.69918652  1
  Se  Se257  1  0.74802230  0.90536657  0.18563247  1
  Se  Se258  1  0.75198634  0.91319855  0.70264026  1
