# generated using pymatgen
data_In86Cu29Se144
_symmetry_space_group_name_H-M   'P 1'
_cell_length_a   17.57624303
_cell_length_b   17.57800211
_cell_length_c   23.43884960
_cell_angle_alpha   90.01472120
_cell_angle_beta   89.99610483
_cell_angle_gamma   90.01769565
_symmetry_Int_Tables_number   1
_chemical_formula_structural   In86Cu29Se144
_chemical_formula_sum   'In86 Cu29 Se144'
_cell_volume   7241.55473603
_cell_formula_units_Z   1
loop_
 _symmetry_equiv_pos_site_id
 _symmetry_equiv_pos_as_xyz
  1  'x, y, z'
loop_
 _atom_site_type_symbol
 _atom_site_label
 _atom_site_symmetry_multiplicity
 _atom_site_fract_x
 _atom_site_fract_y
 _atom_site_fract_z
 _atom_site_occupancy
  In  In0  1  0.00900672  0.16262408  0.10969966  1
  In  In1  1  -0.00120452  0.16853023  0.62055399  1
  In  In2  1  -0.00399255  0.50893588  0.12984112  1
  In  In3  1  -0.00312858  0.50090982  0.63125741  1
  In  In4  1  -0.01940664  0.83288766  0.13144309  1
  In  In5  1  0.00838007  0.84717536  0.61492497  1
  In  In6  1  0.32433495  0.17284934  0.12928446  1
  In  In7  1  0.31669654  0.17933761  0.63072860  1
  In  In8  1  0.33090471  0.48234188  0.12352910  1
  In  In9  1  0.34332767  0.48127034  0.62394504  1
  In  In10  1  0.35050979  0.83047791  0.12633396  1
  In  In11  1  0.34356116  0.84283748  0.61692970  1
  In  In12  1  0.66684207  0.15250667  0.12592104  1
  In  In13  1  0.66834833  0.15454273  0.62601876  1
  In  In14  1  0.67302902  0.50435345  0.12079975  1
  In  In15  1  0.66619356  0.49684690  0.61922838  1
  In  In16  1  0.66439795  0.84273546  0.13569605  1
  In  In17  1  0.67412318  0.84102942  0.61340416  1
  In  In18  1  0.16789327  0.00098575  0.38098783  1
  In  In19  1  0.17109970  0.00745697  0.86892550  1
  In  In20  1  0.17140039  0.31739292  0.38509819  1
  In  In21  1  0.15227424  0.32911185  0.86057318  1
  In  In22  1  0.16822539  0.68299889  0.37616326  1
  In  In23  1  0.16518326  0.66092014  0.87572228  1
  In  In24  1  0.49353536  -0.00816569  0.37037487  1
  In  In25  1  0.49169040  -0.00461699  0.86887086  1
  In  In26  1  0.49537600  0.34503847  0.37639371  1
  In  In27  1  0.49093137  0.34568569  0.87391941  1
  In  In28  1  0.51277147  0.66381933  0.37644180  1
  In  In29  1  0.50408841  0.66194479  0.88177930  1
  In  In30  1  0.82786404  0.00330234  0.37636096  1
  In  In31  1  0.84902395  0.01761950  0.85747848  1
  In  In32  1  0.84431734  0.33038233  0.39361006  1
  In  In33  1  0.84322235  0.31987142  0.88184204  1
  In  In34  1  0.82942080  0.66999368  0.37314270  1
  In  In35  1  0.82154716  0.66821328  0.87791748  1
  In  In36  1  0.00639478  0.17086384  0.39201256  1
  In  In37  1  -0.00154612  0.16546462  0.87344458  1
  In  In38  1  -0.01713105  0.49871914  0.38245133  1
  In  In39  1  0.00483673  0.48179143  0.87486654  1
  In  In40  1  0.00248578  0.83168665  0.37819655  1
  In  In41  1  -0.01051416  0.84212614  0.87005308  1
  In  In42  1  0.33019967  0.15971831  0.37242267  1
  In  In43  1  0.32462556  0.16267966  0.87041488  1
  In  In44  1  0.34799174  0.50005625  0.37470409  1
  In  In45  1  0.34221214  0.49037979  0.87134700  1
  In  In46  1  0.32182830  0.84806246  0.38421622  1
  In  In47  1  0.33911283  0.84682593  0.87496557  1
  In  In48  1  0.67888121  0.16291216  0.37448229  1
  In  In49  1  0.68288342  0.16566477  0.87293870  1
  In  In50  1  0.66350168  0.51187457  0.37719100  1
  In  In51  1  0.66251697  0.50196841  0.88236577  1
  In  In52  1  0.66898279  0.83105728  0.37433076  1
  In  In53  1  0.65627440  0.83628824  0.87644983  1
  In  In54  1  0.16607973  0.01922702  0.12301571  1
  In  In55  1  0.16594483  0.00394505  0.62522144  1
  In  In56  1  0.18109405  0.32558280  0.12257165  1
  In  In57  1  0.18019174  0.32340388  0.63066443  1
  In  In58  1  0.15336820  0.65977538  0.13221442  1
  In  In59  1  0.15874670  0.67071941  0.62034835  1
  In  In60  1  0.50908246  -0.01201338  0.13260911  1
  In  In61  1  0.50712499  -0.00422343  0.63112120  1
  In  In62  1  0.47818583  0.33373204  0.12000268  1
  In  In63  1  0.48475995  0.34110688  0.62591233  1
  In  In64  1  0.51052696  0.67270075  0.12050036  1
  In  In65  1  0.49845621  0.66809693  0.61569107  1
  In  In66  1  0.82849301  0.00125033  0.12244786  1
  In  In67  1  0.83373080  0.00497738  0.61947635  1
  In  In68  1  0.83534525  0.33123778  0.11682142  1
  In  In69  1  0.84878938  0.34278973  0.60894362  1
  In  In70  1  0.83449306  0.66237502  0.13748166  1
  In  In71  1  0.82718275  0.66290399  0.61510455  1
  In  In72  1  0.17094573  0.50079050  0.50604709  1
  In  In73  1  0.16739090  0.49397163  0.00051383  1
  In  In74  1  0.49999153  0.17105012  0.50589598  1
  In  In75  1  0.00252956  0.33311707  0.26129425  1
  In  In76  1  0.66304356  0.66798182  0.75557179  1
  In  In77  1  0.66613467  0.32667484  0.75024888  1
  In  In78  1  0.33619686  0.66930841  0.25144678  1
  In  In79  1  -0.00138936  -0.00547069  0.25432515  1
  In  In80  1  0.16785801  0.83911119  -0.00618756  1
  In  In81  1  0.82701883  0.84252383  0.00958507  1
  In  In82  1  -0.00305920  0.66658667  0.74231612  1
  In  In83  1  0.33122629  0.66014561  0.74854552  1
  In  In84  1  0.50171783  0.16601424  0.00070765  1
  In  In85  1  0.66170444  0.33484144  0.25624698  1
  Cu  Cu86  1  0.66500569  0.66100675  0.00187001  1
  Cu  Cu87  1  0.32851720  0.00904025  0.50278211  1
  Cu  Cu88  1  0.16724707  0.83921094  0.74744214  1
  Cu  Cu89  1  0.83142308  0.16032535  0.25035778  1
  Cu  Cu90  1  0.49710417  0.16175087  0.24569419  1
  Cu  Cu91  1  0.83250634  0.84691264  0.73865140  1
  Cu  Cu92  1  0.49397238  0.16406653  0.74948243  1
  Cu  Cu93  1  0.66883466  0.66935718  0.49470589  1
  Cu  Cu94  1  0.66634742  0.33500731  -0.00312409  1
  Cu  Cu95  1  0.16735530  0.84040188  0.25643395  1
  Cu  Cu96  1  0.82845939  0.50203063  0.25550180  1
  Cu  Cu97  1  0.16097821  0.16271039  0.74776934  1
  Cu  Cu98  1  -0.00135234  0.33078675  -0.00452717  1
  Cu  Cu99  1  -0.00427153  0.66936389  0.50053390  1
  Cu  Cu100  1  -0.01031306  0.66724758  0.00891150  1
  Cu  Cu101  1  0.83941739  0.16748792  0.74561360  1
  Cu  Cu102  1  0.50112444  0.83644390  0.74784085  1
  Cu  Cu103  1  0.33923294  0.66939977  0.49410818  1
  Cu  Cu104  1  0.66988059  -0.00219214  0.00214730  1
  Cu  Cu105  1  0.34243083  -0.00235381  -0.00119260  1
  Cu  Cu106  1  0.66324203  -0.00430993  0.50034049  1
  Cu  Cu107  1  0.49680727  0.49683471  0.25010085  1
  Cu  Cu108  1  0.50134550  0.83431709  0.25392445  1
  Cu  Cu109  1  0.34106125  0.66217103  0.00170242  1
  Cu  Cu110  1  0.66770969  0.33803902  0.49815261  1
  Cu  Cu111  1  0.17087770  0.16949675  0.25083707  1
  Cu  Cu112  1  0.16429712  0.49680842  0.25006020  1
  Cu  Cu113  1  -0.00155461  -0.00289277  0.50125731  1
  Cu  Cu114  1  0.83401111  0.49323114  0.75233486  1
  Se  Se115  1  0.09625504  0.08709797  0.04271498  1
  Se  Se116  1  0.08268749  0.08155304  0.55348161  1
  Se  Se117  1  0.07388499  0.40832573  0.06392446  1
  Se  Se118  1  0.08387007  0.41281287  0.56704182  1
  Se  Se119  1  0.07779244  0.74986873  0.05941837  1
  Se  Se120  1  0.08388116  0.75320488  0.54916837  1
  Se  Se121  1  0.41760177  0.07557863  0.06509105  1
  Se  Se122  1  0.41096411  0.08192690  0.56678340  1
  Se  Se123  1  0.41050937  0.41760996  0.04622471  1
  Se  Se124  1  0.42736320  0.42215766  0.54565095  1
  Se  Se125  1  0.42232603  0.75051234  0.05140823  1
  Se  Se126  1  0.42083226  0.75552087  0.54826233  1
  Se  Se127  1  0.75257464  0.08596753  0.05089873  1
  Se  Se128  1  0.74667271  0.08385111  0.54896350  1
  Se  Se129  1  0.75083013  0.41651556  0.05265719  1
  Se  Se130  1  0.75305852  0.42321029  0.54900760  1
  Se  Se131  1  0.74275644  0.74259632  0.06401057  1
  Se  Se132  1  0.75346245  0.75273611  0.54732839  1
  Se  Se133  1  0.25246670  0.24399041  0.05014989  1
  Se  Se134  1  0.25059643  0.25115150  0.54981385  1
  Se  Se135  1  0.25265218  0.59182651  0.06183861  1
  Se  Se136  1  0.26503778  0.59317345  0.56285437  1
  Se  Se137  1  0.25950032  0.91952532  0.06075483  1
  Se  Se138  1  0.24782452  0.91944621  0.55471403  1
  Se  Se139  1  0.59060324  0.25719989  0.06352912  1
  Se  Se140  1  0.59248895  0.26153017  0.56498127  1
  Se  Se141  1  0.57938967  0.57689926  0.05314137  1
  Se  Se142  1  0.58831309  0.58617191  0.55249245  1
  Se  Se143  1  0.58808165  0.91395619  0.05624118  1
  Se  Se144  1  0.57497217  0.91629726  0.55212384  1
  Se  Se145  1  0.91666791  0.24655371  0.05020401  1
  Se  Se146  1  0.90564920  0.23475762  0.54956788  1
  Se  Se147  1  0.90806573  0.58181948  0.05993084  1
  Se  Se148  1  0.92161380  0.58097794  0.55625471  1
  Se  Se149  1  0.93193592  0.93159721  0.05533876  1
  Se  Se150  1  0.90947131  0.91443655  0.55004046  1
  Se  Se151  1  0.08392678  0.25576204  0.45910055  1
  Se  Se152  1  0.08335172  0.25197565  0.94008886  1
  Se  Se153  1  0.08208631  0.59019955  0.44179365  1
  Se  Se154  1  0.07051680  0.58925675  0.94609069  1
  Se  Se155  1  0.08382667  0.91608219  0.44626654  1
  Se  Se156  1  0.07399537  0.92647982  0.93798756  1
  Se  Se157  1  0.41117211  0.25429220  0.44140529  1
  Se  Se158  1  0.41057454  0.25064293  0.93970899  1
  Se  Se159  1  0.42351732  0.58486989  0.44428536  1
  Se  Se160  1  0.41478974  0.57720672  0.94335402  1
  Se  Se161  1  0.41338513  0.92577701  0.44974796  1
  Se  Se162  1  0.42730121  0.91327821  0.94874655  1
  Se  Se163  1  0.74708254  0.24691406  0.44937986  1
  Se  Se164  1  0.75017211  0.24707805  0.94973633  1
  Se  Se165  1  0.75484286  0.58270415  0.44629084  1
  Se  Se166  1  0.75161593  0.58101691  0.94915815  1
  Se  Se167  1  0.74852683  0.91673885  0.44472579  1
  Se  Se168  1  0.75049732  0.92523924  0.93541852  1
  Se  Se169  1  0.24587207  0.09076228  0.44825538  1
  Se  Se170  1  0.25581988  0.07566182  0.94494428  1
  Se  Se171  1  0.26008721  0.41547892  0.44266217  1
  Se  Se172  1  0.24680975  0.40655091  0.93431936  1
  Se  Se173  1  0.24875073  0.75422135  0.45124698  1
  Se  Se174  1  0.26114995  0.74098368  0.93979353  1
  Se  Se175  1  0.58428595  0.08031419  0.44090882  1
  Se  Se176  1  0.59102121  0.07718420  0.93866624  1
  Se  Se177  1  0.58553806  0.41953852  0.44283779  1
  Se  Se178  1  0.57878557  0.41522730  0.94673645  1
  Se  Se179  1  0.58210292  0.75493110  0.44670439  1
  Se  Se180  1  0.58607383  0.74824008  0.94790903  1
  Se  Se181  1  0.91562889  0.07950330  0.44583595  1
  Se  Se182  1  0.90906798  0.08707331  0.94087969  1
  Se  Se183  1  0.92699359  0.41236377  0.45953615  1
  Se  Se184  1  0.91437781  0.41852880  0.94751240  1
  Se  Se185  1  0.91461501  0.75011838  0.44377605  1
  Se  Se186  1  0.91772111  0.74966284  0.94475344  1
  Se  Se187  1  0.25172520  0.25248466  0.30577976  1
  Se  Se188  1  0.24625140  0.24668854  0.80014980  1
  Se  Se189  1  0.24452182  0.57906381  0.31135278  1
  Se  Se190  1  0.23996838  0.57070551  0.80812138  1
  Se  Se191  1  0.24989799  0.92545473  0.30629002  1
  Se  Se192  1  0.25223406  0.91670577  0.80373801  1
  Se  Se193  1  0.57238604  0.23930213  0.31299043  1
  Se  Se194  1  0.57455960  0.24063114  0.81339412  1
  Se  Se195  1  0.58183079  0.58086652  0.30000720  1
  Se  Se196  1  0.57222531  0.57064606  0.80594036  1
  Se  Se197  1  0.58719066  0.91812955  0.30495437  1
  Se  Se198  1  0.58478594  0.91894104  0.80220824  1
  Se  Se199  1  0.90928974  0.23804546  0.31407412  1
  Se  Se200  1  0.91863815  0.25177754  0.80222622  1
  Se  Se201  1  0.91621454  0.58221133  0.30711417  1
  Se  Se202  1  0.90935841  0.58188962  0.81088229  1
  Se  Se203  1  0.90535428  0.90593895  0.30921360  1
  Se  Se204  1  0.92246614  0.92164308  0.79253842  1
  Se  Se205  1  0.08462551  0.09384713  0.31032504  1
  Se  Se206  1  0.07804775  0.08049507  0.80245812  1
  Se  Se207  1  0.09205137  0.42353577  0.32043135  1
  Se  Se208  1  0.07673993  0.41962977  0.79361369  1
  Se  Se209  1  0.08284814  0.75345151  0.30330081  1
  Se  Se210  1  0.08880816  0.75618522  0.80759850  1
  Se  Se211  1  0.41481741  0.08041532  0.30333241  1
  Se  Se212  1  0.41037493  0.08034980  0.80243469  1
  Se  Se213  1  0.41221481  0.41233965  0.29893980  1
  Se  Se214  1  0.41035270  0.40815809  0.79544495  1
  Se  Se215  1  0.41787436  0.75943054  0.31617915  1
  Se  Se216  1  0.42455949  0.75239167  0.80836166  1
  Se  Se217  1  0.74615837  0.07695497  0.29982605  1
  Se  Se218  1  0.74783209  0.08555244  0.79371667  1
  Se  Se219  1  0.76001354  0.41416795  0.31743998  1
  Se  Se220  1  0.75330895  0.41709296  0.81437823  1
  Se  Se221  1  0.73320096  0.73516404  0.30504727  1
  Se  Se222  1  0.75962998  0.76606272  0.80435915  1
  Se  Se223  1  0.25174202  0.08154001  0.19951609  1
  Se  Se224  1  0.24987148  0.08115723  0.69744071  1
  Se  Se225  1  0.24643148  0.41312009  0.19803691  1
  Se  Se226  1  0.25789490  0.41439596  0.69639601  1
  Se  Se227  1  0.24239128  0.75813543  0.19104612  1
  Se  Se228  1  0.24619324  0.75688931  0.68873672  1
  Se  Se229  1  0.58701134  0.07885989  0.19976238  1
  Se  Se230  1  0.58356527  0.08455389  0.69983369  1
  Se  Se231  1  0.57574111  0.41694462  0.18744939  1
  Se  Se232  1  0.58005338  0.42255350  0.69345245  1
  Se  Se233  1  0.58140933  0.75037499  0.19799022  1
  Se  Se234  1  0.58123077  0.75609097  0.68826090  1
  Se  Se235  1  0.92040035  0.09226873  0.18959183  1
  Se  Se236  1  0.91906335  0.08149733  0.69091513  1
  Se  Se237  1  0.90820026  0.41665883  0.19709751  1
  Se  Se238  1  0.91323923  0.41237564  0.69531132  1
  Se  Se239  1  0.92473172  0.73981066  0.20259971  1
  Se  Se240  1  0.90855792  0.75765299  0.68287178  1
  Se  Se241  1  0.08449636  0.24503497  0.19171932  1
  Se  Se242  1  0.08201315  0.24790939  0.69246376  1
  Se  Se243  1  0.07611940  0.58196995  0.20574351  1
  Se  Se244  1  0.09855676  0.57632168  0.69549412  1
  Se  Se245  1  0.09070202  0.91305534  0.18709162  1
  Se  Se246  1  0.08136846  0.91899053  0.69420741  1
  Se  Se247  1  0.41470080  0.24961612  0.19722559  1
  Se  Se248  1  0.41545016  0.25004181  0.69576081  1
  Se  Se249  1  0.41886089  0.57784825  0.18712131  1
  Se  Se250  1  0.42772007  0.57867064  0.68986340  1
  Se  Se251  1  0.41529415  0.91634962  0.20155385  1
  Se  Se252  1  0.41358322  0.91792683  0.69693943  1
  Se  Se253  1  0.75415856  0.24763940  0.19324846  1
  Se  Se254  1  0.75940718  0.24886618  0.68527414  1
  Se  Se255  1  0.74265860  0.57961557  0.20031404  1
  Se  Se256  1  0.75514541  0.57722081  0.69480368  1
  Se  Se257  1  0.77130891  0.90734216  0.19338603  1
  Se  Se258  1  0.74323987  0.92524711  0.68833348  1
