# generated using pymatgen
data_In86Cu29Se144
_symmetry_space_group_name_H-M   'P 1'
_cell_length_a   17.58269053
_cell_length_b   17.58560786
_cell_length_c   23.44639526
_cell_angle_alpha   89.96672590
_cell_angle_beta   89.98514130
_cell_angle_gamma   89.99370717
_symmetry_Int_Tables_number   1
_chemical_formula_structural   In86Cu29Se144
_chemical_formula_sum   'In86 Cu29 Se144'
_cell_volume   7249.67785066
_cell_formula_units_Z   1
loop_
 _symmetry_equiv_pos_site_id
 _symmetry_equiv_pos_as_xyz
  1  'x, y, z'
loop_
 _atom_site_type_symbol
 _atom_site_label
 _atom_site_symmetry_multiplicity
 _atom_site_fract_x
 _atom_site_fract_y
 _atom_site_fract_z
 _atom_site_occupancy
  In  In0  1  -0.02129516  0.17644643  0.13570162  1
  In  In1  1  -0.02682012  0.17156750  0.61708810  1
  In  In2  1  -0.00204625  0.50359098  0.12321128  1
  In  In3  1  0.00349330  0.50525690  0.62481840  1
  In  In4  1  -0.00354876  0.84047950  0.13300855  1
  In  In5  1  -0.01392532  0.83902893  0.63674103  1
  In  In6  1  0.33340876  0.17267654  0.12454705  1
  In  In7  1  0.34670072  0.15985172  0.62882537  1
  In  In8  1  0.33422362  0.51722707  0.12508740  1
  In  In9  1  0.32562005  0.48640328  0.62355579  1
  In  In10  1  0.32806548  0.81336255  0.12080338  1
  In  In11  1  0.34546809  0.83829743  0.62515472  1
  In  In12  1  0.68571842  0.16462423  0.12233246  1
  In  In13  1  0.66751557  0.16784575  0.62933241  1
  In  In14  1  0.68039390  0.48933345  0.13358736  1
  In  In15  1  0.66073836  0.51099152  0.63111192  1
  In  In16  1  0.65952941  0.82246291  0.11693146  1
  In  In17  1  0.68813978  0.82325060  0.64399761  1
  In  In18  1  0.15365908  0.00233352  0.37321562  1
  In  In19  1  0.16074601  0.00045183  0.86679404  1
  In  In20  1  0.16088038  0.34937967  0.36681390  1
  In  In21  1  0.16667762  0.33231347  0.87587108  1
  In  In22  1  0.16312619  0.66205158  0.35921443  1
  In  In23  1  0.15001128  0.66802972  0.87715549  1
  In  In24  1  0.51646811  0.00227939  0.38400593  1
  In  In25  1  0.49611985  -0.00706560  0.86883838  1
  In  In26  1  0.51111357  0.33010154  0.38697598  1
  In  In27  1  0.49671299  0.33108312  0.86764446  1
  In  In28  1  0.49475111  0.65441908  0.37185778  1
  In  In29  1  0.52046949  0.66695695  0.87294468  1
  In  In30  1  0.84258393  -0.00829054  0.38681255  1
  In  In31  1  0.83551842  -0.00332578  0.87178275  1
  In  In32  1  0.82865563  0.33307819  0.37182451  1
  In  In33  1  0.82731205  0.34398155  0.88663072  1
  In  In34  1  0.84048058  0.67697299  0.36861444  1
  In  In35  1  0.83054253  0.66235775  0.87671264  1
  In  In36  1  -0.01118661  0.16436845  0.37236926  1
  In  In37  1  -0.00324552  0.15657194  0.87483582  1
  In  In38  1  0.00609007  0.50537203  0.35786861  1
  In  In39  1  -0.01755302  0.50922738  0.89436707  1
  In  In40  1  -0.01452776  0.81538792  0.35833177  1
  In  In41  1  -0.02896051  0.81144082  0.85034239  1
  In  In42  1  0.34234251  0.17461610  0.37884235  1
  In  In43  1  0.33225478  0.16786950  0.86376930  1
  In  In44  1  0.33538718  0.51893777  0.37834476  1
  In  In45  1  0.33340167  0.48885333  0.87710631  1
  In  In46  1  0.33421550  0.81954673  0.37114040  1
  In  In47  1  0.33417164  0.84743183  0.87209767  1
  In  In48  1  0.66628835  0.17391649  0.38731974  1
  In  In49  1  0.67712295  0.17514310  0.86774189  1
  In  In50  1  0.66240937  0.49303137  0.37247716  1
  In  In51  1  0.67589087  0.50974246  0.86754290  1
  In  In52  1  0.68107674  0.83649953  0.37748660  1
  In  In53  1  0.67181588  0.82745701  0.87267383  1
  In  In54  1  0.15174855  -0.01626474  0.12515824  1
  In  In55  1  0.16785580  -0.00016142  0.63021044  1
  In  In56  1  0.13694368  0.34234971  0.12834009  1
  In  In57  1  0.16843308  0.34681528  0.62516548  1
  In  In58  1  0.17021046  0.65735298  0.13884237  1
  In  In59  1  0.15570080  0.65689220  0.62446633  1
  In  In60  1  0.51814407  -0.00140880  0.12214814  1
  In  In61  1  0.50087840  0.00396479  0.63207272  1
  In  In62  1  0.50047944  0.34625213  0.12768020  1
  In  In63  1  0.50473820  0.33298621  0.62610009  1
  In  In64  1  0.49542097  0.66715277  0.12930505  1
  In  In65  1  0.50900443  0.67330976  0.61960441  1
  In  In66  1  0.84488445  0.00569771  0.11540978  1
  In  In67  1  0.82840514  0.00127421  0.63344360  1
  In  In68  1  0.83716829  0.33134993  0.12066692  1
  In  In69  1  0.83377156  0.31192198  0.62083748  1
  In  In70  1  0.83260035  0.66739947  0.12514181  1
  In  In71  1  0.83560300  0.67244770  0.63241977  1
  In  In72  1  0.16557003  0.50377354  0.49051901  1
  In  In73  1  0.33246769  0.66635594  0.74262216  1
  In  In74  1  0.33006364  -0.00480052  0.24847074  1
  In  In75  1  0.33054001  0.33966522  0.25724946  1
  In  In76  1  0.00078739  0.33226701  0.74784000  1
  In  In77  1  0.50460058  0.50800264  -0.00229230  1
  In  In78  1  0.15686861  0.16438428  -0.00538771  1
  In  In79  1  0.67436878  -0.00139006  0.25443391  1
  In  In80  1  0.15794203  0.82553491  0.49197228  1
  In  In81  1  0.50511641  0.16637664  -0.01347955  1
  In  In82  1  0.50774798  0.83580129  0.50917007  1
  In  In83  1  0.16747551  0.17007954  0.49131078  1
  In  In84  1  0.83648230  0.50250493  0.49558434  1
  In  In85  1  0.15937677  0.83316270  -0.00095257  1
  Cu  Cu86  1  -0.00498758  0.66836029  0.00206982  1
  Cu  Cu87  1  0.49617586  0.82616683  0.24641543  1
  Cu  Cu88  1  0.50389751  0.83353007  0.74842173  1
  Cu  Cu89  1  0.16245285  0.50092863  0.75146033  1
  Cu  Cu90  1  0.15544365  0.15966392  0.24978667  1
  Cu  Cu91  1  -0.00565033  -0.00525905  -0.00429947  1
  Cu  Cu92  1  0.50844745  0.17341885  0.26109441  1
  Cu  Cu93  1  0.67506063  -0.01287574  -0.00420797  1
  Cu  Cu94  1  0.31662111  0.33902517  0.00062263  1
  Cu  Cu95  1  0.82791072  0.83367755  0.24664919  1
  Cu  Cu96  1  0.50110712  0.49254073  0.74873522  1
  Cu  Cu97  1  0.34384269  0.32935522  0.50360645  1
  Cu  Cu98  1  -0.00838340  0.00312998  0.50761058  1
  Cu  Cu99  1  0.83042724  0.50200808  0.24664894  1
  Cu  Cu100  1  0.16455108  0.83902718  0.75121134  1
  Cu  Cu101  1  0.83298138  0.49730254  0.75527748  1
  Cu  Cu102  1  0.83155095  0.16331625  0.74993528  1
  Cu  Cu103  1  0.67136435  0.33503393  0.50362456  1
  Cu  Cu104  1  0.66556300  0.33292497  0.00059837  1
  Cu  Cu105  1  0.17126887  0.17091750  0.74518934  1
  Cu  Cu106  1  0.83204485  0.17005072  0.25010269  1
  Cu  Cu107  1  0.50938686  0.50086055  0.25199435  1
  Cu  Cu108  1  0.33417612  0.67233503  0.00435271  1
  Cu  Cu109  1  0.66929879  0.66919563  0.50448510  1
  Cu  Cu110  1  0.34014122  -0.00212916  0.50513941  1
  Cu  Cu111  1  0.34218283  -0.00140013  -0.00447802  1
  Cu  Cu112  1  0.50410312  0.16766747  0.74866729  1
  Cu  Cu113  1  0.67562455  0.00553042  0.50887748  1
  Cu  Cu114  1  0.67556443  0.66613113  -0.00103915  1
  Se  Se115  1  0.07238634  0.07447777  0.05841126  1
  Se  Se116  1  0.08144872  0.08332757  0.55900844  1
  Se  Se117  1  0.07458166  0.41981387  0.04995002  1
  Se  Se118  1  0.07574122  0.41245907  0.55195456  1
  Se  Se119  1  0.07829830  0.74363570  0.06422846  1
  Se  Se120  1  0.07150311  0.74919296  0.56295254  1
  Se  Se121  1  0.41637375  0.08202680  0.05725370  1
  Se  Se122  1  0.42450287  0.08104617  0.55488075  1
  Se  Se123  1  0.40789550  0.41520732  0.05453565  1
  Se  Se124  1  0.42036591  0.41734556  0.55707602  1
  Se  Se125  1  0.42584448  0.75059804  0.05242934  1
  Se  Se126  1  0.40516319  0.74113783  0.55279502  1
  Se  Se127  1  0.75046441  0.07822248  0.04841598  1
  Se  Se128  1  0.75756040  0.09077714  0.56101928  1
  Se  Se129  1  0.74898291  0.41568903  0.05358723  1
  Se  Se130  1  0.74981495  0.41815732  0.56336393  1
  Se  Se131  1  0.75615889  0.75273287  0.05180529  1
  Se  Se132  1  0.75127530  0.74967176  0.56020653  1
  Se  Se133  1  0.24283997  0.25520567  0.06067630  1
  Se  Se134  1  0.25490072  0.25344614  0.56031929  1
  Se  Se135  1  0.24757696  0.59180663  0.05562624  1
  Se  Se136  1  0.25475237  0.58857818  0.55718820  1
  Se  Se137  1  0.25747913  0.92324450  0.05662328  1
  Se  Se138  1  0.25159148  0.91710916  0.55530812  1
  Se  Se139  1  0.58288271  0.25367447  0.05965120  1
  Se  Se140  1  0.58769092  0.25028103  0.55707011  1
  Se  Se141  1  0.59554464  0.58700912  0.06277678  1
  Se  Se142  1  0.58421901  0.58295559  0.55215808  1
  Se  Se143  1  0.58321578  0.91319856  0.04817098  1
  Se  Se144  1  0.59943607  0.91992977  0.57006680  1
  Se  Se145  1  0.90724718  0.23580185  0.05317565  1
  Se  Se146  1  0.92662375  0.26763490  0.54293460  1
  Se  Se147  1  0.91049164  0.58396735  0.05377042  1
  Se  Se148  1  0.92329408  0.59354699  0.55680399  1
  Se  Se149  1  0.91826301  0.90762112  0.05259033  1
  Se  Se150  1  0.91138716  0.91892797  0.56192541  1
  Se  Se151  1  0.07846921  0.26122511  0.43453407  1
  Se  Se152  1  0.06703872  0.25890093  0.94130266  1
  Se  Se153  1  0.07205550  0.59552469  0.43679816  1
  Se  Se154  1  0.08391617  0.58566611  0.95305503  1
  Se  Se155  1  0.06728854  0.92466179  0.44349062  1
  Se  Se156  1  0.07302916  0.91652698  0.93335325  1
  Se  Se157  1  0.42597463  0.24306459  0.45246901  1
  Se  Se158  1  0.40084988  0.25954971  0.94221715  1
  Se  Se159  1  0.42607452  0.57933890  0.45068080  1
  Se  Se160  1  0.41082595  0.59534878  0.93711959  1
  Se  Se161  1  0.41363384  0.91654695  0.44008644  1
  Se  Se162  1  0.42343187  0.91220635  0.94587310  1
  Se  Se163  1  0.75772502  0.25458090  0.45067678  1
  Se  Se164  1  0.74743910  0.24725838  0.94827430  1
  Se  Se165  1  0.74444038  0.59277967  0.43772497  1
  Se  Se166  1  0.75275112  0.57507722  0.94798647  1
  Se  Se167  1  0.75055966  0.91667256  0.45380610  1
  Se  Se168  1  0.75906892  0.90768727  0.94123155  1
  Se  Se169  1  0.26104240  0.07096732  0.43884202  1
  Se  Se170  1  0.25763831  0.07749969  0.93940872  1
  Se  Se171  1  0.26242508  0.40572552  0.44037722  1
  Se  Se172  1  0.23845750  0.42376306  0.94634864  1
  Se  Se173  1  0.25224770  0.73312414  0.43934072  1
  Se  Se174  1  0.25558388  0.74729372  0.93796990  1
  Se  Se175  1  0.58802764  0.08539826  0.45612220  1
  Se  Se176  1  0.59677590  0.07157591  0.93514177  1
  Se  Se177  1  0.58839803  0.42146930  0.45261200  1
  Se  Se178  1  0.58695336  0.41169531  0.93787377  1
  Se  Se179  1  0.58898176  0.74815989  0.44111215  1
  Se  Se180  1  0.58848826  0.74885245  0.94784921  1
  Se  Se181  1  0.91430920  0.08961345  0.45100843  1
  Se  Se182  1  0.91155962  0.08225925  0.94579286  1
  Se  Se183  1  0.92680434  0.41946493  0.43195226  1
  Se  Se184  1  0.91847404  0.40916876  0.95727761  1
  Se  Se185  1  0.91131339  0.75950166  0.44253865  1
  Se  Se186  1  0.91689979  0.74984268  0.94198109  1
  Se  Se187  1  0.24008158  0.23685670  0.30942691  1
  Se  Se188  1  0.24717962  0.25635347  0.80215325  1
  Se  Se189  1  0.23820252  0.55882382  0.30342396  1
  Se  Se190  1  0.24578389  0.58175471  0.81026991  1
  Se  Se191  1  0.24229298  0.90959271  0.31135121  1
  Se  Se192  1  0.25127636  0.92197968  0.80047142  1
  Se  Se193  1  0.59224603  0.25528391  0.31205951  1
  Se  Se194  1  0.58501650  0.25251223  0.80236880  1
  Se  Se195  1  0.59075280  0.58706888  0.30426251  1
  Se  Se196  1  0.58388990  0.58043982  0.79795507  1
  Se  Se197  1  0.57477330  0.90713955  0.30767449  1
  Se  Se198  1  0.58658766  0.91313677  0.80494376  1
  Se  Se199  1  0.91604502  0.25434985  0.30254119  1
  Se  Se200  1  0.90865767  0.24806138  0.81052727  1
  Se  Se201  1  0.91287357  0.58805398  0.29829889  1
  Se  Se202  1  0.91817719  0.57741022  0.80935176  1
  Se  Se203  1  0.90734675  0.91880848  0.30346843  1
  Se  Se204  1  0.93367771  0.93584999  0.80204320  1
  Se  Se205  1  0.07104222  0.07949202  0.30343474  1
  Se  Se206  1  0.08539325  0.09227838  0.80051082  1
  Se  Se207  1  0.08836782  0.42190030  0.29020502  1
  Se  Se208  1  0.07885507  0.42561467  0.81308849  1
  Se  Se209  1  0.09032526  0.75694313  0.29652735  1
  Se  Se210  1  0.08520133  0.74692966  0.79845179  1
  Se  Se211  1  0.42650104  0.08363609  0.31038878  1
  Se  Se212  1  0.41916716  0.08345308  0.80160930  1
  Se  Se213  1  0.42864946  0.42184266  0.31519245  1
  Se  Se214  1  0.41233341  0.41580335  0.80183693  1
  Se  Se215  1  0.41673101  0.74173117  0.30160782  1
  Se  Se216  1  0.42103406  0.75181083  0.80802037  1
  Se  Se217  1  0.75768013  0.09027712  0.31649573  1
  Se  Se218  1  0.74877351  0.07931485  0.80318921  1
  Se  Se219  1  0.74926565  0.41743350  0.30228879  1
  Se  Se220  1  0.75049993  0.41063987  0.80584919  1
  Se  Se221  1  0.74560377  0.75177642  0.30165670  1
  Se  Se222  1  0.74322794  0.73434652  0.80583705  1
  Se  Se223  1  0.24003627  0.08862538  0.18747253  1
  Se  Se224  1  0.25418727  0.08375896  0.69455211  1
  Se  Se225  1  0.25046991  0.41579757  0.18289783  1
  Se  Se226  1  0.24790176  0.41636133  0.70220190  1
  Se  Se227  1  0.25257216  0.75021542  0.19959791  1
  Se  Se228  1  0.24044433  0.75963827  0.68558107  1
  Se  Se229  1  0.58282979  0.09353838  0.19584131  1
  Se  Se230  1  0.58883262  0.08192357  0.69941000  1
  Se  Se231  1  0.58756068  0.41204260  0.20006091  1
  Se  Se232  1  0.58917039  0.41374127  0.69609165  1
  Se  Se233  1  0.58573879  0.74764483  0.19487900  1
  Se  Se234  1  0.58325597  0.74483371  0.69740332  1
  Se  Se235  1  0.91018016  0.07660612  0.19983918  1
  Se  Se236  1  0.92091877  0.08679252  0.69688913  1
  Se  Se237  1  0.91207664  0.41864075  0.19113824  1
  Se  Se238  1  0.90746230  0.42022007  0.68731164  1
  Se  Se239  1  0.91370670  0.75016848  0.19589603  1
  Se  Se240  1  0.92225483  0.74289966  0.70516293  1
  Se  Se241  1  0.07543773  0.24857228  0.19978771  1
  Se  Se242  1  0.08716205  0.24319790  0.68228505  1
  Se  Se243  1  0.06997822  0.58704965  0.19744531  1
  Se  Se244  1  0.07755772  0.58394357  0.70070221  1
  Se  Se245  1  0.08491593  0.91211585  0.20417661  1
  Se  Se246  1  0.08108011  0.92145245  0.69717634  1
  Se  Se247  1  0.42480176  0.24559941  0.19761081  1
  Se  Se248  1  0.41897395  0.25205915  0.69612697  1
  Se  Se249  1  0.42044585  0.58047633  0.20054449  1
  Se  Se250  1  0.42365139  0.57476392  0.68602908  1
  Se  Se251  1  0.42410466  0.91243924  0.18536666  1
  Se  Se252  1  0.41706994  0.91808963  0.69954684  1
  Se  Se253  1  0.75096067  0.25278209  0.19448089  1
  Se  Se254  1  0.75024470  0.25203903  0.69957464  1
  Se  Se255  1  0.74674255  0.58966781  0.19707050  1
  Se  Se256  1  0.75436039  0.58261766  0.69783910  1
  Se  Se257  1  0.75213652  0.91419651  0.18326108  1
  Se  Se258  1  0.75607682  0.91930107  0.70819905  1
