# generated using pymatgen
data_In86Cu29Se144
_symmetry_space_group_name_H-M   'P 1'
_cell_length_a   17.58151844
_cell_length_b   17.57235362
_cell_length_c   23.44358861
_cell_angle_alpha   90.02375033
_cell_angle_beta   89.97962996
_cell_angle_gamma   90.00029414
_symmetry_Int_Tables_number   1
_chemical_formula_structural   In86Cu29Se144
_chemical_formula_sum   'In86 Cu29 Se144'
_cell_volume   7242.86418952
_cell_formula_units_Z   1
loop_
 _symmetry_equiv_pos_site_id
 _symmetry_equiv_pos_as_xyz
  1  'x, y, z'
loop_
 _atom_site_type_symbol
 _atom_site_label
 _atom_site_symmetry_multiplicity
 _atom_site_fract_x
 _atom_site_fract_y
 _atom_site_fract_z
 _atom_site_occupancy
  In  In0  1  -0.00020303  0.16762238  0.11807208  1
  In  In1  1  -0.01114874  0.18113373  0.63953072  1
  In  In2  1  -0.01549175  0.49898861  0.12457566  1
  In  In3  1  0.00018781  0.48441309  0.61458300  1
  In  In4  1  -0.00925986  0.87913454  0.13931000  1
  In  In5  1  -0.00548134  0.84709969  0.62268412  1
  In  In6  1  0.33903993  0.17867324  0.11679838  1
  In  In7  1  0.34010878  0.15988584  0.63781132  1
  In  In8  1  0.33772818  0.49189618  0.13021100  1
  In  In9  1  0.32652174  0.50412414  0.62832632  1
  In  In10  1  0.31746903  0.83160008  0.13144663  1
  In  In11  1  0.33841173  0.83449857  0.62901262  1
  In  In12  1  0.66878579  0.15582348  0.12417694  1
  In  In13  1  0.66902997  0.17925367  0.60782842  1
  In  In14  1  0.66502110  0.50242892  0.12024514  1
  In  In15  1  0.67777986  0.48941917  0.61608858  1
  In  In16  1  0.68209112  0.84036035  0.12442944  1
  In  In17  1  0.66948040  0.83291138  0.60960120  1
  In  In18  1  0.16412710  0.01364410  0.37364134  1
  In  In19  1  0.18256781  0.02305282  0.85567552  1
  In  In20  1  0.17026742  0.33665833  0.36797389  1
  In  In21  1  0.15311997  0.30916560  0.85402984  1
  In  In22  1  0.15986201  0.64938792  0.37485265  1
  In  In23  1  0.17097933  0.65764798  0.87221787  1
  In  In24  1  0.50690443  -0.01038627  0.38000324  1
  In  In25  1  0.50427863  0.01278039  0.87982885  1
  In  In26  1  0.49038715  0.33114080  0.37510210  1
  In  In27  1  0.49923718  0.33572723  0.87981836  1
  In  In28  1  0.50803494  0.67949031  0.37783751  1
  In  In29  1  0.48398854  0.66342051  0.87470792  1
  In  In30  1  0.83192560  0.00381945  0.36843861  1
  In  In31  1  0.83393748  -0.00354140  0.88298152  1
  In  In32  1  0.85110213  0.31197069  0.39536478  1
  In  In33  1  0.83949657  0.32270060  0.88063007  1
  In  In34  1  0.83181012  0.66531304  0.38868558  1
  In  In35  1  0.83028219  0.66832478  0.88055307  1
  In  In36  1  -0.00807403  0.16128037  0.36345159  1
  In  In37  1  0.00049011  0.16542247  0.87273610  1
  In  In38  1  0.00606669  0.48600981  0.38616267  1
  In  In39  1  0.00672583  0.48443763  0.87539064  1
  In  In40  1  -0.01000500  0.83366106  0.37462092  1
  In  In41  1  -0.01353645  0.84534536  0.87862208  1
  In  In42  1  0.32597000  0.17795626  0.37539809  1
  In  In43  1  0.33822669  0.17041925  0.87340545  1
  In  In44  1  0.32621289  0.48884862  0.37003474  1
  In  In45  1  0.33609084  0.49791329  0.87159380  1
  In  In46  1  0.34928915  0.83406296  0.37623771  1
  In  In47  1  0.32528615  0.83038636  0.86886794  1
  In  In48  1  0.68199336  0.15323331  0.38234573  1
  In  In49  1  0.66631269  0.15777515  0.89363181  1
  In  In50  1  0.68059013  0.50157853  0.38151812  1
  In  In51  1  0.66972495  0.49140494  0.88326140  1
  In  In52  1  0.65816756  0.83891301  0.38090242  1
  In  In53  1  0.68033786  0.84545322  0.87960937  1
  In  In54  1  0.13153550  0.01293400  0.13264526  1
  In  In55  1  0.15562534  0.01857016  0.64441950  1
  In  In56  1  0.17125236  0.32420637  0.12740727  1
  In  In57  1  0.15760344  0.33789432  0.63448796  1
  In  In58  1  0.16950410  0.68399162  0.13143534  1
  In  In59  1  0.18226949  0.66373758  0.62402355  1
  In  In60  1  0.49855937  0.01688767  0.12217698  1
  In  In61  1  0.50044677  -0.00220767  0.62388488  1
  In  In62  1  0.49212548  0.32792040  0.12152446  1
  In  In63  1  0.50506245  0.32117833  0.62307689  1
  In  In64  1  0.50060887  0.65400675  0.12672149  1
  In  In65  1  0.48418250  0.66440066  0.62239941  1
  In  In66  1  0.83704156  0.00254142  0.11785044  1
  In  In67  1  0.83606172  0.00958888  0.61820202  1
  In  In68  1  0.83584080  0.33404713  0.12511347  1
  In  In69  1  0.85018693  0.33675102  0.60807189  1
  In  In70  1  0.82787407  0.66679265  0.11987632  1
  In  In71  1  0.83158525  0.66739732  0.61281490  1
  In  In72  1  0.66067682  0.66402925  0.73845110  1
  In  In73  1  0.00562531  0.66573291  0.75140865  1
  In  In74  1  0.50065924  0.83126875  -0.00211143  1
  In  In75  1  0.16111748  0.17487791  0.50820601  1
  In  In76  1  0.66393831  0.00204270  0.75456246  1
  In  In77  1  0.16787233  0.49510210  -0.00500376  1
  In  In78  1  0.67161516  0.32379650  0.24633995  1
  In  In79  1  0.00213832  0.66901670  0.25280677  1
  In  In80  1  0.66442735  0.66860880  0.25944939  1
  In  In81  1  0.50702468  0.50461609  0.50011195  1
  In  In82  1  0.66719518  0.32972602  0.74462676  1
  In  In83  1  0.33108993  0.00155798  0.24958730  1
  In  In84  1  0.17277404  0.83486624  0.50702493  1
  In  In85  1  0.15701439  0.84082794  0.00669929  1
  Cu  Cu86  1  0.66558525  0.66266522  0.00064653  1
  Cu  Cu87  1  0.33164727  0.33384836  0.49855000  1
  Cu  Cu88  1  0.50320075  0.83487111  0.25331345  1
  Cu  Cu89  1  0.17213138  0.49667339  0.75094178  1
  Cu  Cu90  1  0.16663661  0.49647775  0.25087530  1
  Cu  Cu91  1  -0.00870251  0.67436537  0.00368329  1
  Cu  Cu92  1  0.33468365  0.66587149  0.50131648  1
  Cu  Cu93  1  -0.00366212  0.33083841  -0.00378215  1
  Cu  Cu94  1  -0.00077959  0.00791783  -0.00323662  1
  Cu  Cu95  1  0.50094747  0.16641192  0.75209674  1
  Cu  Cu96  1  0.00247513  0.65929654  0.49995020  1
  Cu  Cu97  1  0.84029241  0.16892595  0.74986507  1
  Cu  Cu98  1  0.33909861  0.00216927  0.50864130  1
  Cu  Cu99  1  0.33367428  0.65877102  0.00036654  1
  Cu  Cu100  1  0.49866716  0.16805289  0.24678509  1
  Cu  Cu101  1  0.16599979  0.83344424  0.74413208  1
  Cu  Cu102  1  0.66669226  0.33309551  0.00721742  1
  Cu  Cu103  1  0.83257364  0.83809263  0.74887216  1
  Cu  Cu104  1  0.32582480  0.00687480  -0.00211194  1
  Cu  Cu105  1  0.84511827  0.48918207  0.74540059  1
  Cu  Cu106  1  0.16105029  0.16949057  0.24678751  1
  Cu  Cu107  1  0.83857167  0.49534261  0.25359060  1
  Cu  Cu108  1  0.66876040  0.00377439  0.49577342  1
  Cu  Cu109  1  0.49421168  0.50306160  0.75132356  1
  Cu  Cu110  1  -0.00862209  0.00152280  0.49670319  1
  Cu  Cu111  1  0.83573696  0.84203879  0.24943845  1
  Cu  Cu112  1  0.48992915  0.49579545  0.25101603  1
  Cu  Cu113  1  0.48852927  0.83477128  0.74860431  1
  Cu  Cu114  1  0.33248640  0.33237294  -0.00303432  1
  Se  Se115  1  0.08801503  0.09094813  0.04564676  1
  Se  Se116  1  0.07302895  0.07571625  0.56012425  1
  Se  Se117  1  0.07579122  0.41173563  0.05823280  1
  Se  Se118  1  0.08906050  0.40358042  0.55112283  1
  Se  Se119  1  0.06633064  0.75262844  0.06744823  1
  Se  Se120  1  0.07725073  0.74254614  0.56339730  1
  Se  Se121  1  0.41446095  0.08767695  0.04897458  1
  Se  Se122  1  0.41996945  0.09005581  0.55976755  1
  Se  Se123  1  0.41293527  0.41628197  0.05327190  1
  Se  Se124  1  0.41336866  0.41520576  0.55920601  1
  Se  Se125  1  0.40779957  0.74544702  0.06081653  1
  Se  Se126  1  0.41337350  0.75495891  0.55255142  1
  Se  Se127  1  0.75383212  0.08518003  0.05084875  1
  Se  Se128  1  0.75293475  0.08750012  0.54811675  1
  Se  Se129  1  0.75196679  0.41834778  0.05748838  1
  Se  Se130  1  0.74049634  0.39482454  0.54903436  1
  Se  Se131  1  0.74688187  0.75035578  0.05124174  1
  Se  Se132  1  0.76213772  0.75928846  0.54640824  1
  Se  Se133  1  0.24564353  0.25068389  0.04884930  1
  Se  Se134  1  0.26070596  0.25479167  0.56609510  1
  Se  Se135  1  0.24788152  0.58716793  0.06199390  1
  Se  Se136  1  0.25117038  0.57869312  0.54986424  1
  Se  Se137  1  0.25027173  0.93138464  0.06361619  1
  Se  Se138  1  0.24943828  0.93311472  0.56932487  1
  Se  Se139  1  0.58583834  0.24803488  0.06090865  1
  Se  Se140  1  0.57518606  0.25146825  0.54354208  1
  Se  Se141  1  0.57858500  0.58080588  0.05100516  1
  Se  Se142  1  0.59342130  0.59447885  0.56333691  1
  Se  Se143  1  0.58444241  0.92038979  0.06087296  1
  Se  Se144  1  0.58339917  0.92275046  0.55080524  1
  Se  Se145  1  0.91303105  0.25075915  0.05240781  1
  Se  Se146  1  0.93199741  0.24191977  0.55039878  1
  Se  Se147  1  0.91110221  0.58299921  0.05248620  1
  Se  Se148  1  0.91743278  0.57703286  0.55352740  1
  Se  Se149  1  0.91997844  0.91567518  0.04736372  1
  Se  Se150  1  0.90945750  0.91607475  0.54940068  1
  Se  Se151  1  0.08033655  0.24913011  0.43288359  1
  Se  Se152  1  0.08269758  0.25234323  0.94129891  1
  Se  Se153  1  0.08844273  0.57446997  0.45213748  1
  Se  Se154  1  0.07187442  0.59374004  0.94374330  1
  Se  Se155  1  0.08221466  0.92305711  0.44349284  1
  Se  Se156  1  0.08433855  0.93072439  0.93595505  1
  Se  Se157  1  0.41342629  0.24787189  0.44755713  1
  Se  Se158  1  0.42025102  0.24786254  0.94709471  1
  Se  Se159  1  0.41137311  0.58616780  0.43727468  1
  Se  Se160  1  0.41549338  0.57569447  0.94729338  1
  Se  Se161  1  0.41672242  0.91767988  0.45158362  1
  Se  Se162  1  0.40356523  0.91966635  0.94084084  1
  Se  Se163  1  0.73969773  0.25358583  0.45072005  1
  Se  Se164  1  0.74961033  0.25231324  0.95092649  1
  Se  Se165  1  0.73495799  0.59714611  0.45310858  1
  Se  Se166  1  0.75144172  0.58070577  0.94707348  1
  Se  Se167  1  0.75197375  0.92137445  0.44051149  1
  Se  Se168  1  0.74476280  0.92697326  0.95449296  1
  Se  Se169  1  0.25595424  0.07987983  0.44863414  1
  Se  Se170  1  0.24752419  0.09010748  0.94094068  1
  Se  Se171  1  0.24689669  0.41371158  0.44487013  1
  Se  Se172  1  0.24869546  0.40282033  0.93230880  1
  Se  Se173  1  0.25316285  0.74471926  0.43947414  1
  Se  Se174  1  0.24991989  0.74385619  0.94677034  1
  Se  Se175  1  0.57952443  0.08462865  0.44512201  1
  Se  Se176  1  0.58143360  0.07598962  0.95850427  1
  Se  Se177  1  0.58803749  0.40943686  0.43931358  1
  Se  Se178  1  0.58288856  0.41442552  0.95082569  1
  Se  Se179  1  0.58820057  0.74917646  0.45115300  1
  Se  Se180  1  0.59045279  0.74119698  0.93479890  1
  Se  Se181  1  0.91484935  0.08563537  0.43972120  1
  Se  Se182  1  0.91364404  0.09066408  0.94475120  1
  Se  Se183  1  0.89396479  0.43540928  0.44484396  1
  Se  Se184  1  0.91453899  0.41906566  0.94575257  1
  Se  Se185  1  0.92361729  0.74922300  0.44965943  1
  Se  Se186  1  0.91112768  0.75613639  0.94619671  1
  Se  Se187  1  0.24885787  0.24951485  0.29859611  1
  Se  Se188  1  0.26494429  0.25293265  0.79934190  1
  Se  Se189  1  0.24917733  0.58078827  0.30347316  1
  Se  Se190  1  0.25432086  0.58300876  0.80190353  1
  Se  Se191  1  0.24777368  0.91327689  0.31534073  1
  Se  Se192  1  0.25088393  0.91568818  0.79830816  1
  Se  Se193  1  0.57970156  0.24196612  0.31103506  1
  Se  Se194  1  0.58672247  0.24067665  0.81312905  1
  Se  Se195  1  0.57443435  0.56992107  0.31237653  1
  Se  Se196  1  0.58194202  0.57701962  0.81001797  1
  Se  Se197  1  0.58775613  0.91890847  0.30314292  1
  Se  Se198  1  0.57362514  0.90566733  0.81173591  1
  Se  Se199  1  0.91049269  0.25626277  0.30487292  1
  Se  Se200  1  0.92008622  0.25518089  0.80329267  1
  Se  Se201  1  0.91248628  0.58117518  0.31383573  1
  Se  Se202  1  0.91203355  0.57617428  0.80967273  1
  Se  Se203  1  0.92356208  0.92150316  0.30188522  1
  Se  Se204  1  0.90996293  0.92319514  0.80394326  1
  Se  Se205  1  0.08218375  0.08010600  0.29768687  1
  Se  Se206  1  0.06729595  0.07374223  0.80139512  1
  Se  Se207  1  0.07849335  0.41792403  0.30372702  1
  Se  Se208  1  0.08036601  0.41442433  0.79661587  1
  Se  Se209  1  0.09276251  0.75748617  0.31303703  1
  Se  Se210  1  0.08899347  0.76077231  0.81358710  1
  Se  Se211  1  0.42057748  0.08820505  0.31224177  1
  Se  Se212  1  0.42082836  0.08061231  0.80557197  1
  Se  Se213  1  0.41026653  0.40699640  0.30126984  1
  Se  Se214  1  0.42032187  0.41270705  0.80527174  1
  Se  Se215  1  0.42178706  0.74813791  0.30345400  1
  Se  Se216  1  0.41109608  0.74700933  0.80245610  1
  Se  Se217  1  0.75018780  0.08689046  0.29985219  1
  Se  Se218  1  0.75460539  0.09518863  0.81110202  1
  Se  Se219  1  0.75534968  0.41526539  0.30964922  1
  Se  Se220  1  0.75683120  0.41893085  0.80634890  1
  Se  Se221  1  0.76164733  0.75845552  0.31151404  1
  Se  Se222  1  0.75045939  0.75322003  0.80339975  1
  Se  Se223  1  0.24463592  0.09093687  0.18581134  1
  Se  Se224  1  0.25379977  0.08529323  0.70714995  1
  Se  Se225  1  0.24853835  0.41261461  0.19544126  1
  Se  Se226  1  0.25497448  0.41325926  0.69742647  1
  Se  Se227  1  0.25993356  0.74139483  0.20553863  1
  Se  Se228  1  0.25272564  0.74994268  0.69583849  1
  Se  Se229  1  0.58286067  0.08241030  0.19816813  1
  Se  Se230  1  0.58667474  0.09609611  0.68866802  1
  Se  Se231  1  0.57806678  0.42173750  0.19214652  1
  Se  Se232  1  0.57700248  0.42791853  0.68948220  1
  Se  Se233  1  0.58212450  0.75591873  0.18922049  1
  Se  Se234  1  0.57317838  0.76339573  0.68578955  1
  Se  Se235  1  0.95125492  0.05168018  0.17997230  1
  Se  Se236  1  0.91516274  0.07682732  0.69708202  1
  Se  Se237  1  0.91848826  0.41233669  0.19854927  1
  Se  Se238  1  0.92347012  0.40606686  0.68999700  1
  Se  Se239  1  0.91201796  0.75692914  0.18889417  1
  Se  Se240  1  0.91031904  0.75184863  0.69165285  1
  Se  Se241  1  0.07611321  0.25099715  0.19251294  1
  Se  Se242  1  0.10241174  0.23015637  0.69730970  1
  Se  Se243  1  0.08791800  0.57642615  0.18847454  1
  Se  Se244  1  0.09024512  0.57557497  0.68833906  1
  Se  Se245  1  0.11882436  0.88968280  0.19072612  1
  Se  Se246  1  0.07583616  0.91565261  0.69845654  1
  Se  Se247  1  0.41306508  0.25102371  0.19650264  1
  Se  Se248  1  0.42246498  0.25487563  0.69944585  1
  Se  Se249  1  0.41266039  0.58457478  0.19799187  1
  Se  Se250  1  0.41177507  0.58640325  0.69777526  1
  Se  Se251  1  0.42426293  0.91235445  0.18878921  1
  Se  Se252  1  0.41385541  0.92616313  0.69678764  1
  Se  Se253  1  0.76511886  0.23278704  0.19214017  1
  Se  Se254  1  0.76056487  0.24455924  0.68547826  1
  Se  Se255  1  0.75475083  0.57774023  0.19701938  1
  Se  Se256  1  0.76302005  0.57200604  0.68976617  1
  Se  Se257  1  0.75493896  0.92600993  0.19494461  1
  Se  Se258  1  0.74902394  0.91396870  0.68861804  1
