# generated using pymatgen
data_In86Cu29Se144
_symmetry_space_group_name_H-M   'P 1'
_cell_length_a   17.59385201
_cell_length_b   17.58720991
_cell_length_c   23.45529334
_cell_angle_alpha   90.01452695
_cell_angle_beta   89.98686431
_cell_angle_gamma   89.97861702
_symmetry_Int_Tables_number   1
_chemical_formula_structural   In86Cu29Se144
_chemical_formula_sum   'In86 Cu29 Se144'
_cell_volume   7257.69469143
_cell_formula_units_Z   1
loop_
 _symmetry_equiv_pos_site_id
 _symmetry_equiv_pos_as_xyz
  1  'x, y, z'
loop_
 _atom_site_type_symbol
 _atom_site_label
 _atom_site_symmetry_multiplicity
 _atom_site_fract_x
 _atom_site_fract_y
 _atom_site_fract_z
 _atom_site_occupancy
  In  In0  1  0.01052689  0.17875945  0.11480235  1
  In  In1  1  0.00627883  0.15782637  0.63232159  1
  In  In2  1  -0.01754160  0.48721734  0.12460551  1
  In  In3  1  -0.00858951  0.48922129  0.61899951  1
  In  In4  1  -0.00283478  0.84905671  0.12292840  1
  In  In5  1  0.00647820  0.83352210  0.62612061  1
  In  In6  1  0.34844347  0.19733513  0.09295575  1
  In  In7  1  0.33340199  0.16709018  0.62662106  1
  In  In8  1  0.32679758  0.47922342  0.11984955  1
  In  In9  1  0.32211223  0.48905039  0.61990809  1
  In  In10  1  0.33629962  0.83068056  0.12664601  1
  In  In11  1  0.34288846  0.84069103  0.61883406  1
  In  In12  1  0.65594592  0.15660617  0.11842582  1
  In  In13  1  0.65461341  0.17709863  0.63239667  1
  In  In14  1  0.66846783  0.49709549  0.11791398  1
  In  In15  1  0.65006556  0.47097996  0.60779488  1
  In  In16  1  0.67399161  0.83475433  0.12167193  1
  In  In17  1  0.66467015  0.85031145  0.62887065  1
  In  In18  1  0.17473048  -0.00162350  0.38679130  1
  In  In19  1  0.17914479  0.01614143  0.86325916  1
  In  In20  1  0.16976719  0.33093132  0.37924781  1
  In  In21  1  0.15932119  0.32266653  0.86878405  1
  In  In22  1  0.16429264  0.66845773  0.38167697  1
  In  In23  1  0.17169388  0.67014166  0.87486833  1
  In  In24  1  0.50385968  0.00336893  0.38294671  1
  In  In25  1  0.50941939  0.01461265  0.86682128  1
  In  In26  1  0.49735998  0.33520040  0.38179085  1
  In  In27  1  0.50191665  0.32560424  0.87550263  1
  In  In28  1  0.50287437  0.66475913  0.38305371  1
  In  In29  1  0.49626360  0.64578875  0.87752949  1
  In  In30  1  0.82938677  0.01482345  0.37221173  1
  In  In31  1  0.83292976  0.00080568  0.87229327  1
  In  In32  1  0.84169242  0.33126480  0.37326802  1
  In  In33  1  0.83305982  0.33258780  0.87483842  1
  In  In34  1  0.82068586  0.65922578  0.37337310  1
  In  In35  1  0.83457176  0.66841246  0.88392088  1
  In  In36  1  -0.00036441  0.18073285  0.37656891  1
  In  In37  1  -0.00314383  0.16478449  0.87225315  1
  In  In38  1  0.00631211  0.49300688  0.38101021  1
  In  In39  1  -0.00260025  0.48504319  0.87131033  1
  In  In40  1  0.00614410  0.84334128  0.37888048  1
  In  In41  1  -0.01593670  0.84295489  0.87371157  1
  In  In42  1  0.33095516  0.17140420  0.38209957  1
  In  In43  1  0.33700179  0.17264962  0.87474684  1
  In  In44  1  0.34420746  0.48630300  0.38305264  1
  In  In45  1  0.35306988  0.48615879  0.88510678  1
  In  In46  1  0.33304432  0.84071690  0.38455702  1
  In  In47  1  0.32343104  0.83566245  0.87181127  1
  In  In48  1  0.67063503  0.16072880  0.37470537  1
  In  In49  1  0.66659999  0.16920595  0.87518552  1
  In  In50  1  0.66811292  0.48957975  0.38872246  1
  In  In51  1  0.67914658  0.48994587  0.88010689  1
  In  In52  1  0.65578441  0.83454607  0.37804532  1
  In  In53  1  0.67184802  0.84873392  0.86758834  1
  In  In54  1  0.15776060  0.00959526  0.12585431  1
  In  In55  1  0.17076250  0.00338984  0.62499261  1
  In  In56  1  0.17621402  0.32159044  0.13901044  1
  In  In57  1  0.16754844  0.33065155  0.62694818  1
  In  In58  1  0.16975923  0.65921435  0.13153389  1
  In  In59  1  0.16517296  0.66782461  0.61651950  1
  In  In60  1  0.49736911  0.02785509  0.12788966  1
  In  In61  1  0.49944830  0.00400389  0.62649116  1
  In  In62  1  0.49178964  0.32820969  0.11537931  1
  In  In63  1  0.49933145  0.32351144  0.62423308  1
  In  In64  1  0.50842219  0.66376223  0.12179110  1
  In  In65  1  0.49300925  0.65898377  0.61752320  1
  In  In66  1  0.82497942  -0.00407458  0.11457175  1
  In  In67  1  0.82353001  0.00312450  0.64411196  1
  In  In68  1  0.84405533  0.34092976  0.11880665  1
  In  In69  1  0.82709408  0.33849760  0.63375761  1
  In  In70  1  0.82607192  0.66254745  0.11519933  1
  In  In71  1  0.84240973  0.65745161  0.62590064  1
  In  In72  1  0.33158290  0.66386729  0.75150648  1
  In  In73  1  0.82896801  0.17528798  0.50087599  1
  In  In74  1  0.50657145  0.83301451  -0.00406365  1
  In  In75  1  0.33365769  0.66221823  0.25041090  1
  In  In76  1  0.00199586  0.67035618  0.74270225  1
  In  In77  1  0.32735158  0.01029110  0.25613423  1
  In  In78  1  -0.00330920  0.00737818  0.24785237  1
  In  In79  1  0.66497157  0.66258776  0.24207674  1
  In  In80  1  -0.00079329  0.66320383  0.25600196  1
  In  In81  1  0.83517933  0.83003128  0.50628590  1
  In  In82  1  0.67073881  0.66625266  0.74830777  1
  In  In83  1  0.16520801  0.49422392  -0.00173512  1
  In  In84  1  0.66724940  0.32950172  0.25192696  1
  In  In85  1  0.16404341  0.83857949  -0.00230357  1
  Cu  Cu86  1  0.49562755  0.83769609  0.74691476  1
  Cu  Cu87  1  0.33195419  0.33096759  0.50396911  1
  Cu  Cu88  1  0.17037565  0.49227795  0.74994872  1
  Cu  Cu89  1  0.83119618  0.83581871  0.24019714  1
  Cu  Cu90  1  0.33102250  0.66749852  0.49892331  1
  Cu  Cu91  1  -0.00108708  0.66744529  0.00153855  1
  Cu  Cu92  1  0.66781449  0.00352127  -0.00656121  1
  Cu  Cu93  1  0.33802174  0.00513277  0.50523180  1
  Cu  Cu94  1  0.33290866  0.00514459  -0.00674792  1
  Cu  Cu95  1  0.66735144  0.33288280  -0.00286160  1
  Cu  Cu96  1  0.66372297  0.00251912  0.50388860  1
  Cu  Cu97  1  -0.00481517  0.00599212  -0.00402036  1
  Cu  Cu98  1  0.49775087  0.84699919  0.25774575  1
  Cu  Cu99  1  0.16823006  0.16977837  0.25190138  1
  Cu  Cu100  1  0.49795588  0.16623397  0.75010678  1
  Cu  Cu101  1  0.00176263  0.66342238  0.50061042  1
  Cu  Cu102  1  0.00596624  0.33324348  0.50203552  1
  Cu  Cu103  1  0.49751971  0.49426961  0.25431318  1
  Cu  Cu104  1  0.00664757  0.00150505  0.50696485  1
  Cu  Cu105  1  0.66470908  0.66377721  0.50083663  1
  Cu  Cu106  1  0.83239065  0.16923597  0.75668451  1
  Cu  Cu107  1  0.82934072  0.16802726  0.24536789  1
  Cu  Cu108  1  0.83132329  0.49624253  0.74881377  1
  Cu  Cu109  1  -0.00418513  0.33093716  -0.00486154  1
  Cu  Cu110  1  0.16698187  0.48900844  0.25632275  1
  Cu  Cu111  1  0.66787164  0.66505608  -0.00212590  1
  Cu  Cu112  1  0.16768494  0.16774288  0.74797627  1
  Cu  Cu113  1  0.16584076  0.84415948  0.74616328  1
  Cu  Cu114  1  0.50135513  0.48399543  0.74808902  1
  Se  Se115  1  0.08412421  0.08347443  0.04899278  1
  Se  Se116  1  0.08858405  0.08911911  0.55590827  1
  Se  Se117  1  0.07737449  0.40635122  0.06049802  1
  Se  Se118  1  0.08907078  0.41738601  0.55563172  1
  Se  Se119  1  0.07981706  0.74399881  0.06270196  1
  Se  Se120  1  0.08019760  0.75328870  0.55171963  1
  Se  Se121  1  0.42107770  0.08560297  0.04458890  1
  Se  Se122  1  0.42172383  0.08965839  0.55656003  1
  Se  Se123  1  0.42394917  0.42575342  0.04970376  1
  Se  Se124  1  0.41707184  0.41340838  0.55713929  1
  Se  Se125  1  0.41287231  0.74454030  0.05607615  1
  Se  Se126  1  0.41698225  0.74952139  0.55146117  1
  Se  Se127  1  0.74944718  0.08729662  0.04866797  1
  Se  Se128  1  0.74723826  0.07968656  0.56330167  1
  Se  Se129  1  0.75242084  0.41561449  0.05072413  1
  Se  Se130  1  0.76821422  0.42200087  0.55472379  1
  Se  Se131  1  0.74905110  0.75314180  0.04913743  1
  Se  Se132  1  0.74079337  0.74277488  0.56529598  1
  Se  Se133  1  0.22793726  0.25426271  0.05012857  1
  Se  Se134  1  0.24830692  0.24737326  0.55676068  1
  Se  Se135  1  0.25470592  0.58790341  0.05825112  1
  Se  Se136  1  0.24983313  0.58274015  0.55273690  1
  Se  Se137  1  0.25869346  0.92602820  0.05893236  1
  Se  Se138  1  0.25142212  0.91903506  0.55444103  1
  Se  Se139  1  0.58431362  0.25009902  0.05120626  1
  Se  Se140  1  0.59099634  0.25401792  0.55354668  1
  Se  Se141  1  0.58507649  0.58219818  0.05110788  1
  Se  Se142  1  0.58058351  0.57866698  0.55177194  1
  Se  Se143  1  0.58593611  0.92800736  0.05893924  1
  Se  Se144  1  0.57986345  0.91759483  0.55493963  1
  Se  Se145  1  0.91292051  0.24716591  0.04918599  1
  Se  Se146  1  0.92423916  0.25426843  0.56371356  1
  Se  Se147  1  0.91815529  0.58095046  0.05371803  1
  Se  Se148  1  0.91636197  0.58034680  0.55067296  1
  Se  Se149  1  0.91578509  0.91705249  0.04774447  1
  Se  Se150  1  0.91602950  0.92997069  0.56423031  1
  Se  Se151  1  0.08681900  0.24685794  0.44965233  1
  Se  Se152  1  0.07955663  0.24741764  0.94307451  1
  Se  Se153  1  0.08623757  0.58045276  0.44807712  1
  Se  Se154  1  0.07499938  0.58978655  0.93792344  1
  Se  Se155  1  0.08651849  0.91597708  0.45243227  1
  Se  Se156  1  0.08114669  0.92930091  0.93504238  1
  Se  Se157  1  0.41761928  0.24921121  0.45074657  1
  Se  Se158  1  0.42298712  0.24411891  0.94705817  1
  Se  Se159  1  0.41596733  0.58321421  0.44750856  1
  Se  Se160  1  0.41009224  0.58670530  0.95227939  1
  Se  Se161  1  0.42008687  0.92009480  0.45028234  1
  Se  Se162  1  0.41354216  0.92162364  0.93647202  1
  Se  Se163  1  0.73928340  0.26391562  0.44099760  1
  Se  Se164  1  0.75165079  0.24965236  0.94448333  1
  Se  Se165  1  0.75143647  0.58196764  0.45026682  1
  Se  Se166  1  0.75409457  0.58033783  0.94821821  1
  Se  Se167  1  0.74929607  0.92477709  0.44398566  1
  Se  Se168  1  0.75136165  0.91652096  0.94484268  1
  Se  Se169  1  0.25172376  0.08672637  0.45234190  1
  Se  Se170  1  0.24848409  0.08933759  0.94306331  1
  Se  Se171  1  0.24936082  0.41555747  0.44949422  1
  Se  Se172  1  0.25225144  0.40197097  0.94051966  1
  Se  Se173  1  0.24837648  0.75289471  0.44735492  1
  Se  Se174  1  0.26036787  0.74205690  0.94782495  1
  Se  Se175  1  0.58697534  0.08971444  0.44929763  1
  Se  Se176  1  0.58116613  0.08783788  0.94569833  1
  Se  Se177  1  0.57037479  0.42381018  0.45121859  1
  Se  Se178  1  0.58329163  0.41564824  0.94300787  1
  Se  Se179  1  0.58340371  0.75159750  0.45028606  1
  Se  Se180  1  0.59297837  0.74236383  0.93177646  1
  Se  Se181  1  0.92476300  0.07891964  0.44518655  1
  Se  Se182  1  0.91066770  0.08705203  0.94269635  1
  Se  Se183  1  0.91857808  0.41104534  0.44707147  1
  Se  Se184  1  0.91313132  0.41925272  0.94624138  1
  Se  Se185  1  0.92071592  0.74262969  0.43821290  1
  Se  Se186  1  0.92001260  0.75423069  0.94806286  1
  Se  Se187  1  0.25212106  0.24944491  0.30799503  1
  Se  Se188  1  0.25208043  0.24960515  0.80212636  1
  Se  Se189  1  0.24528563  0.57482049  0.31348786  1
  Se  Se190  1  0.24760300  0.56941266  0.81346588  1
  Se  Se191  1  0.24174165  0.90954451  0.30913159  1
  Se  Se192  1  0.25498276  0.92061871  0.79894652  1
  Se  Se193  1  0.57555844  0.24327861  0.31061600  1
  Se  Se194  1  0.58450620  0.24855084  0.80279528  1
  Se  Se195  1  0.58091500  0.57597327  0.30977584  1
  Se  Se196  1  0.58108446  0.56994488  0.80461507  1
  Se  Se197  1  0.58599030  0.92494379  0.30883289  1
  Se  Se198  1  0.58060138  0.91929266  0.79986374  1
  Se  Se199  1  0.91459171  0.24591219  0.30071188  1
  Se  Se200  1  0.91885447  0.25460085  0.80465836  1
  Se  Se201  1  0.90853586  0.57175488  0.31049347  1
  Se  Se202  1  0.91145354  0.58134661  0.80609761  1
  Se  Se203  1  0.90692160  0.91107401  0.30726283  1
  Se  Se204  1  0.91677515  0.92384341  0.79977856  1
  Se  Se205  1  0.09136861  0.08686167  0.31282610  1
  Se  Se206  1  0.08043264  0.08502598  0.79994479  1
  Se  Se207  1  0.08126742  0.40871842  0.30914792  1
  Se  Se208  1  0.08150604  0.41205010  0.80039845  1
  Se  Se209  1  0.08996401  0.75939041  0.30768611  1
  Se  Se210  1  0.09057772  0.75959377  0.80763082  1
  Se  Se211  1  0.42406270  0.09271783  0.31235350  1
  Se  Se212  1  0.41163768  0.08408750  0.80271264  1
  Se  Se213  1  0.41558737  0.40938519  0.30531981  1
  Se  Se214  1  0.41605715  0.40816661  0.80501181  1
  Se  Se215  1  0.42194369  0.75703903  0.31139528  1
  Se  Se216  1  0.42603277  0.75283899  0.81104026  1
  Se  Se217  1  0.74727066  0.08387784  0.29786020  1
  Se  Se218  1  0.74634117  0.08383247  0.80568374  1
  Se  Se219  1  0.75402937  0.42454411  0.30954610  1
  Se  Se220  1  0.74883937  0.41228586  0.80240108  1
  Se  Se221  1  0.75166242  0.75875424  0.30424885  1
  Se  Se222  1  0.76157096  0.75406455  0.80789216  1
  Se  Se223  1  0.24745737  0.09625885  0.18724023  1
  Se  Se224  1  0.25216119  0.08292747  0.69653166  1
  Se  Se225  1  0.25628983  0.41242921  0.20287925  1
  Se  Se226  1  0.25471794  0.40950481  0.69791674  1
  Se  Se227  1  0.24156731  0.75968337  0.19669995  1
  Se  Se228  1  0.24418014  0.75512721  0.69006943  1
  Se  Se229  1  0.58907032  0.08453561  0.20043090  1
  Se  Se230  1  0.58347859  0.08162874  0.69822053  1
  Se  Se231  1  0.57873081  0.42039335  0.19004535  1
  Se  Se232  1  0.58722114  0.40544553  0.69404142  1
  Se  Se233  1  0.57211376  0.76438842  0.19326839  1
  Se  Se234  1  0.57186851  0.75044084  0.68957982  1
  Se  Se235  1  0.91049942  0.09074954  0.18211776  1
  Se  Se236  1  0.91602275  0.08634851  0.70249842  1
  Se  Se237  1  0.91626393  0.40739571  0.20098633  1
  Se  Se238  1  0.92152550  0.41552856  0.69921271  1
  Se  Se239  1  0.91294822  0.75195518  0.18705356  1
  Se  Se240  1  0.90440613  0.76203744  0.69221355  1
  Se  Se241  1  0.07675690  0.24711195  0.19993297  1
  Se  Se242  1  0.08212859  0.25174739  0.69706998  1
  Se  Se243  1  0.08719952  0.56784438  0.19476734  1
  Se  Se244  1  0.09212870  0.57414371  0.68915141  1
  Se  Se245  1  0.09202645  0.91082113  0.19689484  1
  Se  Se246  1  0.08048974  0.92361380  0.69318994  1
  Se  Se247  1  0.41569707  0.24222442  0.18410664  1
  Se  Se248  1  0.41440916  0.25024616  0.69728044  1
  Se  Se249  1  0.42318469  0.57464863  0.18929277  1
  Se  Se250  1  0.42092611  0.57080171  0.69313306  1
  Se  Se251  1  0.41990538  0.91952045  0.19216800  1
  Se  Se252  1  0.41253190  0.92117109  0.69514550  1
  Se  Se253  1  0.75223289  0.24685597  0.18285071  1
  Se  Se254  1  0.74964986  0.24877475  0.69904815  1
  Se  Se255  1  0.76100710  0.57095164  0.19164757  1
  Se  Se256  1  0.74976213  0.57043501  0.68589239  1
  Se  Se257  1  0.74719916  0.92214911  0.19233427  1
  Se  Se258  1  0.74471540  0.91183576  0.70660863  1
