# generated using pymatgen
data_In86Cu29Se144
_symmetry_space_group_name_H-M   'P 1'
_cell_length_a   17.53915793
_cell_length_b   17.54107512
_cell_length_c   23.39598206
_cell_angle_alpha   89.98900484
_cell_angle_beta   90.00523974
_cell_angle_gamma   89.99535081
_symmetry_Int_Tables_number   1
_chemical_formula_structural   In86Cu29Se144
_chemical_formula_sum   'In86 Cu29 Se144'
_cell_volume   7197.90673930
_cell_formula_units_Z   1
loop_
 _symmetry_equiv_pos_site_id
 _symmetry_equiv_pos_as_xyz
  1  'x, y, z'
loop_
 _atom_site_type_symbol
 _atom_site_label
 _atom_site_symmetry_multiplicity
 _atom_site_fract_x
 _atom_site_fract_y
 _atom_site_fract_z
 _atom_site_occupancy
  In  In0  1  0.02920924  0.14742672  0.14839492  1
  In  In1  1  0.00271517  0.15777888  0.62309354  1
  In  In2  1  0.00071417  0.49696013  0.12155505  1
  In  In3  1  0.02098354  0.50674167  0.62241011  1
  In  In4  1  0.01510807  0.82171424  0.12553424  1
  In  In5  1  0.00791790  0.83991099  0.62832376  1
  In  In6  1  0.30594712  0.18370932  0.14811256  1
  In  In7  1  0.32533797  0.16202757  0.61550544  1
  In  In8  1  0.33311252  0.50577362  0.11949085  1
  In  In9  1  0.34010778  0.51506077  0.60528354  1
  In  In10  1  0.33300815  0.83178838  0.12635879  1
  In  In11  1  0.30487151  0.82157965  0.61315174  1
  In  In12  1  0.67001538  0.16595071  0.12287288  1
  In  In13  1  0.67334778  0.15940973  0.63642593  1
  In  In14  1  0.66514156  0.50186826  0.11679395  1
  In  In15  1  0.65627347  0.51506371  0.63636160  1
  In  In16  1  0.65220921  0.84553275  0.12203791  1
  In  In17  1  0.67979551  0.81866863  0.64127399  1
  In  In18  1  0.17050302  -0.00140693  0.37481556  1
  In  In19  1  0.16250245  -0.00338065  0.87833280  1
  In  In20  1  0.17222862  0.33778330  0.36382747  1
  In  In21  1  0.16508261  0.32988946  0.88302621  1
  In  In22  1  0.18701421  0.64354701  0.40670835  1
  In  In23  1  0.17001200  0.66977643  0.87691607  1
  In  In24  1  0.50090439  0.00746137  0.37479007  1
  In  In25  1  0.49064056  -0.01388197  0.87341145  1
  In  In26  1  0.47758196  0.35619116  0.37959287  1
  In  In27  1  0.51245147  0.34287043  0.87399191  1
  In  In28  1  0.47790399  0.65548200  0.37450912  1
  In  In29  1  0.49814973  0.66419930  0.87679035  1
  In  In30  1  0.84953745  -0.02057982  0.38704697  1
  In  In31  1  0.83661490  -0.01600650  0.85551619  1
  In  In32  1  0.83795874  0.32049351  0.37585670  1
  In  In33  1  0.83180464  0.34771351  0.87491250  1
  In  In34  1  0.85484122  0.67559498  0.38513085  1
  In  In35  1  0.82576319  0.66181416  0.86025041  1
  In  In36  1  0.02971558  0.18207558  0.35231458  1
  In  In37  1  0.01317405  0.15606417  0.87807298  1
  In  In38  1  0.02930678  0.50706208  0.37828167  1
  In  In39  1  -0.00794087  0.49898582  0.87912622  1
  In  In40  1  0.00426826  0.83056814  0.38275673  1
  In  In41  1  0.00434506  0.83835343  0.86522438  1
  In  In42  1  0.30152247  0.14443194  0.34499429  1
  In  In43  1  0.32161561  0.15474682  0.88220084  1
  In  In44  1  0.33755659  0.50043353  0.37022615  1
  In  In45  1  0.31680783  0.52674479  0.89853031  1
  In  In46  1  0.32285111  0.82010249  0.37478628  1
  In  In47  1  0.34465907  0.81404747  0.89364709  1
  In  In48  1  0.66634663  0.16142322  0.37573337  1
  In  In49  1  0.66517465  0.16811124  0.86706187  1
  In  In50  1  0.65462875  0.49562604  0.37966498  1
  In  In51  1  0.66658369  0.50513947  0.87406626  1
  In  In52  1  0.67260026  0.84121547  0.38249187  1
  In  In53  1  0.65650539  0.82112797  0.85508158  1
  In  In54  1  0.16322992  -0.00493552  0.13173475  1
  In  In55  1  0.15067967  -0.02849768  0.60123198  1
  In  In56  1  0.16836271  0.33711662  0.12778939  1
  In  In57  1  0.17015955  0.34312179  0.61299932  1
  In  In58  1  0.18479473  0.67968895  0.10770184  1
  In  In59  1  0.16647543  0.66802697  0.63164496  1
  In  In60  1  0.48733573  -0.01981133  0.11624466  1
  In  In61  1  0.50249214  0.00283789  0.62815021  1
  In  In62  1  0.48640937  0.34390998  0.13119717  1
  In  In63  1  0.49377947  0.35035843  0.62749088  1
  In  In64  1  0.46520622  0.64750167  0.09239592  1
  In  In65  1  0.50411445  0.66196531  0.62854153  1
  In  In66  1  0.83986749  0.01028880  0.12398605  1
  In  In67  1  0.85786418  -0.02709414  0.65026313  1
  In  In68  1  0.83921145  0.34511680  0.12057550  1
  In  In69  1  0.83016715  0.32182410  0.62615420  1
  In  In70  1  0.84464923  0.65924592  0.11726459  1
  In  In71  1  0.83323695  0.68315963  0.63595742  1
  In  In72  1  0.48653508  0.17290520  0.01082945  1
  In  In73  1  0.33519659  0.34083389  0.75222905  1
  In  In74  1  0.65823629  0.67005407  0.25035920  1
  In  In75  1  0.66214163  0.33126211  0.24148349  1
  In  In76  1  0.01307502  0.66597168  0.25634498  1
  In  In77  1  -0.00585643  0.33704288  0.75111932  1
  In  In78  1  0.83202284  0.82487529  -0.01236324  1
  In  In79  1  0.49637336  0.82608206  0.49652394  1
  In  In80  1  0.33062830  -0.00994664  0.74447996  1
  In  In81  1  0.48991729  0.17290216  0.49539370  1
  In  In82  1  0.83759150  0.50958460  0.51123748  1
  In  In83  1  0.66434486  0.00158173  0.25236847  1
  In  In84  1  0.83977961  0.16177251  0.50060612  1
  In  In85  1  0.84540113  0.17029588  -0.00142596  1
  Cu  Cu86  1  0.83130016  0.16753874  0.74978806  1
  Cu  Cu87  1  0.16853226  0.83185466  0.25074939  1
  Cu  Cu88  1  0.83484612  0.49505747  0.24940677  1
  Cu  Cu89  1  0.00258850  -0.00836213  0.00356063  1
  Cu  Cu90  1  0.83147216  0.50072648  0.75100333  1
  Cu  Cu91  1  0.66484282  0.66420889  0.50886380  1
  Cu  Cu92  1  0.84131143  0.83686083  0.25646841  1
  Cu  Cu93  1  0.50084315  0.16989990  0.75027698  1
  Cu  Cu94  1  0.33247224  0.33422400  0.00765677  1
  Cu  Cu95  1  0.49984372  0.16933136  0.25176817  1
  Cu  Cu96  1  0.00768464  0.33982255  0.48652748  1
  Cu  Cu97  1  0.66904499  0.34815414  -0.00077454  1
  Cu  Cu98  1  0.00754212  0.32553574  0.00504413  1
  Cu  Cu99  1  0.48660703  0.82688146  0.24534251  1
  Cu  Cu100  1  0.67042317  0.67295291  -0.01175289  1
  Cu  Cu101  1  0.49507560  0.82841669  0.75175979  1
  Cu  Cu102  1  0.00410874  0.65365967  -0.00351731  1
  Cu  Cu103  1  0.32226889  0.32953541  0.49166886  1
  Cu  Cu104  1  0.84970712  0.16102119  0.25389647  1
  Cu  Cu105  1  0.00554642  0.00494682  0.50228429  1
  Cu  Cu106  1  0.16294998  0.15960921  0.74718306  1
  Cu  Cu107  1  0.65688862  -0.00165104  -0.01290128  1
  Cu  Cu108  1  0.65387614  0.33822953  0.50801157  1
  Cu  Cu109  1  0.31636931  0.00201066  0.00633020  1
  Cu  Cu110  1  0.17159032  0.50645040  0.24818993  1
  Cu  Cu111  1  0.49500694  0.50465904  0.75154343  1
  Cu  Cu112  1  0.67629247  -0.00953147  0.51371498  1
  Cu  Cu113  1  0.17261056  0.51203344  0.75191251  1
  Cu  Cu114  1  0.17068438  0.82989437  0.75033472  1
  Se  Se115  1  0.08053863  0.07756975  0.05911586  1
  Se  Se116  1  0.09100213  0.09085770  0.55063310  1
  Se  Se117  1  0.08776261  0.41660210  0.05453485  1
  Se  Se118  1  0.08576336  0.42425772  0.54390410  1
  Se  Se119  1  0.08154122  0.74783330  0.04504659  1
  Se  Se120  1  0.11289710  0.77663777  0.56599144  1
  Se  Se121  1  0.39537875  0.08385819  0.06859897  1
  Se  Se122  1  0.41152221  0.06918290  0.55237151  1
  Se  Se123  1  0.42121085  0.41979755  0.05127423  1
  Se  Se124  1  0.41058763  0.40880047  0.54747447  1
  Se  Se125  1  0.43250987  0.77961776  0.05326611  1
  Se  Se126  1  0.40861880  0.73696255  0.55808186  1
  Se  Se127  1  0.74099692  0.07438190  0.04865956  1
  Se  Se128  1  0.75868436  0.07491054  0.56864641  1
  Se  Se129  1  0.75843908  0.42622901  0.05120196  1
  Se  Se130  1  0.74148681  0.41430489  0.56492144  1
  Se  Se131  1  0.74352371  0.74746392  0.06028539  1
  Se  Se132  1  0.74855746  0.75028192  0.55778908  1
  Se  Se133  1  0.24913416  0.24858782  0.05838118  1
  Se  Se134  1  0.24380750  0.24685891  0.54882859  1
  Se  Se135  1  0.25407097  0.58263710  0.04429330  1
  Se  Se136  1  0.21981644  0.56837647  0.55826591  1
  Se  Se137  1  0.24065873  0.91143027  0.06005083  1
  Se  Se138  1  0.26997808  0.93105459  0.54571465  1
  Se  Se139  1  0.59093177  0.26466105  0.06078906  1
  Se  Se140  1  0.58264804  0.24765708  0.56617648  1
  Se  Se141  1  0.59120840  0.59272553  0.04918632  1
  Se  Se142  1  0.57906093  0.57783840  0.55449135  1
  Se  Se143  1  0.57684312  0.91489125  0.04195467  1
  Se  Se144  1  0.58669164  0.90931712  0.56355348  1
  Se  Se145  1  0.93246526  0.24498469  0.06955835  1
  Se  Se146  1  0.93151081  0.26273608  0.55340375  1
  Se  Se147  1  0.91607397  0.57273520  0.04684540  1
  Se  Se148  1  0.92718095  0.60196171  0.56680973  1
  Se  Se149  1  0.91669760  0.91149377  0.05872419  1
  Se  Se150  1  0.92200087  0.92285607  0.55823730  1
  Se  Se151  1  0.09114409  0.25387762  0.43678610  1
  Se  Se152  1  0.08646513  0.24046896  0.94991550  1
  Se  Se153  1  0.05066960  0.61908395  0.44506164  1
  Se  Se154  1  0.08909130  0.57416261  0.94096264  1
  Se  Se155  1  0.08708500  0.91955597  0.44727064  1
  Se  Se156  1  0.08054120  0.90887376  0.94468582  1
  Se  Se157  1  0.39699017  0.24645290  0.42782679  1
  Se  Se158  1  0.40746733  0.25854419  0.93770197  1
  Se  Se159  1  0.41113805  0.57542458  0.45001523  1
  Se  Se160  1  0.42608611  0.58793531  0.95569793  1
  Se  Se161  1  0.41286417  0.92082303  0.43685103  1
  Se  Se162  1  0.40645491  0.92588645  0.95132445  1
  Se  Se163  1  0.73725578  0.25676766  0.44947002  1
  Se  Se164  1  0.74287549  0.25556692  0.94379832  1
  Se  Se165  1  0.74595303  0.58952319  0.44137638  1
  Se  Se166  1  0.75611429  0.58675368  0.94086943  1
  Se  Se167  1  0.75749075  0.90986176  0.45689143  1
  Se  Se168  1  0.74199137  0.91923662  0.93103642  1
  Se  Se169  1  0.25040763  0.09122971  0.43873713  1
  Se  Se170  1  0.23371510  0.08485316  0.95254326  1
  Se  Se171  1  0.24609443  0.42023982  0.43804928  1
  Se  Se172  1  0.24848609  0.41340534  0.94971296  1
  Se  Se173  1  0.25238414  0.75524235  0.45815583  1
  Se  Se174  1  0.24883066  0.74103908  0.95515642  1
  Se  Se175  1  0.59651508  0.07233395  0.45276373  1
  Se  Se176  1  0.57347027  0.08942614  0.93922830  1
  Se  Se177  1  0.57307318  0.41833805  0.45155541  1
  Se  Se178  1  0.58226269  0.42777571  0.94742106  1
  Se  Se179  1  0.58945728  0.73522170  0.43635106  1
  Se  Se180  1  0.58478816  0.75681668  0.93854604  1
  Se  Se181  1  0.93460185  0.08748138  0.43472431  1
  Se  Se182  1  0.91854367  0.06404474  0.93884781  1
  Se  Se183  1  0.91700895  0.42183141  0.43771549  1
  Se  Se184  1  0.92147694  0.40705453  0.95011460  1
  Se  Se185  1  0.90963700  0.76982756  0.45653196  1
  Se  Se186  1  0.92700789  0.73601837  0.93332386  1
  Se  Se187  1  0.24334896  0.25499190  0.28834212  1
  Se  Se188  1  0.24324783  0.24070933  0.80639352  1
  Se  Se189  1  0.24222381  0.58888982  0.31258768  1
  Se  Se190  1  0.25904851  0.58868987  0.80767543  1
  Se  Se191  1  0.25400620  0.91318999  0.30538147  1
  Se  Se192  1  0.25277947  0.90457901  0.81574317  1
  Se  Se193  1  0.57692489  0.24928212  0.31392448  1
  Se  Se194  1  0.58258346  0.25560259  0.80174349  1
  Se  Se195  1  0.57097692  0.57305039  0.30604648  1
  Se  Se196  1  0.58269205  0.58644483  0.80455708  1
  Se  Se197  1  0.57406710  0.90179653  0.30697862  1
  Se  Se198  1  0.57587436  0.92151583  0.79790480  1
  Se  Se199  1  0.92345711  0.25951514  0.29904401  1
  Se  Se200  1  0.91226998  0.24215618  0.81502546  1
  Se  Se201  1  0.91314375  0.57634042  0.31138843  1
  Se  Se202  1  0.92268474  0.57898782  0.80152563  1
  Se  Se203  1  0.92854583  0.91458674  0.30762239  1
  Se  Se204  1  0.91882166  0.90346868  0.78751688  1
  Se  Se205  1  0.08509416  0.06881398  0.29892102  1
  Se  Se206  1  0.08326557  0.07445461  0.80240362  1
  Se  Se207  1  0.08294346  0.42381514  0.29785707  1
  Se  Se208  1  0.09411497  0.42138199  0.80740019  1
  Se  Se209  1  0.10210378  0.74957887  0.31942902  1
  Se  Se210  1  0.08690825  0.74565980  0.80370066  1
  Se  Se211  1  0.42013732  0.07678060  0.29831555  1
  Se  Se212  1  0.41486426  0.08989830  0.80683618  1
  Se  Se213  1  0.41218765  0.41928425  0.29500327  1
  Se  Se214  1  0.41461818  0.43204124  0.81775070  1
  Se  Se215  1  0.40923257  0.74395108  0.30288344  1
  Se  Se216  1  0.41197454  0.74746415  0.80811861  1
  Se  Se217  1  0.76467537  0.08282602  0.31367433  1
  Se  Se218  1  0.74956646  0.08179173  0.80279986  1
  Se  Se219  1  0.75212342  0.41713562  0.31025916  1
  Se  Se220  1  0.74604355  0.41792742  0.80265063  1
  Se  Se221  1  0.75839120  0.75417089  0.31165065  1
  Se  Se222  1  0.76429926  0.76354445  0.79534357  1
  Se  Se223  1  0.24219808  0.07628198  0.20429575  1
  Se  Se224  1  0.24073716  0.08060970  0.68552336  1
  Se  Se225  1  0.25436255  0.42395865  0.19256487  1
  Se  Se226  1  0.24598931  0.42709956  0.68927899  1
  Se  Se227  1  0.24849721  0.74727431  0.19438905  1
  Se  Se228  1  0.25738611  0.74601233  0.70074990  1
  Se  Se229  1  0.57369288  0.08671273  0.18640240  1
  Se  Se230  1  0.58169972  0.08095269  0.70087144  1
  Se  Se231  1  0.57558286  0.43604240  0.19418926  1
  Se  Se232  1  0.58045223  0.41887689  0.70072965  1
  Se  Se233  1  0.57093065  0.75231165  0.18442424  1
  Se  Se234  1  0.58161624  0.74255366  0.70172732  1
  Se  Se235  1  0.92461391  0.06873866  0.20229737  1
  Se  Se236  1  0.92352873  0.08857640  0.70036844  1
  Se  Se237  1  0.92123924  0.41709479  0.19541195  1
  Se  Se238  1  0.91068263  0.42693071  0.68471503  1
  Se  Se239  1  0.91219661  0.74891348  0.19455503  1
  Se  Se240  1  0.91688883  0.77020075  0.70032365  1
  Se  Se241  1  0.08950903  0.25815734  0.20235211  1
  Se  Se242  1  0.09021983  0.25198674  0.68998832  1
  Se  Se243  1  0.09517847  0.58666629  0.18337539  1
  Se  Se244  1  0.07945902  0.58938455  0.70272108  1
  Se  Se245  1  0.07800027  0.90915328  0.19983646  1
  Se  Se246  1  0.09643606  0.92261160  0.69711915  1
  Se  Se247  1  0.41608693  0.25506654  0.20122286  1
  Se  Se248  1  0.41655838  0.24255761  0.68788581  1
  Se  Se249  1  0.41302001  0.59511145  0.18608113  1
  Se  Se250  1  0.41066976  0.57912291  0.69079853  1
  Se  Se251  1  0.40935803  0.92157976  0.19836733  1
  Se  Se252  1  0.41834719  0.89985141  0.68288114  1
  Se  Se253  1  0.76506994  0.23781569  0.19190232  1
  Se  Se254  1  0.74684070  0.25533646  0.70237080  1
  Se  Se255  1  0.75763117  0.58056857  0.19232305  1
  Se  Se256  1  0.75133607  0.59015980  0.69904534  1
  Se  Se257  1  0.75781716  0.91072701  0.19106355  1
  Se  Se258  1  0.72690189  0.94022042  0.69184982  1
