# generated using pymatgen
data_In86Cu29Se144
_symmetry_space_group_name_H-M   'P 1'
_cell_length_a   17.56697665
_cell_length_b   17.56852491
_cell_length_c   23.42513192
_cell_angle_alpha   89.97937167
_cell_angle_beta   89.98556048
_cell_angle_gamma   90.03871488
_symmetry_Int_Tables_number   1
_chemical_formula_structural   In86Cu29Se144
_chemical_formula_sum   'In86 Cu29 Se144'
_cell_volume   7229.59929758
_cell_formula_units_Z   1
loop_
 _symmetry_equiv_pos_site_id
 _symmetry_equiv_pos_as_xyz
  1  'x, y, z'
loop_
 _atom_site_type_symbol
 _atom_site_label
 _atom_site_symmetry_multiplicity
 _atom_site_fract_x
 _atom_site_fract_y
 _atom_site_fract_z
 _atom_site_occupancy
  In  In0  1  -0.00831971  0.16840742  0.11415716  1
  In  In1  1  0.00676163  0.15915614  0.63966492  1
  In  In2  1  0.00974761  0.52015108  0.10410146  1
  In  In3  1  -0.01074975  0.50315280  0.62870218  1
  In  In4  1  0.00977269  0.82342387  0.13096179  1
  In  In5  1  0.00853151  0.83419560  0.61733107  1
  In  In6  1  0.32403356  0.17710054  0.11677031  1
  In  In7  1  0.32998844  0.15866533  0.62407355  1
  In  In8  1  0.34087625  0.50085110  0.11688251  1
  In  In9  1  0.34622690  0.49937499  0.62974569  1
  In  In10  1  0.31537084  0.83126120  0.12321070  1
  In  In11  1  0.33094377  0.83283672  0.62566067  1
  In  In12  1  0.68794769  0.15877390  0.13542168  1
  In  In13  1  0.66313425  0.17963960  0.61862064  1
  In  In14  1  0.66618612  0.50103780  0.13074705  1
  In  In15  1  0.67374216  0.50244575  0.61366691  1
  In  In16  1  0.66455323  0.83762212  0.13728100  1
  In  In17  1  0.66728769  0.83337923  0.61244712  1
  In  In18  1  0.14842269  -0.00584106  0.36546265  1
  In  In19  1  0.16465497  -0.00173775  0.87664582  1
  In  In20  1  0.16729867  0.32488926  0.36889760  1
  In  In21  1  0.15560388  0.34440913  0.89467741  1
  In  In22  1  0.17731036  0.67090466  0.36487013  1
  In  In23  1  0.17140910  0.65857309  0.88544319  1
  In  In24  1  0.50565785  -0.01352282  0.38224701  1
  In  In25  1  0.49338151  0.01301199  0.86911427  1
  In  In26  1  0.51953171  0.32136057  0.38759522  1
  In  In27  1  0.50898902  0.34008432  0.87729947  1
  In  In28  1  0.50167532  0.66551496  0.37432838  1
  In  In29  1  0.48710299  0.67286211  0.87489914  1
  In  In30  1  0.82668221  -0.01017481  0.36723473  1
  In  In31  1  0.85174597  -0.01348107  0.87668939  1
  In  In32  1  0.83058247  0.34938722  0.37739323  1
  In  In33  1  0.87084316  0.30709517  0.91491770  1
  In  In34  1  0.83269178  0.66804616  0.37052193  1
  In  In35  1  0.83297216  0.66037744  0.87960439  1
  In  In36  1  0.00493957  0.15077590  0.36657309  1
  In  In37  1  0.00439139  0.16201095  0.87992322  1
  In  In38  1  -0.01800314  0.49636042  0.37367888  1
  In  In39  1  0.01403230  0.48777727  0.90019772  1
  In  In40  1  0.00037124  0.83111179  0.37409913  1
  In  In41  1  -0.00571608  0.84817209  0.87366105  1
  In  In42  1  0.33667853  0.17695272  0.37165685  1
  In  In43  1  0.32996386  0.15173180  0.87116753  1
  In  In44  1  0.33767070  0.51649666  0.36963448  1
  In  In45  1  0.32204597  0.50768256  0.88832872  1
  In  In46  1  0.34216947  0.82095815  0.38218912  1
  In  In47  1  0.32476889  0.82605270  0.86644659  1
  In  In48  1  0.66346851  0.15799827  0.36679235  1
  In  In49  1  0.66726510  0.17923475  0.87947307  1
  In  In50  1  0.66440482  0.50009935  0.37205279  1
  In  In51  1  0.67661461  0.48708418  0.88773209  1
  In  In52  1  0.66875844  0.83325517  0.37303669  1
  In  In53  1  0.67923838  0.82600964  0.87361270  1
  In  In54  1  0.15836953  -0.00920752  0.11917133  1
  In  In55  1  0.17434119  -0.00593207  0.63226328  1
  In  In56  1  0.15365951  0.33274521  0.09970484  1
  In  In57  1  0.16274607  0.32212119  0.63288369  1
  In  In58  1  0.16668728  0.67033825  0.12527946  1
  In  In59  1  0.16131288  0.68149291  0.62660206  1
  In  In60  1  0.51225679  0.00712631  0.12947967  1
  In  In61  1  0.49026408  -0.01071134  0.61302502  1
  In  In62  1  0.49669056  0.34917726  0.12515373  1
  In  In63  1  0.51403627  0.34367159  0.60726649  1
  In  In64  1  0.50813659  0.65535875  0.14055486  1
  In  In65  1  0.49627339  0.66058893  0.61964876  1
  In  In66  1  0.82863596  0.01081093  0.12952852  1
  In  In67  1  0.84693614  -0.00598106  0.62852708  1
  In  In68  1  0.83250273  0.33045993  0.11831694  1
  In  In69  1  0.83521772  0.34227101  0.62938053  1
  In  In70  1  0.84107001  0.65983724  0.13555272  1
  In  In71  1  0.82991763  0.66178522  0.61552172  1
  In  In72  1  0.33001345  0.32913821  0.75324280  1
  In  In73  1  0.49754562  0.83664520  0.00928179  1
  In  In74  1  0.49991610  0.16835095  0.00125181  1
  In  In75  1  0.66710543  0.66617501  0.75309689  1
  In  In76  1  0.16704830  0.50549789  0.49860702  1
  In  In77  1  0.82794849  0.16686815  0.50047549  1
  In  In78  1  -0.00395559  0.33663468  0.23455183  1
  In  In79  1  0.66864519  0.33682615  0.74588561  1
  In  In80  1  0.00103052  0.67004458  0.75126875  1
  In  In81  1  0.66611167  -0.00018200  0.74782077  1
  In  In82  1  0.33129744  0.34108286  0.24259295  1
  In  In83  1  0.17047345  0.15991769  0.49473567  1
  In  In84  1  0.33732667  -0.00328588  0.24347845  1
  In  In85  1  0.83799924  0.82964864  0.00206956  1
  Cu  Cu86  1  0.16627317  0.83054083  0.24884513  1
  Cu  Cu87  1  0.16441105  0.49919096  0.76644346  1
  Cu  Cu88  1  0.32708615  -0.00381270  -0.00334415  1
  Cu  Cu89  1  0.16707379  0.83947770  0.74944633  1
  Cu  Cu90  1  -0.00583132  0.66644755  0.49632955  1
  Cu  Cu91  1  0.33415559  0.67251639  0.49972474  1
  Cu  Cu92  1  0.84073983  0.17426769  0.24758691  1
  Cu  Cu93  1  0.66582902  0.00026671  0.49260270  1
  Cu  Cu94  1  0.33411623  0.66289742  0.00149330  1
  Cu  Cu95  1  0.83017806  0.50527020  0.24848517  1
  Cu  Cu96  1  -0.00485818  0.33297756  0.50262070  1
  Cu  Cu97  1  0.83894840  0.49212087  0.75661431  1
  Cu  Cu98  1  0.65832628  0.66464527  0.01097997  1
  Cu  Cu99  1  0.50003647  0.49836600  0.25337929  1
  Cu  Cu100  1  0.49440986  0.83909372  0.74457716  1
  Cu  Cu101  1  0.32893686  -0.00382310  0.50219276  1
  Cu  Cu102  1  0.66113290  0.33575757  0.00838611  1
  Cu  Cu103  1  0.00003794  -0.00850098  0.49892378  1
  Cu  Cu104  1  0.84111257  0.16334586  0.76210335  1
  Cu  Cu105  1  0.49551583  0.51006828  0.75189405  1
  Cu  Cu106  1  0.34007886  0.34010787  0.49638009  1
  Cu  Cu107  1  0.15698423  0.50023154  0.23932224  1
  Cu  Cu108  1  0.49076017  0.16508587  0.74076404  1
  Cu  Cu109  1  0.50818219  0.16730268  0.25181616  1
  Cu  Cu110  1  0.66853106  0.66786769  0.49055197  1
  Cu  Cu111  1  0.49971419  0.82864709  0.25811340  1
  Cu  Cu112  1  0.15435288  0.16790533  0.75794788  1
  Cu  Cu113  1  0.83915864  0.83929677  0.25233082  1
  Cu  Cu114  1  0.00217398  0.00066561  0.00105660  1
  Se  Se115  1  0.08568346  0.08570262  0.05274751  1
  Se  Se116  1  0.07819062  0.07641956  0.55863821  1
  Se  Se117  1  0.06713521  0.41727435  0.03831232  1
  Se  Se118  1  0.08146781  0.41021289  0.56086751  1
  Se  Se119  1  0.09478949  0.76089050  0.05535489  1
  Se  Se120  1  0.08386336  0.74648032  0.54687123  1
  Se  Se121  1  0.40938546  0.07131456  0.05951794  1
  Se  Se122  1  0.41182394  0.08545663  0.55064220  1
  Se  Se123  1  0.40748106  0.40422571  0.04942639  1
  Se  Se124  1  0.41776509  0.42723518  0.55032121  1
  Se  Se125  1  0.41306310  0.73964171  0.06639700  1
  Se  Se126  1  0.41723218  0.75346876  0.55622191  1
  Se  Se127  1  0.75727847  0.09136048  0.05357706  1
  Se  Se128  1  0.74322392  0.07161847  0.56232315  1
  Se  Se129  1  0.74619754  0.42132011  0.05800056  1
  Se  Se130  1  0.74344699  0.39921038  0.55661119  1
  Se  Se131  1  0.74148518  0.74834820  0.06508866  1
  Se  Se132  1  0.75182778  0.74856973  0.54761992  1
  Se  Se133  1  0.25492673  0.25634827  0.04249217  1
  Se  Se134  1  0.25537534  0.26023419  0.55494446  1
  Se  Se135  1  0.24812101  0.58338765  0.05606367  1
  Se  Se136  1  0.25627779  0.59077194  0.56295299  1
  Se  Se137  1  0.24374822  0.91175718  0.04836665  1
  Se  Se138  1  0.24495195  0.91440920  0.55572790  1
  Se  Se139  1  0.58745073  0.24935384  0.06908835  1
  Se  Se140  1  0.58121545  0.24595855  0.54388624  1
  Se  Se141  1  0.57548421  0.57844839  0.06083522  1
  Se  Se142  1  0.58771366  0.58802221  0.55137652  1
  Se  Se143  1  0.59762129  0.92723042  0.05773881  1
  Se  Se144  1  0.58191857  0.91531881  0.54648029  1
  Se  Se145  1  0.92079604  0.26148328  0.04574818  1
  Se  Se146  1  0.92592150  0.24560215  0.56432206  1
  Se  Se147  1  0.90603830  0.59681272  0.05019414  1
  Se  Se148  1  0.91708492  0.57784684  0.55075610  1
  Se  Se149  1  0.92297598  0.92154457  0.06440599  1
  Se  Se150  1  0.91371114  0.91128992  0.55198429  1
  Se  Se151  1  0.07202827  0.25308978  0.44098254  1
  Se  Se152  1  0.07384641  0.24987980  0.95257987  1
  Se  Se153  1  0.07616349  0.58740372  0.43465266  1
  Se  Se154  1  0.08402648  0.59055060  0.95691465  1
  Se  Se155  1  0.08629750  0.91298730  0.44466794  1
  Se  Se156  1  0.08241849  0.91502184  0.94699097  1
  Se  Se157  1  0.41671683  0.24739558  0.44688119  1
  Se  Se158  1  0.41391155  0.24973646  0.93329070  1
  Se  Se159  1  0.41573216  0.58687435  0.44668971  1
  Se  Se160  1  0.42221497  0.58465385  0.94821256  1
  Se  Se161  1  0.41515791  0.91267717  0.44996332  1
  Se  Se162  1  0.41358721  0.92042014  0.93844359  1
  Se  Se163  1  0.74324591  0.25352913  0.43677938  1
  Se  Se164  1  0.74411536  0.24988477  0.95631233  1
  Se  Se165  1  0.75243119  0.58222456  0.43987382  1
  Se  Se166  1  0.74196117  0.59151391  0.94967428  1
  Se  Se167  1  0.75222417  0.91536471  0.44438142  1
  Se  Se168  1  0.74479084  0.92165844  0.94370449  1
  Se  Se169  1  0.25718974  0.07118958  0.43161483  1
  Se  Se170  1  0.24587100  0.08420121  0.94652124  1
  Se  Se171  1  0.25376937  0.41203738  0.43590514  1
  Se  Se172  1  0.26171689  0.40833515  0.95421627  1
  Se  Se173  1  0.24402323  0.74738538  0.44587051  1
  Se  Se174  1  0.25696800  0.75071392  0.94662905  1
  Se  Se175  1  0.58226284  0.08543023  0.44264696  1
  Se  Se176  1  0.58912216  0.07576962  0.94143533  1
  Se  Se177  1  0.57382124  0.43282360  0.44459125  1
  Se  Se178  1  0.57860873  0.41890879  0.95434307  1
  Se  Se179  1  0.58224112  0.75294908  0.44181567  1
  Se  Se180  1  0.58829190  0.74756830  0.94485325  1
  Se  Se181  1  0.92049116  0.07617519  0.44173549  1
  Se  Se182  1  0.91488764  0.07948962  0.94757768  1
  Se  Se183  1  0.91296909  0.41960569  0.45318103  1
  Se  Se184  1  0.88377500  0.44785243  0.94202135  1
  Se  Se185  1  0.91324574  0.75135691  0.44230258  1
  Se  Se186  1  0.92898980  0.74316013  0.94108862  1
  Se  Se187  1  0.24219343  0.23893121  0.29637456  1
  Se  Se188  1  0.23649663  0.24869628  0.81650684  1
  Se  Se189  1  0.24565925  0.57622117  0.29587083  1
  Se  Se190  1  0.25265524  0.58568511  0.80936309  1
  Se  Se191  1  0.25211204  0.90839819  0.30926377  1
  Se  Se192  1  0.25106671  0.92284322  0.80352743  1
  Se  Se193  1  0.58818741  0.25567247  0.30280167  1
  Se  Se194  1  0.57255344  0.24214771  0.80182099  1
  Se  Se195  1  0.58380803  0.58603456  0.30269641  1
  Se  Se196  1  0.58235715  0.57574407  0.81654733  1
  Se  Se197  1  0.58424969  0.91840249  0.30394671  1
  Se  Se198  1  0.57680631  0.90746161  0.81109114  1
  Se  Se199  1  0.91736954  0.25344863  0.31152544  1
  Se  Se200  1  0.91567502  0.25201511  0.81733614  1
  Se  Se201  1  0.91813791  0.58546647  0.30056061  1
  Se  Se202  1  0.92003768  0.57490619  0.81314410  1
  Se  Se203  1  0.92660268  0.92200066  0.30341473  1
  Se  Se204  1  0.91430807  0.91238933  0.79527495  1
  Se  Se205  1  0.09290283  0.08915861  0.29371610  1
  Se  Se206  1  0.07653983  0.07577056  0.80688076  1
  Se  Se207  1  0.08580366  0.42069130  0.30629042  1
  Se  Se208  1  0.07927192  0.41639412  0.81596259  1
  Se  Se209  1  0.08179100  0.74797709  0.30298419  1
  Se  Se210  1  0.09230766  0.75659260  0.81287874  1
  Se  Se211  1  0.42418115  0.08601266  0.30836023  1
  Se  Se212  1  0.40950300  0.08062552  0.79355005  1
  Se  Se213  1  0.42139106  0.41417063  0.31336461  1
  Se  Se214  1  0.41899249  0.42425525  0.81070700  1
  Se  Se215  1  0.41209593  0.74340871  0.30421890  1
  Se  Se216  1  0.41575799  0.75075413  0.79835912  1
  Se  Se217  1  0.75863414  0.08729508  0.30090032  1
  Se  Se218  1  0.75145970  0.08608071  0.81556588  1
  Se  Se219  1  0.74992092  0.41868820  0.30132719  1
  Se  Se220  1  0.75910949  0.40989830  0.81433142  1
  Se  Se221  1  0.75221276  0.75425043  0.30208364  1
  Se  Se222  1  0.76998283  0.75503502  0.80180984  1
  Se  Se223  1  0.24701688  0.08514484  0.18476945  1
  Se  Se224  1  0.24102705  0.09429019  0.69762596  1
  Se  Se225  1  0.23410195  0.41811127  0.17937187  1
  Se  Se226  1  0.24044311  0.42573347  0.69539128  1
  Se  Se227  1  0.25230002  0.74595784  0.19951692  1
  Se  Se228  1  0.24856385  0.75163224  0.69802496  1
  Se  Se229  1  0.59330134  0.08229141  0.20152130  1
  Se  Se230  1  0.57739386  0.08760572  0.68399664  1
  Se  Se231  1  0.58277943  0.41533011  0.19977103  1
  Se  Se232  1  0.57627131  0.43104949  0.69068319  1
  Se  Se233  1  0.58601950  0.74848401  0.20362948  1
  Se  Se234  1  0.58018192  0.75732486  0.69000721  1
  Se  Se235  1  0.92211178  0.09025334  0.19346685  1
  Se  Se236  1  0.91648024  0.07830302  0.70330138  1
  Se  Se237  1  0.91114070  0.43452850  0.18124249  1
  Se  Se238  1  0.92366450  0.41224317  0.70135998  1
  Se  Se239  1  0.91891264  0.75127246  0.20031906  1
  Se  Se240  1  0.91301511  0.75014264  0.68390901  1
  Se  Se241  1  0.09147061  0.24767655  0.18174249  1
  Se  Se242  1  0.07511188  0.25685722  0.70625286  1
  Se  Se243  1  0.07499153  0.58743317  0.19016659  1
  Se  Se244  1  0.09354365  0.57506911  0.69417857  1
  Se  Se245  1  0.08450825  0.91766023  0.19821938  1
  Se  Se246  1  0.07892024  0.91583125  0.69424126  1
  Se  Se247  1  0.42389354  0.24090150  0.19002493  1
  Se  Se248  1  0.42258873  0.25642684  0.68163241  1
  Se  Se249  1  0.40984334  0.57466625  0.19874024  1
  Se  Se250  1  0.41421467  0.59322801  0.69858720  1
  Se  Se251  1  0.42780163  0.90270174  0.18609957  1
  Se  Se252  1  0.41152447  0.92348913  0.69279899  1
  Se  Se253  1  0.75586383  0.26058248  0.19859687  1
  Se  Se254  1  0.76202156  0.23632760  0.69502816  1
  Se  Se255  1  0.74244228  0.59033987  0.20005591  1
  Se  Se256  1  0.75897783  0.57179366  0.69511134  1
  Se  Se257  1  0.75364928  0.92203183  0.19940644  1
  Se  Se258  1  0.75253787  0.90550243  0.69027129  1
