# generated using pymatgen
data_In86Cu29Se144
_symmetry_space_group_name_H-M   'P 1'
_cell_length_a   17.57969096
_cell_length_b   17.57846804
_cell_length_c   23.43912007
_cell_angle_alpha   89.99687664
_cell_angle_beta   90.01703834
_cell_angle_gamma   89.99412687
_symmetry_Int_Tables_number   1
_chemical_formula_structural   In86Cu29Se144
_chemical_formula_sum   'In86 Cu29 Se144'
_cell_volume   7243.25110872
_cell_formula_units_Z   1
loop_
 _symmetry_equiv_pos_site_id
 _symmetry_equiv_pos_as_xyz
  1  'x, y, z'
loop_
 _atom_site_type_symbol
 _atom_site_label
 _atom_site_symmetry_multiplicity
 _atom_site_fract_x
 _atom_site_fract_y
 _atom_site_fract_z
 _atom_site_occupancy
  In  In0  1  -0.01016476  0.15199278  0.11858894  1
  In  In1  1  -0.01007220  0.17214567  0.63427431  1
  In  In2  1  -0.00076473  0.51731950  0.12901756  1
  In  In3  1  -0.00498739  0.48037998  0.61816411  1
  In  In4  1  0.00129959  0.83435092  0.12219897  1
  In  In5  1  0.00850567  0.84152423  0.62258202  1
  In  In6  1  0.31996484  0.16000451  0.11613066  1
  In  In7  1  0.33581402  0.15012791  0.62986377  1
  In  In8  1  0.33322746  0.50834167  0.12771399  1
  In  In9  1  0.33607784  0.50037718  0.61510548  1
  In  In10  1  0.34842087  0.84105413  0.11397253  1
  In  In11  1  0.33576248  0.84884980  0.62644817  1
  In  In12  1  0.66075242  0.15062271  0.10353292  1
  In  In13  1  0.68561865  0.18044116  0.60828236  1
  In  In14  1  0.68044217  0.49187451  0.12797746  1
  In  In15  1  0.66186755  0.50823426  0.63137589  1
  In  In16  1  0.65625961  0.82974490  0.11277626  1
  In  In17  1  0.66222963  0.82051741  0.62625733  1
  In  In18  1  0.15230436  -0.00881846  0.36333329  1
  In  In19  1  0.16613964  0.00113067  0.87609645  1
  In  In20  1  0.17606353  0.33071771  0.38243693  1
  In  In21  1  0.14917252  0.33313813  0.87250625  1
  In  In22  1  0.15545908  0.68118566  0.38137375  1
  In  In23  1  0.17514445  0.67867465  0.88156293  1
  In  In24  1  0.49755019  0.01155952  0.37152058  1
  In  In25  1  0.49999167  0.00818218  0.87892443  1
  In  In26  1  0.50851646  0.33271485  0.38718501  1
  In  In27  1  0.50327630  0.31631724  0.87157476  1
  In  In28  1  0.50481356  0.65576122  0.37000001  1
  In  In29  1  0.51122333  0.66692465  0.87687871  1
  In  In30  1  0.83521090  -0.00868926  0.38447129  1
  In  In31  1  0.83770793  -0.01231875  0.88600542  1
  In  In32  1  0.81839395  0.32964480  0.38585330  1
  In  In33  1  0.83257080  0.33229974  0.87284855  1
  In  In34  1  0.84504189  0.67605808  0.36553694  1
  In  In35  1  0.82217159  0.67615378  0.88310230  1
  In  In36  1  0.00377938  0.15306621  0.37443479  1
  In  In37  1  -0.00101179  0.16547494  0.87493319  1
  In  In38  1  -0.00836191  0.51429567  0.37723969  1
  In  In39  1  -0.00192374  0.48246038  0.87112400  1
  In  In40  1  -0.00270695  0.83778450  0.37327122  1
  In  In41  1  -0.00739700  0.84438696  0.88228948  1
  In  In42  1  0.34261938  0.16347333  0.37366892  1
  In  In43  1  0.34573907  0.15284920  0.88143361  1
  In  In44  1  0.34219561  0.49518063  0.38424846  1
  In  In45  1  0.33666431  0.50828999  0.87321447  1
  In  In46  1  0.31647064  0.83193918  0.37162328  1
  In  In47  1  0.32275809  0.84095505  0.88539599  1
  In  In48  1  0.66705880  0.16043558  0.39675542  1
  In  In49  1  0.65888750  0.16639894  0.87992121  1
  In  In50  1  0.65033279  0.50328363  0.37473921  1
  In  In51  1  0.67717690  0.50950786  0.86710758  1
  In  In52  1  0.69101349  0.83566151  0.37625862  1
  In  In53  1  0.67217471  0.83311609  0.88296040  1
  In  In54  1  0.16622507  -0.00380309  0.12380533  1
  In  In55  1  0.17163372  -0.00470625  0.63268438  1
  In  In56  1  0.17631271  0.33217964  0.12333488  1
  In  In57  1  0.14798009  0.33047363  0.62139670  1
  In  In58  1  0.15386149  0.66613147  0.12351446  1
  In  In59  1  0.16869614  0.66964053  0.61411123  1
  In  In60  1  0.49359442  -0.00658369  0.11599745  1
  In  In61  1  0.48883442  -0.00066424  0.62757237  1
  In  In62  1  0.51384528  0.33078383  0.12451619  1
  In  In63  1  0.51924594  0.34396814  0.61247742  1
  In  In64  1  0.49628696  0.67965156  0.12892636  1
  In  In65  1  0.51711815  0.67018186  0.62531575  1
  In  In66  1  0.83640803  0.00408104  0.11583246  1
  In  In67  1  0.83972431  0.00962853  0.62089296  1
  In  In68  1  0.82430815  0.32394618  0.11658399  1
  In  In69  1  0.84104667  0.32191142  0.63220969  1
  In  In70  1  0.83358736  0.66948784  0.12383366  1
  In  In71  1  0.81771913  0.66712780  0.62614144  1
  In  In72  1  0.33226994  0.67050979  0.24772555  1
  In  In73  1  0.16611898  0.16614279  0.50254891  1
  In  In74  1  0.66698549  0.00113448  0.75020711  1
  In  In75  1  0.50087736  0.50077328  0.00010975  1
  In  In76  1  -0.00486710  0.66475690  0.75103357  1
  In  In77  1  0.33172936  0.32432629  0.74817707  1
  In  In78  1  -0.00295602  0.33158833  0.25451399  1
  In  In79  1  0.66890995  -0.00311572  0.24971201  1
  In  In80  1  0.66764998  0.33150531  0.25595197  1
  In  In81  1  0.15913076  0.50012921  -0.00011648  1
  In  In82  1  0.50069451  0.83481092  0.50310786  1
  In  In83  1  0.33925937  0.33134005  0.26071186  1
  In  In84  1  0.33660332  0.67310575  0.75462423  1
  In  In85  1  0.83344084  0.49948835  0.50082055  1
  Cu  Cu86  1  0.15875908  0.49745573  0.74349120  1
  Cu  Cu87  1  0.83476259  0.16411733  0.75159557  1
  Cu  Cu88  1  0.32534437  -0.00375477  0.50155277  1
  Cu  Cu89  1  -0.00623091  0.32906189  -0.00194082  1
  Cu  Cu90  1  0.50604483  0.16391382  0.74980059  1
  Cu  Cu91  1  0.66806241  0.33239845  -0.00409420  1
  Cu  Cu92  1  0.16758448  0.50775337  0.25814191  1
  Cu  Cu93  1  0.82942999  0.16248438  0.24691097  1
  Cu  Cu94  1  0.83849197  0.50642630  0.24696948  1
  Cu  Cu95  1  0.50295682  0.83843870  0.24222832  1
  Cu  Cu96  1  0.83919290  0.83283083  0.24616818  1
  Cu  Cu97  1  0.82927727  0.49600924  0.74694000  1
  Cu  Cu98  1  0.16558871  0.84180231  0.75337074  1
  Cu  Cu99  1  -0.00013395  -0.00210247  0.49905057  1
  Cu  Cu100  1  0.33051077  0.00399770  -0.00068284  1
  Cu  Cu101  1  0.33145056  0.32860586  -0.00337519  1
  Cu  Cu102  1  -0.00249805  0.67400059  0.49612074  1
  Cu  Cu103  1  0.16031118  0.15595617  0.24184685  1
  Cu  Cu104  1  0.66872344  0.66592616  0.50004840  1
  Cu  Cu105  1  -0.00740483  0.66897304  0.00083494  1
  Cu  Cu106  1  0.49673840  0.16522249  0.24959952  1
  Cu  Cu107  1  0.33463601  0.66617292  0.49356165  1
  Cu  Cu108  1  0.67033309  0.66299612  0.00098940  1
  Cu  Cu109  1  0.83069767  0.83429029  0.75777912  1
  Cu  Cu110  1  0.16313029  0.83589321  0.24693302  1
  Cu  Cu111  1  0.33704374  0.33398807  0.50187064  1
  Cu  Cu112  1  0.16475133  0.16096216  0.75305132  1
  Cu  Cu113  1  0.00844299  -0.00024360  -0.00032454  1
  Cu  Cu114  1  0.50525737  0.49777296  0.74719903  1
  Se  Se115  1  0.08926098  0.08521215  0.05389742  1
  Se  Se116  1  0.07771870  0.07708024  0.56356714  1
  Se  Se117  1  0.07085323  0.40950289  0.06285499  1
  Se  Se118  1  0.09264328  0.42430873  0.54868841  1
  Se  Se119  1  0.08183500  0.74947695  0.05068308  1
  Se  Se120  1  0.08257213  0.75510744  0.55110662  1
  Se  Se121  1  0.41605593  0.08782444  0.05196433  1
  Se  Se122  1  0.41184853  0.07831584  0.55180622  1
  Se  Se123  1  0.40760769  0.40879197  0.06068113  1
  Se  Se124  1  0.42390648  0.42023534  0.54940657  1
  Se  Se125  1  0.42273360  0.74676299  0.05030034  1
  Se  Se126  1  0.40926078  0.74254154  0.56232350  1
  Se  Se127  1  0.76689207  0.09256380  0.04426329  1
  Se  Se128  1  0.75418134  0.07935156  0.54825483  1
  Se  Se129  1  0.75042995  0.41624044  0.04924401  1
  Se  Se130  1  0.75076583  0.41640877  0.56865255  1
  Se  Se131  1  0.75233257  0.75017662  0.05250828  1
  Se  Se132  1  0.74981560  0.75239375  0.55147136  1
  Se  Se133  1  0.24277318  0.24941182  0.04778154  1
  Se  Se134  1  0.25912365  0.25379894  0.56458049  1
  Se  Se135  1  0.25373880  0.58966885  0.05596727  1
  Se  Se136  1  0.25124245  0.58340317  0.54884459  1
  Se  Se137  1  0.25074317  0.91716498  0.05325026  1
  Se  Se138  1  0.24305720  0.91418758  0.55542161  1
  Se  Se139  1  0.58071012  0.25121407  0.04760015  1
  Se  Se140  1  0.56562372  0.22848705  0.55560044  1
  Se  Se141  1  0.59032395  0.58494823  0.06419660  1
  Se  Se142  1  0.58534983  0.58238439  0.55257681  1
  Se  Se143  1  0.59824632  0.93698936  0.05156461  1
  Se  Se144  1  0.58926231  0.92351406  0.56272920  1
  Se  Se145  1  0.91356716  0.24390430  0.05258478  1
  Se  Se146  1  0.93002274  0.25875509  0.55831686  1
  Se  Se147  1  0.91383617  0.58116923  0.05371337  1
  Se  Se148  1  0.92240689  0.59417024  0.56153793  1
  Se  Se149  1  0.92133567  0.91704318  0.05158050  1
  Se  Se150  1  0.91712478  0.91588505  0.55508638  1
  Se  Se151  1  0.07435010  0.25413006  0.44208339  1
  Se  Se152  1  0.08175330  0.24905122  0.94673847  1
  Se  Se153  1  0.08090936  0.58647783  0.44676741  1
  Se  Se154  1  0.07107817  0.59010888  0.93606368  1
  Se  Se155  1  0.08399709  0.91715713  0.44387006  1
  Se  Se156  1  0.09044775  0.91306675  0.94737074  1
  Se  Se157  1  0.41417220  0.24889128  0.44552285  1
  Se  Se158  1  0.42020686  0.24826980  0.94668245  1
  Se  Se159  1  0.42548369  0.58511024  0.44680205  1
  Se  Se160  1  0.40885764  0.59455020  0.94541714  1
  Se  Se161  1  0.40704578  0.91858185  0.43882598  1
  Se  Se162  1  0.41656137  0.92239578  0.94675805  1
  Se  Se163  1  0.74677591  0.25082863  0.45935043  1
  Se  Se164  1  0.75106580  0.24908445  0.94254897  1
  Se  Se165  1  0.75081839  0.59122560  0.43615325  1
  Se  Se166  1  0.75202521  0.57734334  0.94812005  1
  Se  Se167  1  0.73641971  0.92926492  0.45187250  1
  Se  Se168  1  0.74420695  0.91936889  0.95388178  1
  Se  Se169  1  0.24882037  0.07577074  0.43667289  1
  Se  Se170  1  0.24602742  0.08686561  0.94634582  1
  Se  Se171  1  0.25223540  0.41725161  0.45038046  1
  Se  Se172  1  0.25465548  0.41295179  0.93749979  1
  Se  Se173  1  0.24797963  0.75410856  0.44958410  1
  Se  Se174  1  0.25278065  0.74959233  0.95545139  1
  Se  Se175  1  0.56980958  0.07907576  0.45061140  1
  Se  Se176  1  0.58308540  0.08355782  0.95064101  1
  Se  Se177  1  0.60638764  0.40511639  0.44842427  1
  Se  Se178  1  0.58708408  0.41342766  0.93532501  1
  Se  Se179  1  0.58955337  0.74751567  0.43830256  1
  Se  Se180  1  0.58605148  0.74762115  0.95022880  1
  Se  Se181  1  0.91793344  0.08389074  0.44705680  1
  Se  Se182  1  0.92206575  0.08022909  0.94608744  1
  Se  Se183  1  0.92488296  0.40948863  0.44118615  1
  Se  Se184  1  0.91357113  0.41576525  0.94572675  1
  Se  Se185  1  0.91243478  0.75615746  0.44361405  1
  Se  Se186  1  0.91199971  0.75551052  0.94761010  1
  Se  Se187  1  0.23713645  0.23575854  0.30591781  1
  Se  Se188  1  0.24496971  0.24121484  0.81471547  1
  Se  Se189  1  0.25112910  0.58349004  0.31764037  1
  Se  Se190  1  0.23569848  0.57779545  0.80553002  1
  Se  Se191  1  0.24940929  0.91897156  0.29805399  1
  Se  Se192  1  0.25283955  0.91954989  0.80710240  1
  Se  Se193  1  0.57937642  0.23634766  0.31345709  1
  Se  Se194  1  0.59136649  0.24730581  0.80011591  1
  Se  Se195  1  0.59547920  0.59264573  0.29867149  1
  Se  Se196  1  0.58269376  0.58478922  0.80230224  1
  Se  Se197  1  0.57965134  0.90808396  0.31222221  1
  Se  Se198  1  0.58105939  0.91331858  0.81308937  1
  Se  Se199  1  0.90257149  0.24318000  0.31187999  1
  Se  Se200  1  0.91798260  0.24986276  0.80468298  1
  Se  Se201  1  0.92489406  0.58909908  0.29705108  1
  Se  Se202  1  0.90585853  0.57634206  0.81205258  1
  Se  Se203  1  0.91119599  0.92050824  0.30539536  1
  Se  Se204  1  0.91583299  0.91924746  0.80586175  1
  Se  Se205  1  0.07255185  0.07824232  0.29521440  1
  Se  Se206  1  0.07973427  0.07918337  0.80612098  1
  Se  Se207  1  0.09022058  0.42072721  0.31413495  1
  Se  Se208  1  0.07836279  0.41101994  0.79500334  1
  Se  Se209  1  0.08117355  0.75395347  0.30339604  1
  Se  Se210  1  0.08677282  0.75596502  0.80987459  1
  Se  Se211  1  0.41037342  0.07961198  0.29740393  1
  Se  Se212  1  0.42010118  0.08257336  0.80184355  1
  Se  Se213  1  0.43471526  0.42318670  0.31141692  1
  Se  Se214  1  0.42236094  0.42042438  0.80750696  1
  Se  Se215  1  0.42383781  0.76045428  0.30835505  1
  Se  Se216  1  0.42089396  0.75985162  0.81744761  1
  Se  Se217  1  0.75008352  0.08984697  0.31393358  1
  Se  Se218  1  0.75812858  0.08456205  0.81443267  1
  Se  Se219  1  0.76130104  0.42695497  0.31012106  1
  Se  Se220  1  0.74721093  0.41233187  0.80205442  1
  Se  Se221  1  0.75244805  0.75158959  0.29851652  1
  Se  Se222  1  0.74527165  0.75063338  0.80677209  1
  Se  Se223  1  0.25244101  0.07909048  0.19310271  1
  Se  Se224  1  0.25205774  0.07879205  0.70294243  1
  Se  Se225  1  0.24571143  0.42499414  0.19916221  1
  Se  Se226  1  0.24733218  0.42067117  0.68815975  1
  Se  Se227  1  0.24506558  0.75845930  0.18516180  1
  Se  Se228  1  0.24084093  0.75622665  0.69267437  1
  Se  Se229  1  0.58002985  0.08825998  0.18894600  1
  Se  Se230  1  0.58525053  0.09044621  0.68446465  1
  Se  Se231  1  0.57779677  0.42433469  0.19708645  1
  Se  Se232  1  0.58747099  0.41147236  0.69665432  1
  Se  Se233  1  0.58921223  0.75403014  0.19466471  1
  Se  Se234  1  0.57790890  0.75475307  0.70100929  1
  Se  Se235  1  0.91223427  0.07872660  0.19518990  1
  Se  Se236  1  0.91728988  0.07767961  0.70041274  1
  Se  Se237  1  0.90917012  0.41618494  0.18794483  1
  Se  Se238  1  0.91851113  0.41501447  0.69848146  1
  Se  Se239  1  0.92128338  0.74870889  0.19218267  1
  Se  Se240  1  0.90870679  0.75711008  0.69125543  1
  Se  Se241  1  0.08444550  0.24680901  0.18776091  1
  Se  Se242  1  0.08539232  0.24780242  0.69961516  1
  Se  Se243  1  0.08534898  0.58741990  0.20206642  1
  Se  Se244  1  0.08380416  0.58172551  0.68441520  1
  Se  Se245  1  0.07923253  0.91920069  0.19372618  1
  Se  Se246  1  0.07833822  0.92065339  0.70014106  1
  Se  Se247  1  0.41897773  0.24660615  0.18846028  1
  Se  Se248  1  0.42757113  0.24537650  0.68698825  1
  Se  Se249  1  0.42862021  0.57561186  0.19707906  1
  Se  Se250  1  0.42010201  0.57808466  0.69145560  1
  Se  Se251  1  0.41592305  0.92039519  0.19321673  1
  Se  Se252  1  0.42115723  0.91222098  0.70010571  1
  Se  Se253  1  0.74340475  0.23688047  0.18809071  1
  Se  Se254  1  0.74848317  0.24377504  0.69682200  1
  Se  Se255  1  0.75127708  0.58572967  0.19439573  1
  Se  Se256  1  0.74646566  0.58762706  0.70187643  1
  Se  Se257  1  0.75543330  0.91040677  0.18548176  1
  Se  Se258  1  0.75694912  0.91118401  0.68932567  1
