# generated using pymatgen
data_In86Cu29Se144
_symmetry_space_group_name_H-M   'P 1'
_cell_length_a   17.58720476
_cell_length_b   17.58777556
_cell_length_c   23.44633200
_cell_angle_alpha   89.98187829
_cell_angle_beta   90.00612555
_cell_angle_gamma   89.99838838
_symmetry_Int_Tables_number   1
_chemical_formula_structural   In86Cu29Se144
_chemical_formula_sum   'In86 Cu29 Se144'
_cell_volume   7252.41455517
_cell_formula_units_Z   1
loop_
 _symmetry_equiv_pos_site_id
 _symmetry_equiv_pos_as_xyz
  1  'x, y, z'
loop_
 _atom_site_type_symbol
 _atom_site_label
 _atom_site_symmetry_multiplicity
 _atom_site_fract_x
 _atom_site_fract_y
 _atom_site_fract_z
 _atom_site_occupancy
  In  In0  1  0.01880095  0.17785232  0.11929543  1
  In  In1  1  -0.00546609  0.17028242  0.62038831  1
  In  In2  1  0.00597411  0.49316140  0.12685883  1
  In  In3  1  -0.00165916  0.49281234  0.61607666  1
  In  In4  1  -0.01194067  0.82508388  0.12568421  1
  In  In5  1  0.01565101  0.83363029  0.62501052  1
  In  In6  1  0.35779038  0.18048264  0.11576738  1
  In  In7  1  0.32888594  0.16581365  0.62063564  1
  In  In8  1  0.33099149  0.49066475  0.13505947  1
  In  In9  1  0.34186320  0.51193146  0.61927416  1
  In  In10  1  0.32368117  0.83321531  0.12413250  1
  In  In11  1  0.34126404  0.82602134  0.62878481  1
  In  In12  1  0.65939412  0.17499657  0.13174598  1
  In  In13  1  0.65733713  0.16319585  0.61779014  1
  In  In14  1  0.64536460  0.47168148  0.10451925  1
  In  In15  1  0.66491694  0.50281439  0.61948073  1
  In  In16  1  0.67316979  0.83627390  0.12734416  1
  In  In17  1  0.66206328  0.85051443  0.62707191  1
  In  In18  1  0.17890453  0.00370173  0.37904710  1
  In  In19  1  0.17739630  0.01177169  0.86368532  1
  In  In20  1  0.16588671  0.33765560  0.36821067  1
  In  In21  1  0.16466995  0.33225953  0.89061369  1
  In  In22  1  0.14859105  0.63982007  0.35150036  1
  In  In23  1  0.17629931  0.65208582  0.87754664  1
  In  In24  1  0.50180504  -0.00539741  0.38152090  1
  In  In25  1  0.49967272  0.00581603  0.86856152  1
  In  In26  1  0.50096402  0.33256084  0.37560971  1
  In  In27  1  0.49672241  0.33900455  0.88817821  1
  In  In28  1  0.48711706  0.66903919  0.37783937  1
  In  In29  1  0.49174766  0.66520095  0.87575670  1
  In  In30  1  0.83176549  0.02014423  0.37798268  1
  In  In31  1  0.82648732  -0.00109935  0.86580691  1
  In  In32  1  0.83224529  0.33069693  0.36867876  1
  In  In33  1  0.83323622  0.33975323  0.88355582  1
  In  In34  1  0.83135177  0.64584560  0.37468673  1
  In  In35  1  0.83536795  0.65898330  0.87702906  1
  In  In36  1  -0.01067089  0.17403102  0.37861279  1
  In  In37  1  0.01370025  0.17078153  0.87665032  1
  In  In38  1  0.00252725  0.49037828  0.36379519  1
  In  In39  1  0.00326390  0.49953551  0.88511019  1
  In  In40  1  0.01219067  0.82814847  0.37607319  1
  In  In41  1  -0.00953328  0.83776956  0.87222832  1
  In  In42  1  0.32366340  0.17952513  0.38351818  1
  In  In43  1  0.34189580  0.15657302  0.88670874  1
  In  In44  1  0.33006323  0.49829536  0.37090898  1
  In  In45  1  0.33349637  0.49968216  0.87803271  1
  In  In46  1  0.34276726  0.82935495  0.37572682  1
  In  In47  1  0.33289012  0.83141451  0.86482088  1
  In  In48  1  0.66694256  0.16823087  0.37212967  1
  In  In49  1  0.66021667  0.15189244  0.87914671  1
  In  In50  1  0.67582739  0.48862889  0.38022440  1
  In  In51  1  0.66878528  0.49410223  0.88657734  1
  In  In52  1  0.64702243  0.83462566  0.37703765  1
  In  In53  1  0.65888683  0.84049130  0.87029440  1
  In  In54  1  0.16753968  0.00727830  0.11884809  1
  In  In55  1  0.15922846  0.01230231  0.63485013  1
  In  In56  1  0.16902113  0.33913269  0.13337530  1
  In  In57  1  0.16719114  0.33576631  0.61335890  1
  In  In58  1  0.18851496  0.63162111  0.15439156  1
  In  In59  1  0.17897551  0.66769455  0.62160987  1
  In  In60  1  0.50545415  0.02509773  0.11609091  1
  In  In61  1  0.50026139  0.00274154  0.62392016  1
  In  In62  1  0.49895397  0.32776933  0.13208321  1
  In  In63  1  0.50559972  0.33848285  0.61580276  1
  In  In64  1  0.50143694  0.64731120  0.12721695  1
  In  In65  1  0.48047790  0.65488151  0.61387317  1
  In  In66  1  0.82541546  -0.00400505  0.12939727  1
  In  In67  1  0.82284392  0.01463011  0.63081183  1
  In  In68  1  0.82226799  0.34529910  0.13024063  1
  In  In69  1  0.83615417  0.33708350  0.61634778  1
  In  In70  1  0.85405662  0.64787179  0.13569579  1
  In  In71  1  0.83527884  0.65724270  0.61907688  1
  In  In72  1  0.50122908  0.83270625  -0.00627001  1
  In  In73  1  -0.00122997  0.33468323  0.75461203  1
  In  In74  1  0.67098757  0.65923001  0.25189247  1
  In  In75  1  0.66467948  0.67009534  0.75004991  1
  In  In76  1  0.17999355  0.83088857  0.49981381  1
  In  In77  1  0.82732048  0.17207749  0.00621772  1
  In  In78  1  0.34002259  0.00031638  0.24776095  1
  In  In79  1  0.16118929  0.83165575  0.00406147  1
  In  In80  1  0.83101329  0.83420398  0.50820911  1
  In  In81  1  0.33517838  0.33272993  0.75575385  1
  In  In82  1  0.00675042  0.66914619  0.75491911  1
  In  In83  1  0.66477288  0.33448293  0.75277827  1
  In  In84  1  -0.00409094  0.00038697  0.24783573  1
  In  In85  1  0.83019961  0.82968611  -0.00592018  1
  Cu  Cu86  1  0.50189800  0.83906217  0.25180582  1
  Cu  Cu87  1  0.00391446  0.01104661  0.50684186  1
  Cu  Cu88  1  0.33433994  0.65697358  0.00551724  1
  Cu  Cu89  1  0.17186602  0.83792871  0.74687584  1
  Cu  Cu90  1  -0.00034568  0.00726197  -0.00463566  1
  Cu  Cu91  1  0.83402331  0.17244159  0.25003565  1
  Cu  Cu92  1  0.32346974  0.65869782  0.49244781  1
  Cu  Cu93  1  0.32892171  0.33742070  0.00786886  1
  Cu  Cu94  1  0.83094501  0.16376972  0.74709637  1
  Cu  Cu95  1  0.00268189  0.33537246  0.49114665  1
  Cu  Cu96  1  0.16938379  0.16608906  0.75150010  1
  Cu  Cu97  1  0.66544372  0.00417070  0.50079310  1
  Cu  Cu98  1  0.66910572  0.33128406  0.49498061  1
  Cu  Cu99  1  0.65637503  0.66477665  0.49394871  1
  Cu  Cu100  1  0.16493121  0.82422707  0.24710603  1
  Cu  Cu101  1  -0.00237380  0.65350548  0.49092472  1
  Cu  Cu102  1  0.50038256  0.16351475  0.74883217  1
  Cu  Cu103  1  0.49946484  0.17020753  0.25156107  1
  Cu  Cu104  1  0.67950863  0.65873310  0.00445275  1
  Cu  Cu105  1  0.17562303  0.50388758  0.74970136  1
  Cu  Cu106  1  0.50166696  0.49140245  0.25138218  1
  Cu  Cu107  1  0.16876301  0.16792430  0.25131332  1
  Cu  Cu108  1  0.82675325  0.83772003  0.25356199  1
  Cu  Cu109  1  0.83848339  0.84085578  0.74555318  1
  Cu  Cu110  1  0.01126801  0.65537753  0.01058503  1
  Cu  Cu111  1  0.83048311  0.49446704  0.24810212  1
  Cu  Cu112  1  0.33566782  0.00568930  0.50343693  1
  Cu  Cu113  1  0.50017093  0.83711728  0.74722895  1
  Cu  Cu114  1  0.33577081  0.33443629  0.49530847  1
  Se  Se115  1  0.08579986  0.08627775  0.04833588  1
  Se  Se116  1  0.09062088  0.09275620  0.55735735  1
  Se  Se117  1  0.09259640  0.41732922  0.05830894  1
  Se  Se118  1  0.08476492  0.41913172  0.54603100  1
  Se  Se119  1  0.08538673  0.73943060  0.07012602  1
  Se  Se120  1  0.07697551  0.73764695  0.55035942  1
  Se  Se121  1  0.40117342  0.07209491  0.04938885  1
  Se  Se122  1  0.42087321  0.08894197  0.55483085  1
  Se  Se123  1  0.41586865  0.41453170  0.06371908  1
  Se  Se124  1  0.41483643  0.41848730  0.55238290  1
  Se  Se125  1  0.41491327  0.74307231  0.06090223  1
  Se  Se126  1  0.40348196  0.74649493  0.54732893  1
  Se  Se127  1  0.73906624  0.07641068  0.06124479  1
  Se  Se128  1  0.75170152  0.08764196  0.55137559  1
  Se  Se129  1  0.75318661  0.41179983  0.04666280  1
  Se  Se130  1  0.74697942  0.41753073  0.55226163  1
  Se  Se131  1  0.75557762  0.73869131  0.06571484  1
  Se  Se132  1  0.73373242  0.74187375  0.56095230  1
  Se  Se133  1  0.24962777  0.25253366  0.06320560  1
  Se  Se134  1  0.25215743  0.25079502  0.54994446  1
  Se  Se135  1  0.25223558  0.57869026  0.06337762  1
  Se  Se136  1  0.24362531  0.57686387  0.54995884  1
  Se  Se137  1  0.25932316  0.92720267  0.05092877  1
  Se  Se138  1  0.25410996  0.92625470  0.56550756  1
  Se  Se139  1  0.56501128  0.23478084  0.06087633  1
  Se  Se140  1  0.58270569  0.25054730  0.54849677  1
  Se  Se141  1  0.58147160  0.58292807  0.04876578  1
  Se  Se142  1  0.57749818  0.58056753  0.55134391  1
  Se  Se143  1  0.58910949  0.91893405  0.05812793  1
  Se  Se144  1  0.58062631  0.91897186  0.55126509  1
  Se  Se145  1  0.91824217  0.25984739  0.06386286  1
  Se  Se146  1  0.91949063  0.25498892  0.54924722  1
  Se  Se147  1  0.91853965  0.57338245  0.05459488  1
  Se  Se148  1  0.91359996  0.57627994  0.54871802  1
  Se  Se149  1  0.92072188  0.92515672  0.05464143  1
  Se  Se150  1  0.92500561  0.92512528  0.56415007  1
  Se  Se151  1  0.08643096  0.25144169  0.43860524  1
  Se  Se152  1  0.06677872  0.26052514  0.95249034  1
  Se  Se153  1  0.08279938  0.57478890  0.43696706  1
  Se  Se154  1  0.09307754  0.57993845  0.95004470  1
  Se  Se155  1  0.07958801  0.92565910  0.44733417  1
  Se  Se156  1  0.07873456  0.92231706  0.93769261  1
  Se  Se157  1  0.42221786  0.24819762  0.44773783  1
  Se  Se158  1  0.41077304  0.25433227  0.95138935  1
  Se  Se159  1  0.41403833  0.57659407  0.44455469  1
  Se  Se160  1  0.41913170  0.58044957  0.94810612  1
  Se  Se161  1  0.41086186  0.91706400  0.44836560  1
  Se  Se162  1  0.40732222  0.91934199  0.93691767  1
  Se  Se163  1  0.75317331  0.24856612  0.44127185  1
  Se  Se164  1  0.73550860  0.25468776  0.94157414  1
  Se  Se165  1  0.74764288  0.58103422  0.45028893  1
  Se  Se166  1  0.76137675  0.57728786  0.94881023  1
  Se  Se167  1  0.74580611  0.92040965  0.44114579  1
  Se  Se168  1  0.73902938  0.92623918  0.94316870  1
  Se  Se169  1  0.24873397  0.08701390  0.45201092  1
  Se  Se170  1  0.22981609  0.09735089  0.94301057  1
  Se  Se171  1  0.24981651  0.41457410  0.44147980  1
  Se  Se172  1  0.25165353  0.42127985  0.94966552  1
  Se  Se173  1  0.24445039  0.73655509  0.42860030  1
  Se  Se174  1  0.25999559  0.74427484  0.94536150  1
  Se  Se175  1  0.58471518  0.08554429  0.44336786  1
  Se  Se176  1  0.57143217  0.08016461  0.94707064  1
  Se  Se177  1  0.58193661  0.41650524  0.44659307  1
  Se  Se178  1  0.58424815  0.41649249  0.95399880  1
  Se  Se179  1  0.57164048  0.75146785  0.44734178  1
  Se  Se180  1  0.59988929  0.73830373  0.94172262  1
  Se  Se181  1  0.91690660  0.08788927  0.45180599  1
  Se  Se182  1  0.91243572  0.08186871  0.93818561  1
  Se  Se183  1  0.91698730  0.41503455  0.43611769  1
  Se  Se184  1  0.93230655  0.40278888  0.94730142  1
  Se  Se185  1  0.91759315  0.74553286  0.44113402  1
  Se  Se186  1  0.93355904  0.73654284  0.94655559  1
  Se  Se187  1  0.25354401  0.25083085  0.30310114  1
  Se  Se188  1  0.24240413  0.24700766  0.81535420  1
  Se  Se189  1  0.26871259  0.59624754  0.30029217  1
  Se  Se190  1  0.26030127  0.58465508  0.80255479  1
  Se  Se191  1  0.24359000  0.90842949  0.30591005  1
  Se  Se192  1  0.25598039  0.92147597  0.79869756  1
  Se  Se193  1  0.58511637  0.25308582  0.30407389  1
  Se  Se194  1  0.57282112  0.24612705  0.81235767  1
  Se  Se195  1  0.57806211  0.57577713  0.31363582  1
  Se  Se196  1  0.58369103  0.57725232  0.81301250  1
  Se  Se197  1  0.58282845  0.92401979  0.30354064  1
  Se  Se198  1  0.58285280  0.92166785  0.79934886  1
  Se  Se199  1  0.92262597  0.25314590  0.29988788  1
  Se  Se200  1  0.90565138  0.24242783  0.81110065  1
  Se  Se201  1  0.91427921  0.57908497  0.29977036  1
  Se  Se202  1  0.91624681  0.57301028  0.80667025  1
  Se  Se203  1  0.91061020  0.91307234  0.31581714  1
  Se  Se204  1  0.92016435  0.92352654  0.80021733  1
  Se  Se205  1  0.08921495  0.08457890  0.31008626  1
  Se  Se206  1  0.07848208  0.08533900  0.80051004  1
  Se  Se207  1  0.10596414  0.43304474  0.29466932  1
  Se  Se208  1  0.09615932  0.42399390  0.80991927  1
  Se  Se209  1  0.07411173  0.74745337  0.29775443  1
  Se  Se210  1  0.09821165  0.75922971  0.81426573  1
  Se  Se211  1  0.41895893  0.09091292  0.31425339  1
  Se  Se212  1  0.41060058  0.08745111  0.80288254  1
  Se  Se213  1  0.41575535  0.41138182  0.30542398  1
  Se  Se214  1  0.42939659  0.42392656  0.80853430  1
  Se  Se215  1  0.41909989  0.75222699  0.30056370  1
  Se  Se216  1  0.42197678  0.74944956  0.80136953  1
  Se  Se217  1  0.75114881  0.08569890  0.30077801  1
  Se  Se218  1  0.74300715  0.08593066  0.80121001  1
  Se  Se219  1  0.74509919  0.41307757  0.30115293  1
  Se  Se220  1  0.75821204  0.42500781  0.80847579  1
  Se  Se221  1  0.75263271  0.75478214  0.31670662  1
  Se  Se222  1  0.76280490  0.75956900  0.80930737  1
  Se  Se223  1  0.24856056  0.09002598  0.18992257  1
  Se  Se224  1  0.25625939  0.08723386  0.69781864  1
  Se  Se225  1  0.22866252  0.43545225  0.20688757  1
  Se  Se226  1  0.24802047  0.41811236  0.68875893  1
  Se  Se227  1  0.25890890  0.74827524  0.19979146  1
  Se  Se228  1  0.25082309  0.74809695  0.69616485  1
  Se  Se229  1  0.58146954  0.08353571  0.19995102  1
  Se  Se230  1  0.58572957  0.08378414  0.69429585  1
  Se  Se231  1  0.58770303  0.41386411  0.19616297  1
  Se  Se232  1  0.57640888  0.42573393  0.69271706  1
  Se  Se233  1  0.57888408  0.75203831  0.19190432  1
  Se  Se234  1  0.57488652  0.75307163  0.68516158  1
  Se  Se235  1  0.91322166  0.09467762  0.18575880  1
  Se  Se236  1  0.92119971  0.08697727  0.69425935  1
  Se  Se237  1  0.91886911  0.41337934  0.19714315  1
  Se  Se238  1  0.91048207  0.42339333  0.69278437  1
  Se  Se239  1  0.90975985  0.75345422  0.20193115  1
  Se  Se240  1  0.91312595  0.75383251  0.68840778  1
  Se  Se241  1  0.08334564  0.25167064  0.20082256  1
  Se  Se242  1  0.09196430  0.25085755  0.69190773  1
  Se  Se243  1  0.05669572  0.60202324  0.19310215  1
  Se  Se244  1  0.08836749  0.57674539  0.68889002  1
  Se  Se245  1  0.08953600  0.91037978  0.18745369  1
  Se  Se246  1  0.08160060  0.91851907  0.69941817  1
  Se  Se247  1  0.41007836  0.25232774  0.20340827  1
  Se  Se248  1  0.42524012  0.24908999  0.68942892  1
  Se  Se249  1  0.41872336  0.57752849  0.20075840  1
  Se  Se250  1  0.41413880  0.58671448  0.69662228  1
  Se  Se251  1  0.42780724  0.91401292  0.18304359  1
  Se  Se252  1  0.41631894  0.91992746  0.69331646  1
  Se  Se253  1  0.74753338  0.25392980  0.19800500  1
  Se  Se254  1  0.75390931  0.24795715  0.68780062  1
  Se  Se255  1  0.74510682  0.56695585  0.18460760  1
  Se  Se256  1  0.75679972  0.57707530  0.69383041  1
  Se  Se257  1  0.74363527  0.92011628  0.20216694  1
  Se  Se258  1  0.74867184  0.92236084  0.69799895  1
