# generated using pymatgen
data_In86Cu29Se144
_symmetry_space_group_name_H-M   'P 1'
_cell_length_a   17.59195760
_cell_length_b   17.59236557
_cell_length_c   23.45646228
_cell_angle_alpha   90.00023517
_cell_angle_beta   90.00378559
_cell_angle_gamma   89.99761428
_symmetry_Int_Tables_number   1
_chemical_formula_structural   In86Cu29Se144
_chemical_formula_sum   'In86 Cu29 Se144'
_cell_volume   7259.40324864
_cell_formula_units_Z   1
loop_
 _symmetry_equiv_pos_site_id
 _symmetry_equiv_pos_as_xyz
  1  'x, y, z'
loop_
 _atom_site_type_symbol
 _atom_site_label
 _atom_site_symmetry_multiplicity
 _atom_site_fract_x
 _atom_site_fract_y
 _atom_site_fract_z
 _atom_site_occupancy
  In  In0  1  0.00132440  0.16561610  0.11741355  1
  In  In1  1  0.00245571  0.16892641  0.61401306  1
  In  In2  1  -0.00150986  0.51696432  0.12996101  1
  In  In3  1  -0.00085612  0.49700367  0.61837428  1
  In  In4  1  -0.01165339  0.82447607  0.12454310  1
  In  In5  1  -0.00428980  0.83115279  0.61616564  1
  In  In6  1  0.32562959  0.17593653  0.13017621  1
  In  In7  1  0.33343888  0.16690793  0.62086159  1
  In  In8  1  0.33665293  0.49858749  0.13598084  1
  In  In9  1  0.31826550  0.49637139  0.61705614  1
  In  In10  1  0.33307670  0.83471161  0.12877484  1
  In  In11  1  0.33451826  0.83849694  0.61061100  1
  In  In12  1  0.67316726  0.15434883  0.13361801  1
  In  In13  1  0.65792222  0.15772498  0.61848388  1
  In  In14  1  0.66374970  0.49076415  0.12747037  1
  In  In15  1  0.67495605  0.49888176  0.61930994  1
  In  In16  1  0.68345014  0.84359585  0.11966636  1
  In  In17  1  0.68199414  0.85153808  0.60888652  1
  In  In18  1  0.17296541  -0.00974680  0.37750119  1
  In  In19  1  0.16598609  0.00152972  0.88268543  1
  In  In20  1  0.17652234  0.32326556  0.38206823  1
  In  In21  1  0.17512105  0.32075540  0.87799656  1
  In  In22  1  0.16588258  0.66845849  0.37198490  1
  In  In23  1  0.17600671  0.67681453  0.87797159  1
  In  In24  1  0.50008935  0.00160937  0.37280892  1
  In  In25  1  0.50034399  -0.01550884  0.87901480  1
  In  In26  1  0.49011716  0.32174277  0.36799532  1
  In  In27  1  0.49147032  0.33592981  0.87217653  1
  In  In28  1  0.50457661  0.68718873  0.37635677  1
  In  In29  1  0.51321138  0.67232836  0.88177849  1
  In  In30  1  0.82797332  0.00215137  0.37658189  1
  In  In31  1  0.83234097  0.00183206  0.87534676  1
  In  In32  1  0.82836704  0.33861569  0.37780366  1
  In  In33  1  0.83151060  0.33445528  0.88316737  1
  In  In34  1  0.83208357  0.66160306  0.38227897  1
  In  In35  1  0.82290543  0.67036637  0.88983022  1
  In  In36  1  -0.00015002  0.16525526  0.38317226  1
  In  In37  1  0.00346441  0.16627152  0.88102106  1
  In  In38  1  -0.00815874  0.51246393  0.37974959  1
  In  In39  1  -0.01073627  0.49467859  0.87489606  1
  In  In40  1  -0.00008472  0.82765755  0.37493431  1
  In  In41  1  -0.00496903  0.83961461  0.88142307  1
  In  In42  1  0.33483305  0.16476507  0.37390181  1
  In  In43  1  0.32284574  0.17188838  0.87850724  1
  In  In44  1  0.32376769  0.49087001  0.36867420  1
  In  In45  1  0.34049815  0.49252965  0.87405994  1
  In  In46  1  0.33334369  0.83669954  0.36981233  1
  In  In47  1  0.33433767  0.83566443  0.88860735  1
  In  In48  1  0.66475505  0.16508111  0.37361435  1
  In  In49  1  0.68442813  0.16485114  0.87520405  1
  In  In50  1  0.68636169  0.50316981  0.37541472  1
  In  In51  1  0.67570287  0.50642276  0.87761615  1
  In  In52  1  0.65720747  0.83626786  0.38233017  1
  In  In53  1  0.66276714  0.83817923  0.88176210  1
  In  In54  1  0.17281238  0.00968706  0.12316423  1
  In  In55  1  0.16910148  0.00092605  0.61458654  1
  In  In56  1  0.18119178  0.32815272  0.12239666  1
  In  In57  1  0.16779452  0.33252400  0.61739089  1
  In  In58  1  0.15405057  0.67634915  0.13619795  1
  In  In59  1  0.16582543  0.66947850  0.61311594  1
  In  In60  1  0.51042232  -0.01091024  0.13493386  1
  In  In61  1  0.50820242  0.00746342  0.61774176  1
  In  In62  1  0.49882529  0.33893581  0.13466825  1
  In  In63  1  0.49997914  0.31379953  0.62234805  1
  In  In64  1  0.48974274  0.66566279  0.12946785  1
  In  In65  1  0.49328484  0.67286111  0.61805850  1
  In  In66  1  0.82222175  -0.01203820  0.12234153  1
  In  In67  1  0.82009121  -0.00873473  0.61953852  1
  In  In68  1  0.82679727  0.32320477  0.12084807  1
  In  In69  1  0.83975305  0.33686265  0.61819140  1
  In  In70  1  0.84568146  0.68238087  0.12002942  1
  In  In71  1  0.82804945  0.67247721  0.61586652  1
  In  In72  1  0.66611174  0.66743893  0.75145123  1
  In  In73  1  0.50207650  0.50411538  0.00434209  1
  In  In74  1  -0.00022689  0.00464533  0.75618567  1
  In  In75  1  -0.00095134  -0.00398588  0.25390538  1
  In  In76  1  0.33528864  0.00122344  0.74527649  1
  In  In77  1  0.66612131  0.32758431  0.75287385  1
  In  In78  1  0.66769037  0.66759454  0.25083646  1
  In  In79  1  0.16037082  0.50402083  0.00228645  1
  In  In80  1  0.50530748  0.50079731  0.49041288  1
  In  In81  1  -0.00067991  0.33346255  0.74143101  1
  In  In82  1  0.33520736  0.66600118  0.75012241  1
  In  In83  1  0.00219818  0.33550743  0.25805199  1
  In  In84  1  -0.00807450  0.66584720  0.74502877  1
  In  In85  1  0.49820256  0.16467953  0.00277931  1
  Cu  Cu86  1  0.17483646  0.17003969  0.25148999  1
  Cu  Cu87  1  0.67408385  0.00194219  0.00468463  1
  Cu  Cu88  1  0.66887175  0.32909584  0.00336733  1
  Cu  Cu89  1  0.49941032  0.83624000  0.25219145  1
  Cu  Cu90  1  -0.00521806  -0.00069489  0.49687000  1
  Cu  Cu91  1  0.16607584  0.83543483  0.74751671  1
  Cu  Cu92  1  0.33579136  0.32940437  0.49580989  1
  Cu  Cu93  1  0.82528755  0.16101903  0.24824184  1
  Cu  Cu94  1  0.00304457  -0.00200977  0.00160862  1
  Cu  Cu95  1  0.49739934  0.15778343  0.74402280  1
  Cu  Cu96  1  0.50809143  0.83542573  0.75206826  1
  Cu  Cu97  1  0.49887293  0.16486160  0.25079507  1
  Cu  Cu98  1  0.49450316  0.48922491  0.74738178  1
  Cu  Cu99  1  0.33310528  -0.00061505  0.49274080  1
  Cu  Cu100  1  0.83559167  0.50126361  0.25313404  1
  Cu  Cu101  1  0.33066771  0.67211573  0.49274814  1
  Cu  Cu102  1  0.16907289  0.50124140  0.25093971  1
  Cu  Cu103  1  0.16974241  0.83456448  0.25158908  1
  Cu  Cu104  1  0.33589640  -0.00268023  0.00573926  1
  Cu  Cu105  1  0.00353150  0.67078981  0.49706227  1
  Cu  Cu106  1  0.66408553  0.00423399  0.49522924  1
  Cu  Cu107  1  0.83409179  0.16251191  0.74841181  1
  Cu  Cu108  1  0.00212540  0.33754598  0.49642582  1
  Cu  Cu109  1  0.49977492  0.49995794  0.25332634  1
  Cu  Cu110  1  0.32802063  0.67213842  0.00787610  1
  Cu  Cu111  1  -0.00289177  0.67158469  0.00543301  1
  Cu  Cu112  1  -0.00361047  0.33588520  0.00016991  1
  Cu  Cu113  1  0.66961660  0.32721491  0.49801194  1
  Cu  Cu114  1  0.16759592  0.48955290  0.74422670  1
  Se  Se115  1  0.08694118  0.08443309  0.05127645  1
  Se  Se116  1  0.08271213  0.08171097  0.54804730  1
  Se  Se117  1  0.07450941  0.41231398  0.06523898  1
  Se  Se118  1  0.08612577  0.41944660  0.55115818  1
  Se  Se119  1  0.08414954  0.75222626  0.05704279  1
  Se  Se120  1  0.08667793  0.75780017  0.54837335  1
  Se  Se121  1  0.41524626  0.07588783  0.06760901  1
  Se  Se122  1  0.41258209  0.08014014  0.55333093  1
  Se  Se123  1  0.40960981  0.41192967  0.05913411  1
  Se  Se124  1  0.41761802  0.41145716  0.55587263  1
  Se  Se125  1  0.41675965  0.75207126  0.05820694  1
  Se  Se126  1  0.41725266  0.75255413  0.54512784  1
  Se  Se127  1  0.75557482  0.08850954  0.05588538  1
  Se  Se128  1  0.74995100  0.08488324  0.55088342  1
  Se  Se129  1  0.74898112  0.41628454  0.05586957  1
  Se  Se130  1  0.75086109  0.41377258  0.55009736  1
  Se  Se131  1  0.75282285  0.75077312  0.05270217  1
  Se  Se132  1  0.74323041  0.74778194  0.54714208  1
  Se  Se133  1  0.24726180  0.24101149  0.05061327  1
  Se  Se134  1  0.25090402  0.24753717  0.55061056  1
  Se  Se135  1  0.25154326  0.58755558  0.06638316  1
  Se  Se136  1  0.25026270  0.58636768  0.54679792  1
  Se  Se137  1  0.24955586  0.91611121  0.05825877  1
  Se  Se138  1  0.24598669  0.91596242  0.54487352  1
  Se  Se139  1  0.58703254  0.25387104  0.06468953  1
  Se  Se140  1  0.58213289  0.24487802  0.54787118  1
  Se  Se141  1  0.59095269  0.59322000  0.06318924  1
  Se  Se142  1  0.58863369  0.58874600  0.55646686  1
  Se  Se143  1  0.58721425  0.92011548  0.05587945  1
  Se  Se144  1  0.57875824  0.91844646  0.54712199  1
  Se  Se145  1  0.91548510  0.24836108  0.05198393  1
  Se  Se146  1  0.91740235  0.25258279  0.54890892  1
  Se  Se147  1  0.91546937  0.58264864  0.05390321  1
  Se  Se148  1  0.92164723  0.58978686  0.55537719  1
  Se  Se149  1  0.91780974  0.91737906  0.05609718  1
  Se  Se150  1  0.91227308  0.91714697  0.55197824  1
  Se  Se151  1  0.08483248  0.24859287  0.44854729  1
  Se  Se152  1  0.08243299  0.25452122  0.94773602  1
  Se  Se153  1  0.08651338  0.58583057  0.44485274  1
  Se  Se154  1  0.07345959  0.59497981  0.93804029  1
  Se  Se155  1  0.07841359  0.91703195  0.44227760  1
  Se  Se156  1  0.08619351  0.91392563  0.94817542  1
  Se  Se157  1  0.41951608  0.24445897  0.44587176  1
  Se  Se158  1  0.40960222  0.26004776  0.94721535  1
  Se  Se159  1  0.41015956  0.58884537  0.43358436  1
  Se  Se160  1  0.40612026  0.59393414  0.94333686  1
  Se  Se161  1  0.41744262  0.91562275  0.44092973  1
  Se  Se162  1  0.42226610  0.91347339  0.95574881  1
  Se  Se163  1  0.75277873  0.24524770  0.44267698  1
  Se  Se164  1  0.75360510  0.24629872  0.95072428  1
  Se  Se165  1  0.75397794  0.57813736  0.45298025  1
  Se  Se166  1  0.74420919  0.58101499  0.95449168  1
  Se  Se167  1  0.74881287  0.91785207  0.44661919  1
  Se  Se168  1  0.75341638  0.91931257  0.94634163  1
  Se  Se169  1  0.24810367  0.08440061  0.44250718  1
  Se  Se170  1  0.25606442  0.07970113  0.94843292  1
  Se  Se171  1  0.25162548  0.41734376  0.44842125  1
  Se  Se172  1  0.25525709  0.41517347  0.94655084  1
  Se  Se173  1  0.24771908  0.75579062  0.43931631  1
  Se  Se174  1  0.24495516  0.75587386  0.95440511  1
  Se  Se175  1  0.57865293  0.08700979  0.44376484  1
  Se  Se176  1  0.59199554  0.07883283  0.94188685  1
  Se  Se177  1  0.59199690  0.40564107  0.43338857  1
  Se  Se178  1  0.58873894  0.40774094  0.94137235  1
  Se  Se179  1  0.59031365  0.74373102  0.45306882  1
  Se  Se180  1  0.58638178  0.75287864  0.95205094  1
  Se  Se181  1  0.91075194  0.08420895  0.44639891  1
  Se  Se182  1  0.92031808  0.07922343  0.94410005  1
  Se  Se183  1  0.91553831  0.41914303  0.44441375  1
  Se  Se184  1  0.91216830  0.42128323  0.95053106  1
  Se  Se185  1  0.91543518  0.75128816  0.44631147  1
  Se  Se186  1  0.91536851  0.75448073  0.94926014  1
  Se  Se187  1  0.25631583  0.25478426  0.30454326  1
  Se  Se188  1  0.25678799  0.25396568  0.80278924  1
  Se  Se189  1  0.25186106  0.58647476  0.30322073  1
  Se  Se190  1  0.24083700  0.57404481  0.80773853  1
  Se  Se191  1  0.25273248  0.92233892  0.29973588  1
  Se  Se192  1  0.24825539  0.90974559  0.80988251  1
  Se  Se193  1  0.58444622  0.24860467  0.30228950  1
  Se  Se194  1  0.57443829  0.23545326  0.81110508  1
  Se  Se195  1  0.57866145  0.57829251  0.31475576  1
  Se  Se196  1  0.57143629  0.57084890  0.80776976  1
  Se  Se197  1  0.58513298  0.91630975  0.30586222  1
  Se  Se198  1  0.58829188  0.91934844  0.80537477  1
  Se  Se199  1  0.90896576  0.23867329  0.30825994  1
  Se  Se200  1  0.91089110  0.24568444  0.80818666  1
  Se  Se201  1  0.91390706  0.58871624  0.30518928  1
  Se  Se202  1  0.90396021  0.58407796  0.81168212  1
  Se  Se203  1  0.90530641  0.90734699  0.30767025  1
  Se  Se204  1  0.90855403  0.90663045  0.80439255  1
  Se  Se205  1  0.09030316  0.09143444  0.30910854  1
  Se  Se206  1  0.09699535  0.09432036  0.80828191  1
  Se  Se207  1  0.09226523  0.42411163  0.31675181  1
  Se  Se208  1  0.08784248  0.41911211  0.80998382  1
  Se  Se209  1  0.08324882  0.75222611  0.30237278  1
  Se  Se210  1  0.08637595  0.75522031  0.80663631  1
  Se  Se211  1  0.41463963  0.08156727  0.30336796  1
  Se  Se212  1  0.42216386  0.08451140  0.81331337  1
  Se  Se213  1  0.41403518  0.41376075  0.30227491  1
  Se  Se214  1  0.40841113  0.40869387  0.79852665  1
  Se  Se215  1  0.41608967  0.74988516  0.30168746  1
  Se  Se216  1  0.42361757  0.75788133  0.81140566  1
  Se  Se217  1  0.74548854  0.07869849  0.30405418  1
  Se  Se218  1  0.75112587  0.07945266  0.80089910  1
  Se  Se219  1  0.75131022  0.41461516  0.30109624  1
  Se  Se220  1  0.75787797  0.42142897  0.80636933  1
  Se  Se221  1  0.75176009  0.75502604  0.31457574  1
  Se  Se222  1  0.75413817  0.75622574  0.81171551  1
  Se  Se223  1  0.25366789  0.08259385  0.19852207  1
  Se  Se224  1  0.23939860  0.08790158  0.69086561  1
  Se  Se225  1  0.24724507  0.41372605  0.19772621  1
  Se  Se226  1  0.25123773  0.40975069  0.69076934  1
  Se  Se227  1  0.25244505  0.74897338  0.19849359  1
  Se  Se228  1  0.24769158  0.75676821  0.68781468  1
  Se  Se229  1  0.58558876  0.07980488  0.20224428  1
  Se  Se230  1  0.58660814  0.07805924  0.69583893  1
  Se  Se231  1  0.58580558  0.41669064  0.20316279  1
  Se  Se232  1  0.57955734  0.41699807  0.68679851  1
  Se  Se233  1  0.58002791  0.75822991  0.18970390  1
  Se  Se234  1  0.57856680  0.75390735  0.68795681  1
  Se  Se235  1  0.91391620  0.08744838  0.19001297  1
  Se  Se236  1  0.91474267  0.08730115  0.68628692  1
  Se  Se237  1  0.91325602  0.41833407  0.19155965  1
  Se  Se238  1  0.90577728  0.43056665  0.69378321  1
  Se  Se239  1  0.91996059  0.74530551  0.20143997  1
  Se  Se240  1  0.90418521  0.76147838  0.69040279  1
  Se  Se241  1  0.08729460  0.24524779  0.19307857  1
  Se  Se242  1  0.09064540  0.23996821  0.68969501  1
  Se  Se243  1  0.08029283  0.58573416  0.20509494  1
  Se  Se244  1  0.09263478  0.57845345  0.68934411  1
  Se  Se245  1  0.08864256  0.91265538  0.18877196  1
  Se  Se246  1  0.08561071  0.91426623  0.68883856  1
  Se  Se247  1  0.41619238  0.25063491  0.19808629  1
  Se  Se248  1  0.41453993  0.24442909  0.69546957  1
  Se  Se249  1  0.41550382  0.58536446  0.20359705  1
  Se  Se250  1  0.41987843  0.57330826  0.68698305  1
  Se  Se251  1  0.41329691  0.91844457  0.19965123  1
  Se  Se252  1  0.42397070  0.90746133  0.68809148  1
  Se  Se253  1  0.74710436  0.25247529  0.19745455  1
  Se  Se254  1  0.75618407  0.24483591  0.68717620  1
  Se  Se255  1  0.75728139  0.57954641  0.18892080  1
  Se  Se256  1  0.75759175  0.57903127  0.69175900  1
  Se  Se257  1  0.74508414  0.92134103  0.20038059  1
  Se  Se258  1  0.74311725  0.91739423  0.69462407  1
