# generated using pymatgen
data_In86Cu29Se144
_symmetry_space_group_name_H-M   'P 1'
_cell_length_a   17.57327069
_cell_length_b   17.57546019
_cell_length_c   23.43918496
_cell_angle_alpha   89.97060128
_cell_angle_beta   90.01846162
_cell_angle_gamma   90.00450303
_symmetry_Int_Tables_number   1
_chemical_formula_structural   In86Cu29Se144
_chemical_formula_sum   'In86 Cu29 Se144'
_cell_volume   7239.38592486
_cell_formula_units_Z   1
loop_
 _symmetry_equiv_pos_site_id
 _symmetry_equiv_pos_as_xyz
  1  'x, y, z'
loop_
 _atom_site_type_symbol
 _atom_site_label
 _atom_site_symmetry_multiplicity
 _atom_site_fract_x
 _atom_site_fract_y
 _atom_site_fract_z
 _atom_site_occupancy
  In  In0  1  -0.00418868  0.16779293  0.12406919  1
  In  In1  1  0.00569502  0.17567589  0.62066818  1
  In  In2  1  -0.01152171  0.49134252  0.11940314  1
  In  In3  1  -0.01603783  0.51258619  0.63217831  1
  In  In4  1  0.00081458  0.85359730  0.12660466  1
  In  In5  1  0.00398361  0.81512958  0.62224655  1
  In  In6  1  0.33405751  0.18016541  0.12418443  1
  In  In7  1  0.32734957  0.17429784  0.62177295  1
  In  In8  1  0.32881012  0.49981314  0.11612675  1
  In  In9  1  0.34522664  0.50253672  0.62684365  1
  In  In10  1  0.33506435  0.82694965  0.12314108  1
  In  In11  1  0.32481569  0.82932194  0.61878932  1
  In  In12  1  0.67673207  0.15829343  0.12920301  1
  In  In13  1  0.67171930  0.15097322  0.62567004  1
  In  In14  1  0.65776568  0.49178388  0.11833274  1
  In  In15  1  0.68124681  0.50360876  0.62582561  1
  In  In16  1  0.66768674  0.83588944  0.11686524  1
  In  In17  1  0.65892799  0.83641396  0.63746811  1
  In  In18  1  0.16469450  0.00764350  0.37982670  1
  In  In19  1  0.18420083  0.00585846  0.88488460  1
  In  In20  1  0.15053569  0.32270843  0.36133074  1
  In  In21  1  0.16115893  0.34351023  0.88308967  1
  In  In22  1  0.16736564  0.67079857  0.38314361  1
  In  In23  1  0.15542893  0.65808286  0.86660312  1
  In  In24  1  0.50655139  -0.01734270  0.37153748  1
  In  In25  1  0.49721937  -0.02366509  0.87527053  1
  In  In26  1  0.49950147  0.33616750  0.35624324  1
  In  In27  1  0.51294782  0.33615552  0.88152729  1
  In  In28  1  0.51135691  0.67355252  0.37917201  1
  In  In29  1  0.50125734  0.67043048  0.87004611  1
  In  In30  1  0.84664747  0.00989764  0.36544767  1
  In  In31  1  0.82169994  0.01041050  0.87875528  1
  In  In32  1  0.83457063  0.32808911  0.37339277  1
  In  In33  1  0.84046741  0.32170186  0.88448842  1
  In  In34  1  0.82204505  0.66389032  0.38298140  1
  In  In35  1  0.83587410  0.66509580  0.87796779  1
  In  In36  1  -0.00061879  0.16688365  0.37448384  1
  In  In37  1  -0.00428024  0.17576632  0.87926917  1
  In  In38  1  0.00371746  0.48489917  0.37315746  1
  In  In39  1  0.00057896  0.49603222  0.87738014  1
  In  In40  1  -0.00087481  0.84734129  0.37306230  1
  In  In41  1  0.00300970  0.81802902  0.87348245  1
  In  In42  1  0.31967401  0.16750092  0.37031518  1
  In  In43  1  0.32551422  0.14726425  0.88412177  1
  In  In44  1  0.34117128  0.49583198  0.36847090  1
  In  In45  1  0.32600487  0.50909283  0.88065135  1
  In  In46  1  0.33777340  0.83316114  0.38258050  1
  In  In47  1  0.35973612  0.82733544  0.87861507  1
  In  In48  1  0.67488461  0.17322708  0.36730921  1
  In  In49  1  0.67524911  0.17049125  0.87400260  1
  In  In50  1  0.67448856  0.50142749  0.37335822  1
  In  In51  1  0.65817401  0.50741473  0.88711448  1
  In  In52  1  0.65751417  0.83333779  0.37304598  1
  In  In53  1  0.66531207  0.83416484  0.87113374  1
  In  In54  1  0.14309569  -0.00599937  0.12683851  1
  In  In55  1  0.16934051  0.00279361  0.61492135  1
  In  In56  1  0.16282930  0.33358824  0.12417851  1
  In  In57  1  0.16083981  0.31950025  0.62194925  1
  In  In58  1  0.17877114  0.66656879  0.12195014  1
  In  In59  1  0.15292536  0.67551995  0.63128532  1
  In  In60  1  0.51207394  -0.00424416  0.12506256  1
  In  In61  1  0.52026470  -0.00488784  0.63216826  1
  In  In62  1  0.49424793  0.34782365  0.13748097  1
  In  In63  1  0.49087048  0.33029588  0.62599569  1
  In  In64  1  0.49961391  0.66982153  0.11397313  1
  In  In65  1  0.48229495  0.68636295  0.64852030  1
  In  In66  1  0.83184160  0.00372850  0.12074131  1
  In  In67  1  0.82056210  -0.00493622  0.62485181  1
  In  In68  1  0.83447405  0.33156113  0.12577139  1
  In  In69  1  0.84407344  0.34771743  0.61748540  1
  In  In70  1  0.82774168  0.66469509  0.11238407  1
  In  In71  1  0.84248421  0.65563408  0.63511598  1
  In  In72  1  0.49992001  0.16173729  0.50218201  1
  In  In73  1  0.16531361  0.83430479  0.00044584  1
  In  In74  1  -0.00119782  0.66811035  0.25463761  1
  In  In75  1  0.33540765  0.66765791  0.24744602  1
  In  In76  1  -0.00179623  -0.00267034  0.75007695  1
  In  In77  1  0.16333350  0.49948825  0.49826420  1
  In  In78  1  0.51033891  0.50553582  0.49686326  1
  In  In79  1  0.33796399  -0.00438284  0.75467312  1
  In  In80  1  0.66265886  0.66093805  0.24961625  1
  In  In81  1  0.50269623  0.16851617  0.00515283  1
  In  In82  1  0.33524418  0.00320638  0.24840479  1
  In  In83  1  0.83608773  0.83320505  0.50142162  1
  In  In84  1  0.67213344  0.33561492  0.75171570  1
  In  In85  1  0.33052423  0.33316535  0.74864026  1
  Cu  Cu86  1  0.00162509  0.33248520  0.00326802  1
  Cu  Cu87  1  0.66659649  0.67241929  -0.00632918  1
  Cu  Cu88  1  0.67573483  0.32747031  0.49713328  1
  Cu  Cu89  1  -0.00896478  0.00472456  -0.00039642  1
  Cu  Cu90  1  0.32682087  0.32696605  0.49159161  1
  Cu  Cu91  1  0.33285997  0.67374490  0.50749220  1
  Cu  Cu92  1  0.83616980  0.49950241  0.75712568  1
  Cu  Cu93  1  0.16683880  0.49672268  0.24330185  1
  Cu  Cu94  1  0.00085318  0.66259527  -0.00415307  1
  Cu  Cu95  1  0.67056489  0.33587905  0.00568203  1
  Cu  Cu96  1  0.17186468  0.82795070  0.74856802  1
  Cu  Cu97  1  0.50373437  0.50375621  0.75595296  1
  Cu  Cu98  1  0.67087480  -0.00261054  0.50084859  1
  Cu  Cu99  1  0.83174074  0.83897385  0.24254815  1
  Cu  Cu100  1  0.50488660  0.16446266  0.24362663  1
  Cu  Cu101  1  0.66553549  0.66939700  0.50895255  1
  Cu  Cu102  1  0.33272901  0.33556069  0.00495670  1
  Cu  Cu103  1  0.83163713  0.48891269  0.24971189  1
  Cu  Cu104  1  0.83613282  0.17089319  0.75329290  1
  Cu  Cu105  1  -0.00388360  0.33173305  0.49579298  1
  Cu  Cu106  1  0.33613214  0.66744906  -0.00501543  1
  Cu  Cu107  1  0.16328136  0.49770858  0.75484381  1
  Cu  Cu108  1  0.00198721  0.00536331  0.49667196  1
  Cu  Cu109  1  0.33687490  -0.00253759  0.49572714  1
  Cu  Cu110  1  0.82934653  0.83133601  0.75068987  1
  Cu  Cu111  1  0.16164026  0.16992943  0.75188765  1
  Cu  Cu112  1  0.16048231  0.16874831  0.24864526  1
  Cu  Cu113  1  0.83657187  0.16621438  0.24737331  1
  Cu  Cu114  1  0.66534043  -0.00437160  -0.00113951  1
  Se  Se115  1  0.07779669  0.08302547  0.05370670  1
  Se  Se116  1  0.08459043  0.08927372  0.55201286  1
  Se  Se117  1  0.08444752  0.41991926  0.05366385  1
  Se  Se118  1  0.07314655  0.41259840  0.56052517  1
  Se  Se119  1  0.07370554  0.74475169  0.06183124  1
  Se  Se120  1  0.08899329  0.74840992  0.54918914  1
  Se  Se121  1  0.41271520  0.07809832  0.06383937  1
  Se  Se122  1  0.41195610  0.07226245  0.56449546  1
  Se  Se123  1  0.42179042  0.41640875  0.05484883  1
  Se  Se124  1  0.40935750  0.40890986  0.54918676  1
  Se  Se125  1  0.41522632  0.75503200  0.04770562  1
  Se  Se126  1  0.42415810  0.75025393  0.55858896  1
  Se  Se127  1  0.74740532  0.08369887  0.04937902  1
  Se  Se128  1  0.75537636  0.08303700  0.54973386  1
  Se  Se129  1  0.75682328  0.42011445  0.05560069  1
  Se  Se130  1  0.74899754  0.41947879  0.55053874  1
  Se  Se131  1  0.75083617  0.75535976  0.04712742  1
  Se  Se132  1  0.74964980  0.74849810  0.56742023  1
  Se  Se133  1  0.24646361  0.25150988  0.05329542  1
  Se  Se134  1  0.24515702  0.24690036  0.54808070  1
  Se  Se135  1  0.24920771  0.58600194  0.04685383  1
  Se  Se136  1  0.25508291  0.58557419  0.56176957  1
  Se  Se137  1  0.25027272  0.92394789  0.06341514  1
  Se  Se138  1  0.24948491  0.91621991  0.54889848  1
  Se  Se139  1  0.58817744  0.25787487  0.06810165  1
  Se  Se140  1  0.59036279  0.25680945  0.56016867  1
  Se  Se141  1  0.58763138  0.58717741  0.05084689  1
  Se  Se142  1  0.58183038  0.59234255  0.56952318  1
  Se  Se143  1  0.57738934  0.91268788  0.04747901  1
  Se  Se144  1  0.59072085  0.91432553  0.55642659  1
  Se  Se145  1  0.91388681  0.24934316  0.05353113  1
  Se  Se146  1  0.91410972  0.24947709  0.55260694  1
  Se  Se147  1  0.91569997  0.58061886  0.04956152  1
  Se  Se148  1  0.91081288  0.58407025  0.55409411  1
  Se  Se149  1  0.91288075  0.91588635  0.05157820  1
  Se  Se150  1  0.92790506  0.92448887  0.56195984  1
  Se  Se151  1  0.08402372  0.25108531  0.44382775  1
  Se  Se152  1  0.08523465  0.24999436  0.94807696  1
  Se  Se153  1  0.06885371  0.58845153  0.44160165  1
  Se  Se154  1  0.08715521  0.58008741  0.94538890  1
  Se  Se155  1  0.08394936  0.91843286  0.44653679  1
  Se  Se156  1  0.07355273  0.92478788  0.93849496  1
  Se  Se157  1  0.41761855  0.25338521  0.43542238  1
  Se  Se158  1  0.40984068  0.25524765  0.94130653  1
  Se  Se159  1  0.40768431  0.59298218  0.44231781  1
  Se  Se160  1  0.42238318  0.58503332  0.94246342  1
  Se  Se161  1  0.42553918  0.91450420  0.44871780  1
  Se  Se162  1  0.39101313  0.93876856  0.94536340  1
  Se  Se163  1  0.75543363  0.24204337  0.44454515  1
  Se  Se164  1  0.74707658  0.24742664  0.95128550  1
  Se  Se165  1  0.74114729  0.58234773  0.45234236  1
  Se  Se166  1  0.75388651  0.58362038  0.94938425  1
  Se  Se167  1  0.75136174  0.92185640  0.43625821  1
  Se  Se168  1  0.74944052  0.91474826  0.94318839  1
  Se  Se169  1  0.25387100  0.08629466  0.44796334  1
  Se  Se170  1  0.24030650  0.09200931  0.96259900  1
  Se  Se171  1  0.24920896  0.41060284  0.43315269  1
  Se  Se172  1  0.25144400  0.41997462  0.94937758  1
  Se  Se173  1  0.25068919  0.75294146  0.44985241  1
  Se  Se174  1  0.25053387  0.74592879  0.93499493  1
  Se  Se175  1  0.59046600  0.07724584  0.43892118  1
  Se  Se176  1  0.58580621  0.07935472  0.93882572  1
  Se  Se177  1  0.58797068  0.40297348  0.43833795  1
  Se  Se178  1  0.58222205  0.41794699  0.95621638  1
  Se  Se179  1  0.58801251  0.75379379  0.45159907  1
  Se  Se180  1  0.58012889  0.75415590  0.94181400  1
  Se  Se181  1  0.91516841  0.08578351  0.44518071  1
  Se  Se182  1  0.91147614  0.08987124  0.94422909  1
  Se  Se183  1  0.91347482  0.41624521  0.44347644  1
  Se  Se184  1  0.91779649  0.41495266  0.94815144  1
  Se  Se185  1  0.92415618  0.74535498  0.43895904  1
  Se  Se186  1  0.91788292  0.75113548  0.94790411  1
  Se  Se187  1  0.24991523  0.25246563  0.29690171  1
  Se  Se188  1  0.24657923  0.24316387  0.81378767  1
  Se  Se189  1  0.23900501  0.57859303  0.30775079  1
  Se  Se190  1  0.25078122  0.58180202  0.80229856  1
  Se  Se191  1  0.25005831  0.91536126  0.31301402  1
  Se  Se192  1  0.24509100  0.90570971  0.81358502  1
  Se  Se193  1  0.58800853  0.24877418  0.29723053  1
  Se  Se194  1  0.57636641  0.24528313  0.80632798  1
  Se  Se195  1  0.56923021  0.57175338  0.30895181  1
  Se  Se196  1  0.59110333  0.58335218  0.80700347  1
  Se  Se197  1  0.59147776  0.91636978  0.29799409  1
  Se  Se198  1  0.58367637  0.91561929  0.80078350  1
  Se  Se199  1  0.91917097  0.24917763  0.30311567  1
  Se  Se200  1  0.91907757  0.25467091  0.80426886  1
  Se  Se201  1  0.90421076  0.57621872  0.31087159  1
  Se  Se202  1  0.92139175  0.58378765  0.80868380  1
  Se  Se203  1  0.91859590  0.91737790  0.29679033  1
  Se  Se204  1  0.90964516  0.91105436  0.81296121  1
  Se  Se205  1  0.08374247  0.08328121  0.30590437  1
  Se  Se206  1  0.09035742  0.08265255  0.81291869  1
  Se  Se207  1  0.07803841  0.41588792  0.29378859  1
  Se  Se208  1  0.08120157  0.41191769  0.80543205  1
  Se  Se209  1  0.09258580  0.75777922  0.30965244  1
  Se  Se210  1  0.08081250  0.74685747  0.79657583  1
  Se  Se211  1  0.42691576  0.09029662  0.31158753  1
  Se  Se212  1  0.42516988  0.08866967  0.81359127  1
  Se  Se213  1  0.40928975  0.41551173  0.29413024  1
  Se  Se214  1  0.42281204  0.41877027  0.81202015  1
  Se  Se215  1  0.42614884  0.75655072  0.30835859  1
  Se  Se216  1  0.41770426  0.74852659  0.79872784  1
  Se  Se217  1  0.75123410  0.08237811  0.30016866  1
  Se  Se218  1  0.74887812  0.08699011  0.80037984  1
  Se  Se219  1  0.74693996  0.41097114  0.30561462  1
  Se  Se220  1  0.75526703  0.42131123  0.81867227  1
  Se  Se221  1  0.75871443  0.75528976  0.30548539  1
  Se  Se222  1  0.75250429  0.74618491  0.80782749  1
  Se  Se223  1  0.24161780  0.08900274  0.18777892  1
  Se  Se224  1  0.24360888  0.08849643  0.69415049  1
  Se  Se225  1  0.25220159  0.41805766  0.18914532  1
  Se  Se226  1  0.23994709  0.42269796  0.68683102  1
  Se  Se227  1  0.23872556  0.76229761  0.19663233  1
  Se  Se228  1  0.25392252  0.74538587  0.69389741  1
  Se  Se229  1  0.58860559  0.07763726  0.19642136  1
  Se  Se230  1  0.58135033  0.09258836  0.69881278  1
  Se  Se231  1  0.59237127  0.41945338  0.19990861  1
  Se  Se232  1  0.57555967  0.42266391  0.69034661  1
  Se  Se233  1  0.57862900  0.75314522  0.18857790  1
  Se  Se234  1  0.60010616  0.73278822  0.70175842  1
  Se  Se235  1  0.91672568  0.08032322  0.19290210  1
  Se  Se236  1  0.91132576  0.08905237  0.68906428  1
  Se  Se237  1  0.92012817  0.41149055  0.19700649  1
  Se  Se238  1  0.91578176  0.41562837  0.69990600  1
  Se  Se239  1  0.90984263  0.75115047  0.18665763  1
  Se  Se240  1  0.91798075  0.75230592  0.69867267  1
  Se  Se241  1  0.07888517  0.25167008  0.19313070  1
  Se  Se242  1  0.07857538  0.25243975  0.69930773  1
  Se  Se243  1  0.08625268  0.58217313  0.18737297  1
  Se  Se244  1  0.08184632  0.58119538  0.69785054  1
  Se  Se245  1  0.08075085  0.91492049  0.20590542  1
  Se  Se246  1  0.09328071  0.91282955  0.68930915  1
  Se  Se247  1  0.41659011  0.24994844  0.19849354  1
  Se  Se248  1  0.42355426  0.23529151  0.69665634  1
  Se  Se249  1  0.42272002  0.57984791  0.18601973  1
  Se  Se250  1  0.41121872  0.58034373  0.70528015  1
  Se  Se251  1  0.42360141  0.90768238  0.19269597  1
  Se  Se252  1  0.41990099  0.90891810  0.68851872  1
  Se  Se253  1  0.75126154  0.25026875  0.19607757  1
  Se  Se254  1  0.75914278  0.24914275  0.68687259  1
  Se  Se255  1  0.75833873  0.57690689  0.18996662  1
  Se  Se256  1  0.75104399  0.58116452  0.70372232  1
  Se  Se257  1  0.74694100  0.91794962  0.18803057  1
  Se  Se258  1  0.74775836  0.92064891  0.70197889  1
