# generated using pymatgen
data_In86Cu29Se144
_symmetry_space_group_name_H-M   'P 1'
_cell_length_a   17.58809817
_cell_length_b   17.58929278
_cell_length_c   23.45241285
_cell_angle_alpha   90.00312651
_cell_angle_beta   89.97843667
_cell_angle_gamma   89.99879425
_symmetry_Int_Tables_number   1
_chemical_formula_structural   In86Cu29Se144
_chemical_formula_sum   'In86 Cu29 Se144'
_cell_volume   7255.28970203
_cell_formula_units_Z   1
loop_
 _symmetry_equiv_pos_site_id
 _symmetry_equiv_pos_as_xyz
  1  'x, y, z'
loop_
 _atom_site_type_symbol
 _atom_site_label
 _atom_site_symmetry_multiplicity
 _atom_site_fract_x
 _atom_site_fract_y
 _atom_site_fract_z
 _atom_site_occupancy
  In  In0  1  -0.01046773  0.17509153  0.13828355  1
  In  In1  1  -0.01770327  0.14929291  0.60582606  1
  In  In2  1  0.00931500  0.49775473  0.13524886  1
  In  In3  1  0.00306269  0.49598129  0.61613212  1
  In  In4  1  0.00232962  0.82993074  0.13005634  1
  In  In5  1  -0.00018972  0.83618579  0.62115936  1
  In  In6  1  0.33151759  0.15659284  0.12387357  1
  In  In7  1  0.33818575  0.17240020  0.61478110  1
  In  In8  1  0.32792061  0.51590617  0.13290953  1
  In  In9  1  0.34018754  0.50630740  0.61559914  1
  In  In10  1  0.31217253  0.82683176  0.12227779  1
  In  In11  1  0.31405480  0.82855040  0.62379819  1
  In  In12  1  0.67838184  0.16608378  0.12166719  1
  In  In13  1  0.66965918  0.16383309  0.62516089  1
  In  In14  1  0.66475113  0.49839422  0.13332217  1
  In  In15  1  0.66793914  0.52174269  0.61235309  1
  In  In16  1  0.67479553  0.81810594  0.12339463  1
  In  In17  1  0.68134769  0.82353251  0.63486369  1
  In  In18  1  0.14769168  0.01207833  0.38307850  1
  In  In19  1  0.14521457  -0.00339471  0.87005633  1
  In  In20  1  0.15607097  0.33655777  0.37045654  1
  In  In21  1  0.17098467  0.33932776  0.87950110  1
  In  In22  1  0.16247978  0.66347412  0.37398041  1
  In  In23  1  0.16707440  0.66808951  0.88200217  1
  In  In24  1  0.50907183  0.00447619  0.38176423  1
  In  In25  1  0.51502317  -0.00008120  0.87423734  1
  In  In26  1  0.50814816  0.32862985  0.37895633  1
  In  In27  1  0.49114122  0.33382292  0.87722781  1
  In  In28  1  0.49433852  0.65469691  0.37217050  1
  In  In29  1  0.50826164  0.67921575  0.86477375  1
  In  In30  1  0.84903806  -0.01297886  0.38404703  1
  In  In31  1  0.83865418  -0.00355236  0.87415411  1
  In  In32  1  0.83205410  0.33244472  0.37230408  1
  In  In33  1  0.82369576  0.32831919  0.87671182  1
  In  In34  1  0.84093468  0.67267461  0.37125649  1
  In  In35  1  0.84171781  0.70575247  0.87092104  1
  In  In36  1  -0.00098626  0.16408789  0.37139094  1
  In  In37  1  -0.00540295  0.14724694  0.87091698  1
  In  In38  1  0.02860442  0.51759694  0.34873686  1
  In  In39  1  0.00117162  0.51946721  0.88555440  1
  In  In40  1  -0.00404674  0.83074599  0.37598912  1
  In  In41  1  -0.01327050  0.84186810  0.89616408  1
  In  In42  1  0.33200851  0.16847624  0.38267631  1
  In  In43  1  0.33317818  0.18292875  0.87700835  1
  In  In44  1  0.30944964  0.51784963  0.38198853  1
  In  In45  1  0.32023893  0.50801557  0.88119856  1
  In  In46  1  0.32654765  0.81291778  0.37202268  1
  In  In47  1  0.33547165  0.81918406  0.87363168  1
  In  In48  1  0.66403813  0.17416536  0.38325147  1
  In  In49  1  0.68666981  0.14650426  0.88704070  1
  In  In50  1  0.66629149  0.49418383  0.37235313  1
  In  In51  1  0.65817605  0.50737376  0.87507418  1
  In  In52  1  0.68304630  0.82720295  0.38013973  1
  In  In53  1  0.69743394  0.86435789  0.84299152  1
  In  In54  1  0.16163360  -0.01189831  0.12901068  1
  In  In55  1  0.15101107  -0.01236661  0.61469912  1
  In  In56  1  0.14572145  0.33654467  0.13759652  1
  In  In57  1  0.16795056  0.33588444  0.61264286  1
  In  In58  1  0.16545311  0.66755970  0.13308191  1
  In  In59  1  0.16871078  0.67672714  0.61700617  1
  In  In60  1  0.48927930  0.00407399  0.12192349  1
  In  In61  1  0.50625315  0.01587997  0.62460672  1
  In  In62  1  0.51266407  0.32987557  0.12982277  1
  In  In63  1  0.50012447  0.33438792  0.61546876  1
  In  In64  1  0.50860759  0.65887406  0.13270174  1
  In  In65  1  0.50648927  0.65857015  0.62248899  1
  In  In66  1  0.84467065  -0.00048663  0.11923254  1
  In  In67  1  0.83246916  0.00130397  0.63075451  1
  In  In68  1  0.84049240  0.32407260  0.13374041  1
  In  In69  1  0.84424121  0.32542590  0.62300089  1
  In  In70  1  0.83167660  0.67035691  0.12865213  1
  In  In71  1  0.82618394  0.67600110  0.61893306  1
  In  In72  1  0.16163029  0.16742884  0.00069061  1
  In  In73  1  0.84400360  0.50228569  0.49285369  1
  In  In74  1  0.50132680  0.83484099  0.49786135  1
  In  In75  1  0.50368188  0.83371581  -0.00304043  1
  In  In76  1  0.83783664  0.50313307  0.00941126  1
  In  In77  1  0.33119372  0.00075178  0.74393436  1
  In  In78  1  0.66842839  -0.00344532  0.25758517  1
  In  In79  1  0.66045104  0.33196960  0.74210291  1
  In  In80  1  0.33185425  0.33584700  0.26174333  1
  In  In81  1  0.33138028  0.33928466  0.75355104  1
  In  In82  1  0.49805896  0.49993551  0.00683288  1
  In  In83  1  -0.00236041  0.67506326  0.74733083  1
  In  In84  1  0.00227254  0.32987958  0.75225295  1
  In  In85  1  0.32953217  -0.00825799  0.24604718  1
  Cu  Cu86  1  0.33474683  0.33040284  0.49134521  1
  Cu  Cu87  1  0.33083034  -0.00157641  0.50401491  1
  Cu  Cu88  1  0.68115651  0.67465591  -0.00608268  1
  Cu  Cu89  1  0.33418363  0.00929071  -0.00112822  1
  Cu  Cu90  1  0.82741876  0.50911686  0.74684030  1
  Cu  Cu91  1  0.50601366  0.16864304  0.75370419  1
  Cu  Cu92  1  0.15577269  0.16055449  0.73893653  1
  Cu  Cu93  1  0.83136607  0.49962440  0.25223811  1
  Cu  Cu94  1  0.50222808  0.49682101  0.25494434  1
  Cu  Cu95  1  0.00422859  0.33562420  0.49058151  1
  Cu  Cu96  1  -0.00137382  -0.00482044  0.00251716  1
  Cu  Cu97  1  0.32619666  0.66339822  0.49746770  1
  Cu  Cu98  1  0.82827912  0.16546611  0.25262300  1
  Cu  Cu99  1  0.49570583  0.82895542  0.74400943  1
  Cu  Cu100  1  -0.00031575  -0.00049248  0.49907750  1
  Cu  Cu101  1  0.50317496  0.16791322  0.25480452  1
  Cu  Cu102  1  0.33194306  0.66757424  0.00318461  1
  Cu  Cu103  1  0.67070814  -0.00261743  -0.00455615  1
  Cu  Cu104  1  0.16175700  0.83088024  0.74597181  1
  Cu  Cu105  1  0.16125886  0.83084749  0.25253828  1
  Cu  Cu106  1  0.66781995  0.31953171  0.00434215  1
  Cu  Cu107  1  -0.00576989  0.32965686  0.00888833  1
  Cu  Cu108  1  0.83793117  0.83222169  0.25374382  1
  Cu  Cu109  1  0.50138645  0.82042090  0.25047464  1
  Cu  Cu110  1  0.67023372  0.00512308  0.50410703  1
  Cu  Cu111  1  0.49741650  0.51359296  0.74257238  1
  Cu  Cu112  1  0.17071758  0.50916153  0.75283018  1
  Cu  Cu113  1  0.33265372  0.33210711  0.00343912  1
  Cu  Cu114  1  0.67111395  0.33306369  0.49957817  1
  Se  Se115  1  0.07439118  0.08003691  0.06354908  1
  Se  Se116  1  0.08913906  0.08644247  0.54610738  1
  Se  Se117  1  0.07947665  0.41356022  0.05781968  1
  Se  Se118  1  0.08559812  0.41983717  0.54522991  1
  Se  Se119  1  0.10994183  0.77261049  0.06743308  1
  Se  Se120  1  0.07965548  0.75270391  0.55276498  1
  Se  Se121  1  0.41936160  0.09086672  0.04934922  1
  Se  Se122  1  0.41921092  0.08264780  0.55067492  1
  Se  Se123  1  0.40916482  0.41055406  0.06794715  1
  Se  Se124  1  0.41392134  0.41398736  0.54892981  1
  Se  Se125  1  0.41808209  0.74383434  0.06245366  1
  Se  Se126  1  0.40725348  0.74618463  0.55699393  1
  Se  Se127  1  0.75317913  0.07727530  0.05364795  1
  Se  Se128  1  0.75633985  0.08678780  0.55641461  1
  Se  Se129  1  0.74339574  0.40799043  0.06205736  1
  Se  Se130  1  0.75269465  0.41415730  0.55933350  1
  Se  Se131  1  0.76389577  0.75396759  0.04976549  1
  Se  Se132  1  0.74097848  0.75199611  0.55015493  1
  Se  Se133  1  0.24826078  0.25686263  0.06446290  1
  Se  Se134  1  0.25097423  0.24951101  0.54767910  1
  Se  Se135  1  0.24838185  0.58704001  0.05811581  1
  Se  Se136  1  0.24337565  0.58027016  0.55252514  1
  Se  Se137  1  0.25327204  0.92706226  0.05419229  1
  Se  Se138  1  0.24484960  0.91183163  0.54956018  1
  Se  Se139  1  0.58078604  0.24143790  0.05789657  1
  Se  Se140  1  0.58938240  0.24917497  0.55564008  1
  Se  Se141  1  0.59990042  0.59324839  0.05372832  1
  Se  Se142  1  0.56930477  0.57710763  0.54405688  1
  Se  Se143  1  0.59224724  0.92237103  0.06220019  1
  Se  Se144  1  0.58925345  0.92154809  0.56183654  1
  Se  Se145  1  0.91242843  0.24286957  0.05780961  1
  Se  Se146  1  0.91780650  0.25502163  0.54407678  1
  Se  Se147  1  0.93121276  0.59085307  0.06490878  1
  Se  Se148  1  0.92602319  0.59617833  0.55613348  1
  Se  Se149  1  0.91865471  0.90576598  0.05423002  1
  Se  Se150  1  0.91470529  0.92255453  0.55709352  1
  Se  Se151  1  0.08506725  0.24585499  0.44077480  1
  Se  Se152  1  0.06989832  0.25497730  0.93807310  1
  Se  Se153  1  0.08227497  0.57457585  0.44027240  1
  Se  Se154  1  0.10284406  0.57181053  0.95138546  1
  Se  Se155  1  0.08100904  0.91193634  0.44708346  1
  Se  Se156  1  0.09053280  0.91702100  0.95272980  1
  Se  Se157  1  0.42445405  0.24513585  0.44690409  1
  Se  Se158  1  0.41811465  0.25144467  0.95131784  1
  Se  Se159  1  0.41274214  0.58081201  0.44672595  1
  Se  Se160  1  0.41881657  0.59460263  0.94214680  1
  Se  Se161  1  0.40571115  0.92017198  0.43682023  1
  Se  Se162  1  0.40993111  0.92508092  0.93756340  1
  Se  Se163  1  0.75677963  0.25185075  0.44763606  1
  Se  Se164  1  0.75786536  0.24391472  0.95200934  1
  Se  Se165  1  0.74745308  0.58810805  0.43808573  1
  Se  Se166  1  0.75620589  0.58655906  0.93663838  1
  Se  Se167  1  0.74912486  0.91998506  0.44928440  1
  Se  Se168  1  0.74908135  0.91119719  0.94030800  1
  Se  Se169  1  0.24987406  0.08003891  0.44635827  1
  Se  Se170  1  0.25031103  0.08076323  0.93451095  1
  Se  Se171  1  0.24618340  0.41023354  0.44055978  1
  Se  Se172  1  0.25070029  0.41742843  0.95163293  1
  Se  Se173  1  0.24207793  0.74810786  0.44728612  1
  Se  Se174  1  0.25196887  0.75401917  0.94946600  1
  Se  Se175  1  0.58401131  0.08753496  0.45238208  1
  Se  Se176  1  0.58168219  0.08328924  0.95023958  1
  Se  Se177  1  0.58781841  0.41599467  0.44704556  1
  Se  Se178  1  0.59150561  0.40729286  0.94668962  1
  Se  Se179  1  0.58575566  0.74132082  0.43897577  1
  Se  Se180  1  0.59754392  0.75325449  0.93541881  1
  Se  Se181  1  0.91768461  0.08715519  0.44707478  1
  Se  Se182  1  0.91629522  0.07917491  0.94855261  1
  Se  Se183  1  0.93218839  0.41995185  0.42781870  1
  Se  Se184  1  0.92104264  0.41038195  0.94167470  1
  Se  Se185  1  0.89867899  0.76597224  0.44448516  1
  Se  Se186  1  0.94332556  0.71920821  0.94774424  1
  Se  Se187  1  0.24238968  0.23536616  0.30880827  1
  Se  Se188  1  0.23224221  0.24136105  0.80235424  1
  Se  Se189  1  0.24671605  0.58858860  0.30010159  1
  Se  Se190  1  0.25098896  0.59199728  0.80736594  1
  Se  Se191  1  0.24190247  0.91156795  0.31344617  1
  Se  Se192  1  0.24442071  0.91139465  0.80768216  1
  Se  Se193  1  0.58839659  0.24976932  0.30567544  1
  Se  Se194  1  0.58318153  0.24775087  0.81596566  1
  Se  Se195  1  0.58768053  0.58300418  0.30404773  1
  Se  Se196  1  0.58560039  0.58629699  0.80009879  1
  Se  Se197  1  0.57475431  0.90288450  0.31290285  1
  Se  Se198  1  0.57487408  0.91806567  0.79545023  1
  Se  Se199  1  0.91433724  0.24877632  0.30364712  1
  Se  Se200  1  0.90721121  0.24195315  0.80820223  1
  Se  Se201  1  0.91559324  0.58693235  0.29944244  1
  Se  Se202  1  0.90851185  0.58311170  0.81032751  1
  Se  Se203  1  0.92081282  0.91890686  0.30283279  1
  Se  Se204  1  0.91696257  0.90052502  0.81227853  1
  Se  Se205  1  0.07591641  0.07618744  0.30190186  1
  Se  Se206  1  0.07551439  0.07769551  0.79408062  1
  Se  Se207  1  0.07964165  0.40321987  0.29101537  1
  Se  Se208  1  0.08782318  0.42876942  0.81085717  1
  Se  Se209  1  0.07796709  0.74834139  0.30632195  1
  Se  Se210  1  0.08467434  0.75834267  0.81375347  1
  Se  Se211  1  0.42139748  0.08265858  0.30824714  1
  Se  Se212  1  0.41698464  0.09145652  0.80973022  1
  Se  Se213  1  0.42067720  0.42635582  0.31996421  1
  Se  Se214  1  0.42392655  0.43436679  0.80892433  1
  Se  Se215  1  0.41475798  0.74068930  0.30261266  1
  Se  Se216  1  0.41200538  0.74685175  0.79703421  1
  Se  Se217  1  0.75633950  0.08505064  0.31833664  1
  Se  Se218  1  0.74843764  0.07402451  0.80630328  1
  Se  Se219  1  0.74859790  0.41321607  0.30232735  1
  Se  Se220  1  0.75140939  0.42423537  0.80566160  1
  Se  Se221  1  0.74936844  0.74885362  0.30125363  1
  Se  Se222  1  0.73353547  0.73397575  0.80177815  1
  Se  Se223  1  0.23857420  0.08899704  0.19461287  1
  Se  Se224  1  0.24416007  0.08832166  0.68068339  1
  Se  Se225  1  0.24577781  0.42135626  0.19588890  1
  Se  Se226  1  0.24277274  0.42432380  0.69015905  1
  Se  Se227  1  0.25244585  0.74967295  0.20371978  1
  Se  Se228  1  0.24546191  0.74392002  0.69847143  1
  Se  Se229  1  0.57810086  0.08326219  0.19328454  1
  Se  Se230  1  0.58807892  0.08707982  0.69947159  1
  Se  Se231  1  0.58522549  0.41303462  0.20224812  1
  Se  Se232  1  0.57580468  0.42953713  0.68498049  1
  Se  Se233  1  0.59193441  0.74594752  0.19712390  1
  Se  Se234  1  0.58058978  0.74599808  0.69237446  1
  Se  Se235  1  0.90884163  0.07965013  0.19869646  1
  Se  Se236  1  0.92251370  0.08772652  0.69257535  1
  Se  Se237  1  0.91533783  0.41742807  0.19739200  1
  Se  Se238  1  0.91163577  0.42695355  0.69320031  1
  Se  Se239  1  0.91823129  0.74730779  0.19850516  1
  Se  Se240  1  0.90336278  0.76318660  0.69220636  1
  Se  Se241  1  0.08442976  0.24128368  0.20534627  1
  Se  Se242  1  0.08305796  0.24821822  0.68087319  1
  Se  Se243  1  0.08779076  0.58323076  0.20306857  1
  Se  Se244  1  0.08514085  0.57872269  0.69014362  1
  Se  Se245  1  0.07837851  0.91778437  0.20270923  1
  Se  Se246  1  0.07979038  0.91629431  0.69516979  1
  Se  Se247  1  0.41753814  0.24330076  0.19481050  1
  Se  Se248  1  0.42364150  0.24768692  0.69449137  1
  Se  Se249  1  0.42161610  0.58250684  0.20126080  1
  Se  Se250  1  0.40824802  0.59060760  0.69086933  1
  Se  Se251  1  0.42394746  0.90059692  0.18815774  1
  Se  Se252  1  0.41961936  0.91090473  0.68210957  1
  Se  Se253  1  0.74508146  0.24817492  0.19872664  1
  Se  Se254  1  0.76289549  0.24393350  0.69536339  1
  Se  Se255  1  0.75030537  0.58361202  0.19590898  1
  Se  Se256  1  0.74849728  0.58939454  0.68951901  1
  Se  Se257  1  0.75556797  0.91113074  0.19220328  1
  Se  Se258  1  0.74115235  0.92612049  0.69852892  1
