# generated using pymatgen
data_In86Cu29Se144
_symmetry_space_group_name_H-M   'P 1'
_cell_length_a   17.58846067
_cell_length_b   17.58738999
_cell_length_c   23.45533918
_cell_angle_alpha   89.97839424
_cell_angle_beta   89.98876526
_cell_angle_gamma   90.00273545
_symmetry_Int_Tables_number   1
_chemical_formula_structural   In86Cu29Se144
_chemical_formula_sum   'In86 Cu29 Se144'
_cell_volume   7255.55942800
_cell_formula_units_Z   1
loop_
 _symmetry_equiv_pos_site_id
 _symmetry_equiv_pos_as_xyz
  1  'x, y, z'
loop_
 _atom_site_type_symbol
 _atom_site_label
 _atom_site_symmetry_multiplicity
 _atom_site_fract_x
 _atom_site_fract_y
 _atom_site_fract_z
 _atom_site_occupancy
  In  In0  1  0.00751690  0.14622767  0.12965099  1
  In  In1  1  0.01655889  0.17262295  0.61851932  1
  In  In2  1  0.00317537  0.51514396  0.12366376  1
  In  In3  1  0.01705480  0.48517767  0.63378961  1
  In  In4  1  0.02109174  0.82330630  0.14064421  1
  In  In5  1  0.00681327  0.81924396  0.63129739  1
  In  In6  1  0.33407057  0.18007223  0.12754684  1
  In  In7  1  0.33423192  0.16534957  0.62351062  1
  In  In8  1  0.33496622  0.50170182  0.13608212  1
  In  In9  1  0.32010998  0.48814153  0.61708196  1
  In  In10  1  0.33240159  0.82209892  0.11927180  1
  In  In11  1  0.33630150  0.83798569  0.61789953  1
  In  In12  1  0.67680692  0.16784487  0.14137936  1
  In  In13  1  0.65885404  0.17400662  0.62812449  1
  In  In14  1  0.66635240  0.48362957  0.12381414  1
  In  In15  1  0.65152456  0.49717665  0.62086616  1
  In  In16  1  0.66609289  0.84088228  0.12305709  1
  In  In17  1  0.65926429  0.84590491  0.62639899  1
  In  In18  1  0.16865744  0.00020872  0.37805808  1
  In  In19  1  0.17877743  -0.01036834  0.88001888  1
  In  In20  1  0.17218252  0.32100971  0.38837218  1
  In  In21  1  0.16090979  0.32777352  0.86805558  1
  In  In22  1  0.16495496  0.66831508  0.37428271  1
  In  In23  1  0.16605789  0.69727177  0.87164749  1
  In  In24  1  0.50185005  -0.00747025  0.37721068  1
  In  In25  1  0.48668447  -0.00741082  0.86471553  1
  In  In26  1  0.49542815  0.33486059  0.38026338  1
  In  In27  1  0.49373550  0.32871413  0.86334069  1
  In  In28  1  0.48036604  0.68408724  0.38189404  1
  In  In29  1  0.50168643  0.67572528  0.88253164  1
  In  In30  1  0.82691992  0.00175327  0.36250231  1
  In  In31  1  0.83304331  0.01401853  0.87306428  1
  In  In32  1  0.83229223  0.33980156  0.37348405  1
  In  In33  1  0.83852336  0.34005583  0.86810184  1
  In  In34  1  0.85069883  0.66239977  0.36867801  1
  In  In35  1  0.82864514  0.64817812  0.88235152  1
  In  In36  1  0.01629334  0.16844483  0.37908056  1
  In  In37  1  0.00029192  0.17742218  0.87350915  1
  In  In38  1  0.00184341  0.51012314  0.37456163  1
  In  In39  1  -0.00470040  0.49690811  0.87004292  1
  In  In40  1  0.01342906  0.84458149  0.36105013  1
  In  In41  1  0.02034994  0.83193008  0.87164865  1
  In  In42  1  0.32573990  0.17629547  0.38333014  1
  In  In43  1  0.32493776  0.15652965  0.86744947  1
  In  In44  1  0.33083575  0.50153600  0.37723101  1
  In  In45  1  0.33893409  0.49659378  0.86995667  1
  In  In46  1  0.33341206  0.82503315  0.37242824  1
  In  In47  1  0.31665363  0.84428552  0.88946614  1
  In  In48  1  0.65465825  0.15387741  0.36754661  1
  In  In49  1  0.66307313  0.16501157  0.86465848  1
  In  In50  1  0.66519296  0.48720370  0.37484255  1
  In  In51  1  0.67473004  0.49975454  0.87577265  1
  In  In52  1  0.64771657  0.83977488  0.36646288  1
  In  In53  1  0.64739836  0.83124702  0.87746571  1
  In  In54  1  0.16663040  -0.01064473  0.12276861  1
  In  In55  1  0.17736129  0.00744729  0.61789462  1
  In  In56  1  0.18087421  0.33766256  0.12605031  1
  In  In57  1  0.16797786  0.33422615  0.62503103  1
  In  In58  1  0.17233906  0.67242675  0.13041419  1
  In  In59  1  0.16456536  0.65955441  0.62048851  1
  In  In60  1  0.51091081  -0.00237301  0.12649213  1
  In  In61  1  0.49655443  0.00073124  0.62108979  1
  In  In62  1  0.50265494  0.33469032  0.13678011  1
  In  In63  1  0.49866891  0.33066223  0.62275473  1
  In  In64  1  0.48718263  0.67361159  0.12954494  1
  In  In65  1  0.49449605  0.66362785  0.61311869  1
  In  In66  1  0.83937624  0.00305672  0.13497327  1
  In  In67  1  0.82584652  -0.01038398  0.62856051  1
  In  In68  1  0.82166097  0.32542417  0.12379871  1
  In  In69  1  0.83561100  0.33034880  0.63220883  1
  In  In70  1  0.84785237  0.67007235  0.12044777  1
  In  In71  1  0.83992083  0.67208198  0.62673395  1
  In  In72  1  0.83813616  0.16640012  0.00399479  1
  In  In73  1  0.50221576  0.50681374  0.00087212  1
  In  In74  1  0.66740511  0.66398870  0.25095129  1
  In  In75  1  0.83801305  0.50088772  0.49335601  1
  In  In76  1  0.50030734  0.16559134  0.00527859  1
  In  In77  1  0.83050796  0.83235793  0.50288402  1
  In  In78  1  0.83495483  0.16623738  0.50224248  1
  In  In79  1  0.33242342  -0.00726951  0.25448840  1
  In  In80  1  0.00131941  0.33190640  0.25802125  1
  In  In81  1  0.32899778  0.66480952  0.74998240  1
  In  In82  1  0.16645491  0.50748191  0.00350907  1
  In  In83  1  0.83801714  0.83587902  0.00692898  1
  In  In84  1  0.00016337  0.00589866  0.74554228  1
  In  In85  1  0.66529785  0.66501369  0.75872692  1
  Cu  Cu86  1  0.16910353  0.16603055  0.25793997  1
  Cu  Cu87  1  0.49533642  0.49082527  0.74485173  1
  Cu  Cu88  1  -0.00080911  0.33432586  -0.00801334  1
  Cu  Cu89  1  0.32952493  0.66821104  0.49724885  1
  Cu  Cu90  1  0.17622796  0.50300568  0.25235980  1
  Cu  Cu91  1  0.66350367  -0.00141299  -0.00117905  1
  Cu  Cu92  1  0.00865137  0.66621495  0.49966338  1
  Cu  Cu93  1  0.16928173  0.16921806  0.74553748  1
  Cu  Cu94  1  0.49982632  0.16468539  0.74210969  1
  Cu  Cu95  1  0.49901052  0.50114185  0.25574198  1
  Cu  Cu96  1  0.33240612  -0.00385683  -0.00396389  1
  Cu  Cu97  1  0.82787361  0.16885108  0.74877345  1
  Cu  Cu98  1  0.83310228  0.83301135  0.75028687  1
  Cu  Cu99  1  0.83072601  0.49979369  0.75112788  1
  Cu  Cu100  1  0.83565825  0.49592394  0.24828972  1
  Cu  Cu101  1  0.66304509  0.32997774  0.50034394  1
  Cu  Cu102  1  0.83492452  0.83289442  0.24365062  1
  Cu  Cu103  1  0.00331788  0.66998476  0.00111130  1
  Cu  Cu104  1  0.49517911  0.17439730  0.25396551  1
  Cu  Cu105  1  0.67045359  0.33439196  -0.00045784  1
  Cu  Cu106  1  0.01592832  -0.00593660  0.00490948  1
  Cu  Cu107  1  0.00537688  -0.00348371  0.49718428  1
  Cu  Cu108  1  0.65554660  -0.00237553  0.49692105  1
  Cu  Cu109  1  0.33276448  0.33249660  0.00127773  1
  Cu  Cu110  1  0.16053929  0.49974921  0.74606171  1
  Cu  Cu111  1  0.49576333  0.83646902  0.74690476  1
  Cu  Cu112  1  0.33381123  0.00183295  0.49728497  1
  Cu  Cu113  1  0.65771907  0.66755583  0.49369303  1
  Cu  Cu114  1  0.33642463  0.33436069  0.50329116  1
  Se  Se115  1  0.09494602  0.08516982  0.05415783  1
  Se  Se116  1  0.08641117  0.08274561  0.54922586  1
  Se  Se117  1  0.07692773  0.41016351  0.05914370  1
  Se  Se118  1  0.09080884  0.42082785  0.55469304  1
  Se  Se119  1  0.08601503  0.74874329  0.05808249  1
  Se  Se120  1  0.08729583  0.75291776  0.55371713  1
  Se  Se121  1  0.40660041  0.07502911  0.06224000  1
  Se  Se122  1  0.41633741  0.08479553  0.55176719  1
  Se  Se123  1  0.41385196  0.41063108  0.06099728  1
  Se  Se124  1  0.42087386  0.41959062  0.55420686  1
  Se  Se125  1  0.42565981  0.75307101  0.05049709  1
  Se  Se126  1  0.41554381  0.75229911  0.54858705  1
  Se  Se127  1  0.74172580  0.07771988  0.06005943  1
  Se  Se128  1  0.74134563  0.07252643  0.55735285  1
  Se  Se129  1  0.75618377  0.41595156  0.05072876  1
  Se  Se130  1  0.74811997  0.41116656  0.55669307  1
  Se  Se131  1  0.74409464  0.74243377  0.05876077  1
  Se  Se132  1  0.73639025  0.74062843  0.56034525  1
  Se  Se133  1  0.24820464  0.24907146  0.05270667  1
  Se  Se134  1  0.25146270  0.25094179  0.55638505  1
  Se  Se135  1  0.26361049  0.58924307  0.06100168  1
  Se  Se136  1  0.24851056  0.58191881  0.55043076  1
  Se  Se137  1  0.25211162  0.91261409  0.05322778  1
  Se  Se138  1  0.24966509  0.91666135  0.54870109  1
  Se  Se139  1  0.59315218  0.25574072  0.06301258  1
  Se  Se140  1  0.57982619  0.24573260  0.55215738  1
  Se  Se141  1  0.58818351  0.58797478  0.06812157  1
  Se  Se142  1  0.58013618  0.58011742  0.54717925  1
  Se  Se143  1  0.58074662  0.91505225  0.05053441  1
  Se  Se144  1  0.57574591  0.91172581  0.55099386  1
  Se  Se145  1  0.93042915  0.25498255  0.06225603  1
  Se  Se146  1  0.92424048  0.26186071  0.55617509  1
  Se  Se147  1  0.91820195  0.58227360  0.04781157  1
  Se  Se148  1  0.92409061  0.58787763  0.55852167  1
  Se  Se149  1  0.93016600  0.92197655  0.06679968  1
  Se  Se150  1  0.92627190  0.92069939  0.56144834  1
  Se  Se151  1  0.08222376  0.24667198  0.45566856  1
  Se  Se152  1  0.08622550  0.24990258  0.94523986  1
  Se  Se153  1  0.08841440  0.57993768  0.44668007  1
  Se  Se154  1  0.08047058  0.59158588  0.93625171  1
  Se  Se155  1  0.08502952  0.91067149  0.44372442  1
  Se  Se156  1  0.09194443  0.90911994  0.94856795  1
  Se  Se157  1  0.41855607  0.24867018  0.45090055  1
  Se  Se158  1  0.41130851  0.25136614  0.94092977  1
  Se  Se159  1  0.41562535  0.58370711  0.44680705  1
  Se  Se160  1  0.40391423  0.58992764  0.94256243  1
  Se  Se161  1  0.41057594  0.91493526  0.44138189  1
  Se  Se162  1  0.42256912  0.91623102  0.94623967  1
  Se  Se163  1  0.74392975  0.25195930  0.43924871  1
  Se  Se164  1  0.74610669  0.24990555  0.93888694  1
  Se  Se165  1  0.74591843  0.59440989  0.43574290  1
  Se  Se166  1  0.73551278  0.58457960  0.95136326  1
  Se  Se167  1  0.74345321  0.92115678  0.43955028  1
  Se  Se168  1  0.75036339  0.92353373  0.94031176  1
  Se  Se169  1  0.24601474  0.08534252  0.44775053  1
  Se  Se170  1  0.25053052  0.08501931  0.94670736  1
  Se  Se171  1  0.25257682  0.41616787  0.44839966  1
  Se  Se172  1  0.25260884  0.41321053  0.94157550  1
  Se  Se173  1  0.24648797  0.75188807  0.44433734  1
  Se  Se174  1  0.25458274  0.74053602  0.95114224  1
  Se  Se175  1  0.57579535  0.08557187  0.44579770  1
  Se  Se176  1  0.58400796  0.07835895  0.93808582  1
  Se  Se177  1  0.58209341  0.41774093  0.44918850  1
  Se  Se178  1  0.58120591  0.40492889  0.94014474  1
  Se  Se179  1  0.58074710  0.75804535  0.44330585  1
  Se  Se180  1  0.59143473  0.74217494  0.95236150  1
  Se  Se181  1  0.91814168  0.07186778  0.43988609  1
  Se  Se182  1  0.93243825  0.07412571  0.94624019  1
  Se  Se183  1  0.93130040  0.40659362  0.44151327  1
  Se  Se184  1  0.91416194  0.41836049  0.94335338  1
  Se  Se185  1  0.92445792  0.74758009  0.44307822  1
  Se  Se186  1  0.92260470  0.74885045  0.93863582  1
  Se  Se187  1  0.24959084  0.25434391  0.30759561  1
  Se  Se188  1  0.25205288  0.25142843  0.80179108  1
  Se  Se189  1  0.25527381  0.58919643  0.30668360  1
  Se  Se190  1  0.23580667  0.57848254  0.81262834  1
  Se  Se191  1  0.23511391  0.90315460  0.30579490  1
  Se  Se192  1  0.25153550  0.91053210  0.80560411  1
  Se  Se193  1  0.57963801  0.25520303  0.30881037  1
  Se  Se194  1  0.58152740  0.24913667  0.79783261  1
  Se  Se195  1  0.57732220  0.58271216  0.31658602  1
  Se  Se196  1  0.56795328  0.57246536  0.81043942  1
  Se  Se197  1  0.58719797  0.93498065  0.29795615  1
  Se  Se198  1  0.58270174  0.91592922  0.80125165  1
  Se  Se199  1  0.91154987  0.23855932  0.31411831  1
  Se  Se200  1  0.91511496  0.24896964  0.80151458  1
  Se  Se201  1  0.92340578  0.57908020  0.29567943  1
  Se  Se202  1  0.91157278  0.58476491  0.80456119  1
  Se  Se203  1  0.91501953  0.91783911  0.29942100  1
  Se  Se204  1  0.91396412  0.91447371  0.81094189  1
  Se  Se205  1  0.08480454  0.08070266  0.30658337  1
  Se  Se206  1  0.09126622  0.08862720  0.81013392  1
  Se  Se207  1  0.09613817  0.42163824  0.31295891  1
  Se  Se208  1  0.07929923  0.41499813  0.80243199  1
  Se  Se209  1  0.06357076  0.72876458  0.30690171  1
  Se  Se210  1  0.07877662  0.74945072  0.79297119  1
  Se  Se211  1  0.41536480  0.09180751  0.31289139  1
  Se  Se212  1  0.41467112  0.08436504  0.79782364  1
  Se  Se213  1  0.41518606  0.41748485  0.30901608  1
  Se  Se214  1  0.40763512  0.41093640  0.79702226  1
  Se  Se215  1  0.42137569  0.75765112  0.29900367  1
  Se  Se216  1  0.41989430  0.75482289  0.80907331  1
  Se  Se217  1  0.74483378  0.08535044  0.29812730  1
  Se  Se218  1  0.74749769  0.08005775  0.79870028  1
  Se  Se219  1  0.75057507  0.41655095  0.30141796  1
  Se  Se220  1  0.74527124  0.41594258  0.80215441  1
  Se  Se221  1  0.75842178  0.75745063  0.31124751  1
  Se  Se222  1  0.75662589  0.75672910  0.81666309  1
  Se  Se223  1  0.24794258  0.08906813  0.19299958  1
  Se  Se224  1  0.25175713  0.08296471  0.69493150  1
  Se  Se225  1  0.25546047  0.41292920  0.20219384  1
  Se  Se226  1  0.24860016  0.41682824  0.69754413  1
  Se  Se227  1  0.25246686  0.75658249  0.19748898  1
  Se  Se228  1  0.24611802  0.75459448  0.68656208  1
  Se  Se229  1  0.57485768  0.09143669  0.19695845  1
  Se  Se230  1  0.58374513  0.07855399  0.69169045  1
  Se  Se231  1  0.58553348  0.41951526  0.20307572  1
  Se  Se232  1  0.58445136  0.41140489  0.69444363  1
  Se  Se233  1  0.58070994  0.75810136  0.19454596  1
  Se  Se234  1  0.57486964  0.74835750  0.69120044  1
  Se  Se235  1  0.90238854  0.10509073  0.19785883  1
  Se  Se236  1  0.90872760  0.09456670  0.68372216  1
  Se  Se237  1  0.91858572  0.41800665  0.18740077  1
  Se  Se238  1  0.91586171  0.41810998  0.69758271  1
  Se  Se239  1  0.91977416  0.74515336  0.19745131  1
  Se  Se240  1  0.91686815  0.74766481  0.70155737  1
  Se  Se241  1  0.09211455  0.24665589  0.19304726  1
  Se  Se242  1  0.08247315  0.25269782  0.69639175  1
  Se  Se243  1  0.09180467  0.58098674  0.19538074  1
  Se  Se244  1  0.08059119  0.58948085  0.69662104  1
  Se  Se245  1  0.07331394  0.93616583  0.19791107  1
  Se  Se246  1  0.09157772  0.91748191  0.68857971  1
  Se  Se247  1  0.41103165  0.25731975  0.20177261  1
  Se  Se248  1  0.41511495  0.25060284  0.69285381  1
  Se  Se249  1  0.41797605  0.58592861  0.20231070  1
  Se  Se250  1  0.41823614  0.57614533  0.68729558  1
  Se  Se251  1  0.42087493  0.91144070  0.18869210  1
  Se  Se252  1  0.41383866  0.91792083  0.69151338  1
  Se  Se253  1  0.74718291  0.26344741  0.20447433  1
  Se  Se254  1  0.74453595  0.25332769  0.69677230  1
  Se  Se255  1  0.75765301  0.57801436  0.18723852  1
  Se  Se256  1  0.75019541  0.57882141  0.68893367  1
  Se  Se257  1  0.74931101  0.91665891  0.19439459  1
  Se  Se258  1  0.74504605  0.91405098  0.70147471  1
