# generated using pymatgen
data_In86Cu29Se144
_symmetry_space_group_name_H-M   'P 1'
_cell_length_a   17.57608910
_cell_length_b   17.57754319
_cell_length_c   23.43218145
_cell_angle_alpha   89.96929739
_cell_angle_beta   90.00106215
_cell_angle_gamma   89.99997804
_symmetry_Int_Tables_number   1
_chemical_formula_structural   In86Cu29Se144
_chemical_formula_sum   'In86 Cu29 Se144'
_cell_volume   7239.24172640
_cell_formula_units_Z   1
loop_
 _symmetry_equiv_pos_site_id
 _symmetry_equiv_pos_as_xyz
  1  'x, y, z'
loop_
 _atom_site_type_symbol
 _atom_site_label
 _atom_site_symmetry_multiplicity
 _atom_site_fract_x
 _atom_site_fract_y
 _atom_site_fract_z
 _atom_site_occupancy
  In  In0  1  0.00455964  0.15203093  0.11875151  1
  In  In1  1  -0.00740758  0.17289645  0.63385864  1
  In  In2  1  -0.00545671  0.48916309  0.12331634  1
  In  In3  1  -0.00193993  0.49210634  0.62038608  1
  In  In4  1  0.01343281  0.84222031  0.12645905  1
  In  In5  1  0.00695851  0.82936864  0.62545686  1
  In  In6  1  0.32537768  0.16001418  0.11189283  1
  In  In7  1  0.35313228  0.16457377  0.64805594  1
  In  In8  1  0.34102839  0.50502506  0.11945967  1
  In  In9  1  0.33786440  0.50726541  0.62966606  1
  In  In10  1  0.34002153  0.82389010  0.13182199  1
  In  In11  1  0.32935370  0.83198145  0.62353093  1
  In  In12  1  0.66441664  0.17499070  0.11822867  1
  In  In13  1  0.66341644  0.16258445  0.63699689  1
  In  In14  1  0.66289552  0.50270219  0.12619550  1
  In  In15  1  0.65353072  0.49104985  0.61529777  1
  In  In16  1  0.65072691  0.82899669  0.12317168  1
  In  In17  1  0.66761304  0.85013305  0.62299731  1
  In  In18  1  0.16812840  -0.00098109  0.37814877  1
  In  In19  1  0.17326341  0.01065309  0.87041107  1
  In  In20  1  0.17879489  0.34374154  0.38131741  1
  In  In21  1  0.16966392  0.33156711  0.86890059  1
  In  In22  1  0.17769199  0.66178557  0.37862881  1
  In  In23  1  0.17338410  0.64770256  0.87809154  1
  In  In24  1  0.48283342  -0.00494200  0.37505136  1
  In  In25  1  0.49752928  0.00093847  0.86813697  1
  In  In26  1  0.51409260  0.33547187  0.37920944  1
  In  In27  1  0.49648781  0.34240646  0.86736551  1
  In  In28  1  0.49394119  0.67093324  0.38010762  1
  In  In29  1  0.48720845  0.67650390  0.87683211  1
  In  In30  1  0.84793724  -0.00452493  0.37912067  1
  In  In31  1  0.83866912  0.00829744  0.86127902  1
  In  In32  1  0.82343892  0.34052356  0.38930175  1
  In  In33  1  0.82776276  0.32427346  0.86480392  1
  In  In34  1  0.81766252  0.66955940  0.37946590  1
  In  In35  1  0.82287466  0.66735299  0.87672034  1
  In  In36  1  0.00205245  0.14932571  0.37955099  1
  In  In37  1  0.00451605  0.16802028  0.87036030  1
  In  In38  1  0.00059634  0.50044260  0.38512075  1
  In  In39  1  0.01443642  0.49818874  0.87088309  1
  In  In40  1  0.00132352  0.85444811  0.37609665  1
  In  In41  1  0.00725005  0.85352540  0.86647727  1
  In  In42  1  0.34250666  0.16093059  0.37453555  1
  In  In43  1  0.33971145  0.16311615  0.86646317  1
  In  In44  1  0.32021028  0.50927562  0.38662181  1
  In  In45  1  0.33800627  0.49712390  0.86943880  1
  In  In46  1  0.33828011  0.83516037  0.38143263  1
  In  In47  1  0.34407785  0.84940403  0.86376802  1
  In  In48  1  0.66841000  0.17980189  0.37961386  1
  In  In49  1  0.65349678  0.16875690  0.86455070  1
  In  In50  1  0.63393515  0.53903774  0.41426116  1
  In  In51  1  0.64568127  0.47713175  0.85912283  1
  In  In52  1  0.66361346  0.81412134  0.37804945  1
  In  In53  1  0.65098134  0.82702405  0.87110315  1
  In  In54  1  0.16558620  0.00525885  0.12718614  1
  In  In55  1  0.17566233  -0.01202326  0.63302001  1
  In  In56  1  0.17449582  0.33611847  0.10692101  1
  In  In57  1  0.16710764  0.33390536  0.63066688  1
  In  In58  1  0.18276302  0.67624278  0.12317294  1
  In  In59  1  0.17795329  0.67815219  0.61602348  1
  In  In60  1  0.49113102  -0.01594813  0.11187989  1
  In  In61  1  0.50343235  -0.00307684  0.62914536  1
  In  In62  1  0.49903090  0.33091496  0.10450257  1
  In  In63  1  0.48795764  0.35686271  0.65917641  1
  In  In64  1  0.49543767  0.66352243  0.12732255  1
  In  In65  1  0.48819243  0.65092023  0.61601083  1
  In  In66  1  0.84558970  0.00656052  0.12734614  1
  In  In67  1  0.81462571  0.01042452  0.63512938  1
  In  In68  1  0.83048676  0.34006779  0.12353035  1
  In  In69  1  0.83519527  0.33311825  0.62891774  1
  In  In70  1  0.82115417  0.65061817  0.13242250  1
  In  In71  1  0.84010572  0.66685742  0.61769235  1
  In  In72  1  0.82498866  0.49677972  0.00190861  1
  In  In73  1  0.66839254  -0.00214124  0.24733023  1
  In  In74  1  0.66400519  0.66819729  0.74404896  1
  In  In75  1  0.83530706  0.83737025  0.49834083  1
  In  In76  1  0.17591069  0.83577003  -0.00750377  1
  In  In77  1  0.50449672  0.16984002  0.51571185  1
  In  In78  1  -0.00050739  0.32442619  0.24591271  1
  In  In79  1  0.00476927  0.66585748  0.74039302  1
  In  In80  1  0.16983223  0.17408005  0.50623759  1
  In  In81  1  0.82698499  0.16781232  -0.01252301  1
  In  In82  1  0.66715927  0.33845288  0.24668773  1
  In  In83  1  0.00496365  0.67430540  0.24893661  1
  In  In84  1  0.83084046  0.83414893  -0.00034718  1
  In  In85  1  0.33635230  0.33359180  0.24964444  1
  Cu  Cu86  1  0.66318782  0.00053004  -0.01021249  1
  Cu  Cu87  1  0.16863577  0.15659917  0.24649500  1
  Cu  Cu88  1  0.49800772  0.82605787  0.25135578  1
  Cu  Cu89  1  0.33780536  0.66179049  0.00027443  1
  Cu  Cu90  1  0.65389369  0.65706035  0.00017051  1
  Cu  Cu91  1  -0.00065066  0.33138131  0.50841510  1
  Cu  Cu92  1  0.66492906  0.00872379  0.50399675  1
  Cu  Cu93  1  0.83864994  0.50096999  0.74646561  1
  Cu  Cu94  1  0.00044377  0.66611150  -0.00924798  1
  Cu  Cu95  1  0.33260823  0.33229411  -0.01439030  1
  Cu  Cu96  1  0.83372747  0.83233451  0.25611856  1
  Cu  Cu97  1  0.16728736  0.82709995  0.74780213  1
  Cu  Cu98  1  0.34332755  0.33631703  0.51301335  1
  Cu  Cu99  1  0.84435622  0.16027950  0.25398922  1
  Cu  Cu100  1  0.16172782  0.16491817  0.75059291  1
  Cu  Cu101  1  0.81835102  0.50665816  0.26535968  1
  Cu  Cu102  1  -0.00215052  0.00748359  0.50704802  1
  Cu  Cu103  1  0.33766482  0.00038185  -0.00784015  1
  Cu  Cu104  1  0.17731606  0.84246038  0.25337684  1
  Cu  Cu105  1  0.00768997  0.66556438  0.49956275  1
  Cu  Cu106  1  0.33487993  0.66729204  0.50201295  1
  Cu  Cu107  1  0.16694257  0.50421310  0.25129291  1
  Cu  Cu108  1  0.49313268  0.15804552  0.24187826  1
  Cu  Cu109  1  0.49626730  0.50629894  0.25717427  1
  Cu  Cu110  1  0.83394541  0.16887365  0.74991727  1
  Cu  Cu111  1  0.67042227  0.33095334  0.51166869  1
  Cu  Cu112  1  0.17610854  0.49678841  0.74883402  1
  Cu  Cu113  1  0.00180363  0.33297995  -0.00638478  1
  Cu  Cu114  1  0.49703546  0.83300762  0.74440353  1
  Se  Se115  1  0.09595076  0.08539173  0.05074768  1
  Se  Se116  1  0.08283038  0.08314977  0.56654949  1
  Se  Se117  1  0.07906215  0.42020157  0.04971219  1
  Se  Se118  1  0.08989854  0.41227994  0.55558687  1
  Se  Se119  1  0.07932515  0.74549138  0.05351991  1
  Se  Se120  1  0.08554600  0.75543995  0.55019513  1
  Se  Se121  1  0.42066796  0.08302940  0.04866991  1
  Se  Se122  1  0.40560355  0.07930878  0.56272762  1
  Se  Se123  1  0.40834299  0.41577722  0.04632459  1
  Se  Se124  1  0.42669272  0.41556974  0.56809127  1
  Se  Se125  1  0.41620070  0.74809719  0.05574732  1
  Se  Se126  1  0.41655325  0.75166067  0.55485495  1
  Se  Se127  1  0.74620791  0.07163153  0.05550439  1
  Se  Se128  1  0.74502600  0.09204830  0.55840384  1
  Se  Se129  1  0.73041987  0.40252747  0.05510962  1
  Se  Se130  1  0.75732435  0.41883477  0.55768444  1
  Se  Se131  1  0.74287965  0.73458354  0.05676764  1
  Se  Se132  1  0.74344515  0.74935798  0.55602469  1
  Se  Se133  1  0.25087550  0.24740337  0.04130635  1
  Se  Se134  1  0.26910881  0.24909007  0.57024027  1
  Se  Se135  1  0.24869756  0.58396609  0.05322284  1
  Se  Se136  1  0.25339818  0.58016974  0.55487037  1
  Se  Se137  1  0.26170134  0.92009793  0.05906521  1
  Se  Se138  1  0.23700207  0.90583083  0.55523582  1
  Se  Se139  1  0.58030593  0.24012404  0.04482248  1
  Se  Se140  1  0.58308148  0.26531387  0.57619881  1
  Se  Se141  1  0.57422728  0.57622877  0.05730878  1
  Se  Se142  1  0.58940673  0.58883398  0.54906570  1
  Se  Se143  1  0.58739972  0.91216900  0.04602792  1
  Se  Se144  1  0.57986807  0.92181606  0.55125968  1
  Se  Se145  1  0.91920273  0.25542844  0.05634029  1
  Se  Se146  1  0.91506585  0.24690339  0.55772930  1
  Se  Se147  1  0.92052107  0.59256321  0.05683444  1
  Se  Se148  1  0.92350469  0.58352042  0.55209224  1
  Se  Se149  1  0.92768215  0.92362368  0.05461286  1
  Se  Se150  1  0.91597621  0.92563621  0.56576196  1
  Se  Se151  1  0.07689283  0.25801174  0.43930955  1
  Se  Se152  1  0.08445996  0.25088305  0.94024691  1
  Se  Se153  1  0.09182402  0.58121524  0.44713872  1
  Se  Se154  1  0.08520290  0.57542058  0.94916158  1
  Se  Se155  1  0.08097681  0.92651943  0.45140243  1
  Se  Se156  1  0.08110210  0.93013958  0.94399088  1
  Se  Se157  1  0.41427951  0.25721943  0.44468120  1
  Se  Se158  1  0.41860928  0.25040356  0.93476222  1
  Se  Se159  1  0.41726458  0.58032870  0.45044513  1
  Se  Se160  1  0.41720455  0.57977504  0.94298890  1
  Se  Se161  1  0.42278843  0.91313677  0.45224272  1
  Se  Se162  1  0.42222764  0.91461173  0.94331347  1
  Se  Se163  1  0.75011588  0.24661882  0.45608080  1
  Se  Se164  1  0.73289959  0.26078689  0.93786374  1
  Se  Se165  1  0.76827067  0.57129350  0.45031079  1
  Se  Se166  1  0.73380972  0.58028753  0.93801190  1
  Se  Se167  1  0.73846862  0.92595140  0.43844932  1
  Se  Se168  1  0.74738651  0.92163423  0.93259351  1
  Se  Se169  1  0.25864687  0.08309925  0.44702740  1
  Se  Se170  1  0.25553752  0.08643820  0.94219151  1
  Se  Se171  1  0.25447495  0.41476379  0.45846797  1
  Se  Se172  1  0.24709840  0.41975809  0.93811042  1
  Se  Se173  1  0.25100922  0.75033426  0.44789649  1
  Se  Se174  1  0.26428671  0.74400588  0.93471490  1
  Se  Se175  1  0.58321040  0.08432037  0.43948863  1
  Se  Se176  1  0.58110687  0.08375885  0.93797232  1
  Se  Se177  1  0.58388803  0.41056843  0.45700804  1
  Se  Se178  1  0.57446056  0.41994480  0.94302876  1
  Se  Se179  1  0.58686623  0.74002299  0.45111633  1
  Se  Se180  1  0.57927448  0.74877031  0.94737414  1
  Se  Se181  1  0.91086979  0.08625633  0.45330460  1
  Se  Se182  1  0.92412395  0.07500358  0.94107458  1
  Se  Se183  1  0.91904379  0.41607130  0.45181173  1
  Se  Se184  1  0.91624024  0.41220208  0.93638963  1
  Se  Se185  1  0.92766660  0.74681220  0.43696460  1
  Se  Se186  1  0.92484347  0.75050180  0.93422725  1
  Se  Se187  1  0.24184589  0.24184898  0.30924278  1
  Se  Se188  1  0.24997243  0.24634989  0.80058928  1
  Se  Se189  1  0.25386197  0.58258778  0.30386205  1
  Se  Se190  1  0.25513112  0.58518556  0.80029241  1
  Se  Se191  1  0.25769295  0.92201260  0.31125940  1
  Se  Se192  1  0.24357096  0.91701597  0.80127414  1
  Se  Se193  1  0.57372013  0.23890899  0.30124204  1
  Se  Se194  1  0.57644085  0.25579495  0.79575459  1
  Se  Se195  1  0.58205602  0.58206187  0.31516947  1
  Se  Se196  1  0.57143838  0.58711362  0.80692497  1
  Se  Se197  1  0.58009140  0.90953808  0.30994689  1
  Se  Se198  1  0.58108702  0.91384750  0.79953367  1
  Se  Se199  1  0.91114759  0.24837448  0.31699278  1
  Se  Se200  1  0.92222230  0.25072722  0.80092391  1
  Se  Se201  1  0.91646468  0.58334416  0.31144007  1
  Se  Se202  1  0.91359240  0.58197276  0.80869689  1
  Se  Se203  1  0.91839731  0.92149656  0.29895853  1
  Se  Se204  1  0.91115938  0.91115776  0.79839500  1
  Se  Se205  1  0.08602432  0.07982999  0.30548651  1
  Se  Se206  1  0.07803180  0.07795351  0.80077368  1
  Se  Se207  1  0.08766996  0.41994943  0.30822062  1
  Se  Se208  1  0.08611595  0.41549433  0.79796372  1
  Se  Se209  1  0.09150551  0.76221028  0.31269611  1
  Se  Se210  1  0.09122737  0.74707424  0.81209071  1
  Se  Se211  1  0.41225351  0.07870126  0.29929855  1
  Se  Se212  1  0.40016673  0.06239735  0.79913043  1
  Se  Se213  1  0.42044748  0.42096057  0.31694107  1
  Se  Se214  1  0.40664154  0.41129298  0.79512430  1
  Se  Se215  1  0.41239228  0.74869457  0.30757839  1
  Se  Se216  1  0.41315239  0.75099725  0.79846431  1
  Se  Se217  1  0.75479771  0.08825133  0.31274231  1
  Se  Se218  1  0.74523862  0.08798167  0.80091003  1
  Se  Se219  1  0.73808080  0.42385934  0.32066812  1
  Se  Se220  1  0.75393385  0.41786603  0.79889557  1
  Se  Se221  1  0.74683504  0.74702041  0.30117997  1
  Se  Se222  1  0.75544795  0.75851383  0.80512492  1
  Se  Se223  1  0.25914701  0.08205641  0.19273219  1
  Se  Se224  1  0.24789861  0.08434407  0.69771794  1
  Se  Se225  1  0.24202286  0.42061185  0.18908302  1
  Se  Se226  1  0.25839711  0.41296426  0.69510785  1
  Se  Se227  1  0.25201218  0.74943634  0.20276165  1
  Se  Se228  1  0.25294138  0.74471362  0.69670352  1
  Se  Se229  1  0.57938092  0.08301136  0.18319914  1
  Se  Se230  1  0.57087632  0.08691750  0.70057470  1
  Se  Se231  1  0.56449351  0.41981869  0.19123983  1
  Se  Se232  1  0.59641599  0.43403800  0.70613521  1
  Se  Se233  1  0.58228197  0.74481043  0.19699774  1
  Se  Se234  1  0.57549676  0.75542309  0.68151103  1
  Se  Se235  1  0.92867403  0.08119780  0.19920205  1
  Se  Se236  1  0.91517300  0.08027656  0.69853393  1
  Se  Se237  1  0.89959812  0.42841081  0.20202056  1
  Se  Se238  1  0.92290860  0.41579887  0.69664291  1
  Se  Se239  1  0.90885390  0.75682021  0.18561998  1
  Se  Se240  1  0.90603126  0.75841228  0.69252914  1
  Se  Se241  1  0.09715576  0.24524052  0.18544525  1
  Se  Se242  1  0.08197291  0.25320139  0.69854374  1
  Se  Se243  1  0.08686244  0.57825941  0.18689529  1
  Se  Se244  1  0.09686218  0.57623860  0.68438859  1
  Se  Se245  1  0.08910154  0.92008385  0.19979696  1
  Se  Se246  1  0.08111217  0.91173049  0.69871775  1
  Se  Se247  1  0.42079646  0.24739689  0.18335670  1
  Se  Se248  1  0.44926799  0.23437457  0.71443512  1
  Se  Se249  1  0.41138583  0.58231001  0.19837360  1
  Se  Se250  1  0.42199244  0.58556879  0.69987799  1
  Se  Se251  1  0.42316073  0.91459043  0.19517119  1
  Se  Se252  1  0.41110844  0.91631996  0.69317125  1
  Se  Se253  1  0.76238884  0.23952337  0.19394887  1
  Se  Se254  1  0.75013568  0.25295858  0.69799571  1
  Se  Se255  1  0.73510005  0.58095924  0.20440185  1
  Se  Se256  1  0.75883932  0.57985532  0.68672092  1
  Se  Se257  1  0.75812747  0.90650954  0.18554396  1
  Se  Se258  1  0.74001286  0.91991326  0.70186010  1
