# generated using pymatgen
data_In86Cu29Se144
_symmetry_space_group_name_H-M   'P 1'
_cell_length_a   17.58457170
_cell_length_b   17.58412858
_cell_length_c   23.44306682
_cell_angle_alpha   90.03722760
_cell_angle_beta   89.99215643
_cell_angle_gamma   90.01920245
_symmetry_Int_Tables_number   1
_chemical_formula_structural   In86Cu29Se144
_chemical_formula_sum   'In86 Cu29 Se144'
_cell_volume   7248.81391090
_cell_formula_units_Z   1
loop_
 _symmetry_equiv_pos_site_id
 _symmetry_equiv_pos_as_xyz
  1  'x, y, z'
loop_
 _atom_site_type_symbol
 _atom_site_label
 _atom_site_symmetry_multiplicity
 _atom_site_fract_x
 _atom_site_fract_y
 _atom_site_fract_z
 _atom_site_occupancy
  In  In0  1  -0.00189111  0.17793206  0.12959387  1
  In  In1  1  -0.01062999  0.15643338  0.62498922  1
  In  In2  1  0.00011678  0.50084190  0.12253990  1
  In  In3  1  0.01466362  0.50172393  0.62252353  1
  In  In4  1  0.00234051  0.82446015  0.13172945  1
  In  In5  1  -0.01317760  0.83959866  0.63439317  1
  In  In6  1  0.31998040  0.15936471  0.12363138  1
  In  In7  1  0.35230614  0.17664447  0.61963841  1
  In  In8  1  0.33234680  0.53094105  0.12096342  1
  In  In9  1  0.33493058  0.50162745  0.62971404  1
  In  In10  1  0.33323474  0.82868694  0.12395982  1
  In  In11  1  0.31807158  0.82778010  0.62707196  1
  In  In12  1  0.68389027  0.16456511  0.12404785  1
  In  In13  1  0.64676868  0.17769170  0.64703159  1
  In  In14  1  0.67110613  0.49605674  0.12919689  1
  In  In15  1  0.64546113  0.49927764  0.62381575  1
  In  In16  1  0.65688807  0.83212481  0.12818649  1
  In  In17  1  0.68435196  0.82895549  0.62459360  1
  In  In18  1  0.15964940  -0.00978544  0.36560248  1
  In  In19  1  0.15413033  -0.00701898  0.87583789  1
  In  In20  1  0.17309075  0.35081230  0.37354545  1
  In  In21  1  0.17634614  0.33225440  0.87098949  1
  In  In22  1  0.16725768  0.66272430  0.36897502  1
  In  In23  1  0.16534396  0.66930051  0.87930556  1
  In  In24  1  0.50808711  0.01590365  0.37660966  1
  In  In25  1  0.49363767  -0.01484753  0.87156333  1
  In  In26  1  0.50419284  0.32409389  0.38340064  1
  In  In27  1  0.50387084  0.33403086  0.86058120  1
  In  In28  1  0.48994056  0.65779458  0.36289034  1
  In  In29  1  0.49237432  0.67883886  0.87936438  1
  In  In30  1  0.83735427  -0.01410212  0.37453914  1
  In  In31  1  0.84854786  0.00982100  0.87780656  1
  In  In32  1  0.83272089  0.32972400  0.36752021  1
  In  In33  1  0.82789757  0.33823468  0.87839785  1
  In  In34  1  0.84150683  0.68368580  0.35651704  1
  In  In35  1  0.83251468  0.64842030  0.88252435  1
  In  In36  1  -0.00636914  0.16025101  0.36681574  1
  In  In37  1  -0.00342050  0.14615343  0.87591970  1
  In  In38  1  0.01398864  0.51552987  0.36734767  1
  In  In39  1  -0.00834105  0.50834126  0.88004115  1
  In  In40  1  -0.00363039  0.83139493  0.36506285  1
  In  In41  1  0.01482086  0.84348831  0.87716465  1
  In  In42  1  0.35031529  0.17328390  0.37623214  1
  In  In43  1  0.32721192  0.16957254  0.86643356  1
  In  In44  1  0.32499473  0.50317205  0.38183004  1
  In  In45  1  0.32913483  0.50035101  0.87382144  1
  In  In46  1  0.33203099  0.82573799  0.35904892  1
  In  In47  1  0.33548314  0.82497409  0.88506873  1
  In  In48  1  0.65344502  0.16673454  0.37813142  1
  In  In49  1  0.67413536  0.17488773  0.86768232  1
  In  In50  1  0.66347650  0.49093352  0.37179932  1
  In  In51  1  0.67501886  0.49574816  0.87718751  1
  In  In52  1  0.67876180  0.83839415  0.36931688  1
  In  In53  1  0.65348041  0.82984665  0.87969922  1
  In  In54  1  0.17590787  -0.00785184  0.13044651  1
  In  In55  1  0.15781129  -0.01166112  0.62730155  1
  In  In56  1  0.15203895  0.33424564  0.12286761  1
  In  In57  1  0.16939800  0.35361850  0.61970036  1
  In  In58  1  0.16592215  0.66436142  0.12071556  1
  In  In59  1  0.17164498  0.65830784  0.63169404  1
  In  In60  1  0.49971492  -0.02210054  0.12891938  1
  In  In61  1  0.50102570  0.02033648  0.62625420  1
  In  In62  1  0.50372087  0.34439456  0.12614024  1
  In  In63  1  0.49631072  0.33638901  0.63126288  1
  In  In64  1  0.48570692  0.69725593  0.15502791  1
  In  In65  1  0.49749648  0.64695686  0.62259028  1
  In  In66  1  0.83867831  0.01608355  0.12068850  1
  In  In67  1  0.83395629  -0.00856595  0.63249006  1
  In  In68  1  0.83446722  0.33495894  0.12496148  1
  In  In69  1  0.82811336  0.31894833  0.62485951  1
  In  In70  1  0.84874839  0.65980155  0.13764241  1
  In  In71  1  0.83090421  0.68201310  0.62344203  1
  In  In72  1  0.66947017  0.00310580  0.25049298  1
  In  In73  1  0.50402368  0.83558126  0.49455563  1
  In  In74  1  0.50133036  0.16306555  -0.01029671  1
  In  In75  1  0.33238541  0.33607772  0.24999320  1
  In  In76  1  0.16177198  0.16459830  -0.00703463  1
  In  In77  1  0.66421752  0.66483007  0.74970328  1
  In  In78  1  0.83609087  0.83064645  0.00913845  1
  In  In79  1  -0.00067944  0.33170041  0.74308243  1
  In  In80  1  0.16885990  0.16630061  0.50511684  1
  In  In81  1  0.50238450  0.51042899  -0.00193997  1
  In  In82  1  0.83366715  0.50512516  0.49270860  1
  In  In83  1  0.82774639  0.15875126  0.49924011  1
  In  In84  1  0.33329169  0.00202630  0.74600777  1
  In  In85  1  0.16028893  0.82586075  0.49360054  1
  Cu  Cu86  1  0.16585807  0.50670153  0.75114265  1
  Cu  Cu87  1  0.67084280  0.67105335  0.49640536  1
  Cu  Cu88  1  0.49280553  0.50027786  0.75026439  1
  Cu  Cu89  1  0.16646000  0.82793304  0.24432423  1
  Cu  Cu90  1  0.16705666  0.16688550  0.74786830  1
  Cu  Cu91  1  0.33716936  -0.00913404  0.00208229  1
  Cu  Cu92  1  0.16142860  0.82577073  0.75301268  1
  Cu  Cu93  1  0.66163843  0.65965356  0.00768243  1
  Cu  Cu94  1  0.67396382  0.32743857  0.00089259  1
  Cu  Cu95  1  0.00355809  0.67113457  0.49324690  1
  Cu  Cu96  1  0.82853679  0.49680809  0.75326018  1
  Cu  Cu97  1  0.50652381  0.49690675  0.24980230  1
  Cu  Cu98  1  0.00838931  0.33619087  0.49225103  1
  Cu  Cu99  1  0.33438766  0.00367519  0.49327966  1
  Cu  Cu100  1  0.83655864  0.83011935  0.75587473  1
  Cu  Cu101  1  0.83637026  0.17299171  0.24820631  1
  Cu  Cu102  1  -0.00777691  0.33608117  0.00067325  1
  Cu  Cu103  1  0.16367174  0.16097474  0.24786954  1
  Cu  Cu104  1  0.49743373  0.82992982  0.75131041  1
  Cu  Cu105  1  0.65761054  0.33690760  0.50609292  1
  Cu  Cu106  1  -0.00005046  0.66593887  0.00505780  1
  Cu  Cu107  1  0.33953293  0.65787398  0.50187127  1
  Cu  Cu108  1  0.83239024  0.15962156  0.75110822  1
  Cu  Cu109  1  0.66865321  -0.00397642  0.00407447  1
  Cu  Cu110  1  0.32997220  0.34485874  -0.00530571  1
  Cu  Cu111  1  0.66797159  0.00482640  0.50366851  1
  Cu  Cu112  1  0.16744528  0.50427707  0.24557284  1
  Cu  Cu113  1  0.50238132  0.16969815  0.25238754  1
  Cu  Cu114  1  0.83795642  0.49471441  0.24881177  1
  Se  Se115  1  0.08556899  0.08404226  0.06595608  1
  Se  Se116  1  0.07327293  0.07067632  0.55540479  1
  Se  Se117  1  0.08075928  0.41773935  0.04992560  1
  Se  Se118  1  0.08599107  0.42391296  0.54516755  1
  Se  Se119  1  0.08137597  0.75249875  0.05541806  1
  Se  Se120  1  0.07747518  0.74450848  0.56416857  1
  Se  Se121  1  0.41512045  0.07827757  0.05821973  1
  Se  Se122  1  0.41719355  0.08330984  0.54848918  1
  Se  Se123  1  0.40867758  0.41823013  0.05880918  1
  Se  Se124  1  0.43918979  0.44093823  0.56612034  1
  Se  Se125  1  0.42536436  0.74507867  0.06295045  1
  Se  Se126  1  0.41272555  0.74780477  0.55903157  1
  Se  Se127  1  0.75307123  0.08645173  0.04652358  1
  Se  Se128  1  0.74110211  0.08397487  0.57038954  1
  Se  Se129  1  0.74915855  0.41620553  0.05534828  1
  Se  Se130  1  0.74729904  0.41524345  0.55962143  1
  Se  Se131  1  0.74573419  0.73837156  0.06611239  1
  Se  Se132  1  0.75616336  0.75493077  0.54519926  1
  Se  Se133  1  0.25353541  0.25833966  0.05338976  1
  Se  Se134  1  0.25853930  0.26258996  0.55712286  1
  Se  Se135  1  0.23763613  0.57790167  0.04730656  1
  Se  Se136  1  0.25131764  0.58284729  0.55752964  1
  Se  Se137  1  0.24945249  0.91336532  0.05476275  1
  Se  Se138  1  0.25399936  0.92274200  0.55179752  1
  Se  Se139  1  0.58562845  0.25165056  0.05785487  1
  Se  Se140  1  0.58327685  0.25098653  0.56375089  1
  Se  Se141  1  0.57868995  0.59022133  0.07239984  1
  Se  Se142  1  0.58647399  0.58674327  0.54644143  1
  Se  Se143  1  0.58283982  0.91168564  0.05224010  1
  Se  Se144  1  0.58880565  0.92005068  0.56278427  1
  Se  Se145  1  0.91475673  0.24901555  0.05478009  1
  Se  Se146  1  0.92666828  0.25690703  0.55159146  1
  Se  Se147  1  0.91262785  0.58359296  0.05524716  1
  Se  Se148  1  0.92272149  0.59175811  0.55678726  1
  Se  Se149  1  0.92823649  0.92326015  0.06169415  1
  Se  Se150  1  0.90908666  0.91111090  0.55898871  1
  Se  Se151  1  0.08234225  0.24892350  0.43495687  1
  Se  Se152  1  0.07105056  0.25870963  0.93497573  1
  Se  Se153  1  0.09068479  0.58626679  0.44607655  1
  Se  Se154  1  0.08110054  0.58362715  0.94724094  1
  Se  Se155  1  0.07158221  0.92160224  0.44166117  1
  Se  Se156  1  0.08508486  0.92035025  0.95469127  1
  Se  Se157  1  0.41662911  0.25071660  0.45299734  1
  Se  Se158  1  0.40796998  0.26057915  0.93760699  1
  Se  Se159  1  0.42235445  0.58157997  0.44333777  1
  Se  Se160  1  0.40197684  0.59564688  0.94582356  1
  Se  Se161  1  0.40950026  0.91944421  0.43326324  1
  Se  Se162  1  0.42351968  0.90966584  0.94985894  1
  Se  Se163  1  0.74152668  0.26001010  0.44521775  1
  Se  Se164  1  0.75403798  0.24442923  0.94518666  1
  Se  Se165  1  0.74908976  0.59491729  0.43080404  1
  Se  Se166  1  0.74410278  0.57694918  0.95368783  1
  Se  Se167  1  0.74542275  0.92125579  0.44685576  1
  Se  Se168  1  0.74854208  0.91575515  0.94188781  1
  Se  Se169  1  0.24933816  0.07854125  0.43433560  1
  Se  Se170  1  0.26156053  0.07337605  0.93925895  1
  Se  Se171  1  0.25880748  0.40794537  0.44967582  1
  Se  Se172  1  0.24140876  0.42235477  0.94361980  1
  Se  Se173  1  0.26325174  0.74183060  0.44096249  1
  Se  Se174  1  0.22748243  0.77082890  0.94564307  1
  Se  Se175  1  0.58145700  0.08954481  0.45551627  1
  Se  Se176  1  0.59263128  0.07040776  0.93522608  1
  Se  Se177  1  0.58172780  0.41961151  0.44725507  1
  Se  Se178  1  0.58607319  0.40496262  0.94333115  1
  Se  Se179  1  0.58860263  0.74509421  0.43265797  1
  Se  Se180  1  0.58248857  0.74435393  0.95232891  1
  Se  Se181  1  0.92362271  0.07317613  0.44390424  1
  Se  Se182  1  0.92227841  0.08178511  0.95629093  1
  Se  Se183  1  0.92480844  0.41465733  0.43411999  1
  Se  Se184  1  0.91041818  0.42089279  0.94612230  1
  Se  Se185  1  0.91837899  0.74920268  0.43831836  1
  Se  Se186  1  0.92035164  0.74388019  0.94156316  1
  Se  Se187  1  0.24373224  0.24217699  0.30977213  1
  Se  Se188  1  0.25117932  0.25343107  0.79549672  1
  Se  Se189  1  0.25474731  0.58007947  0.30305776  1
  Se  Se190  1  0.24774456  0.58772573  0.80767476  1
  Se  Se191  1  0.24807198  0.91456185  0.29780187  1
  Se  Se192  1  0.24686905  0.91157282  0.80777094  1
  Se  Se193  1  0.58462685  0.25344548  0.30495052  1
  Se  Se194  1  0.58157468  0.24294906  0.79943649  1
  Se  Se195  1  0.58893964  0.58088612  0.30303370  1
  Se  Se196  1  0.57444851  0.57819867  0.81420790  1
  Se  Se197  1  0.57512954  0.91601667  0.30893839  1
  Se  Se198  1  0.58379035  0.91051359  0.80274011  1
  Se  Se199  1  0.92296925  0.25501815  0.30045690  1
  Se  Se200  1  0.91496268  0.24420987  0.80913782  1
  Se  Se201  1  0.91996756  0.58350495  0.29942432  1
  Se  Se202  1  0.91201079  0.58155669  0.80333963  1
  Se  Se203  1  0.91380593  0.91651494  0.29816242  1
  Se  Se204  1  0.91847475  0.91429515  0.81050059  1
  Se  Se205  1  0.07818213  0.07775550  0.30001644  1
  Se  Se206  1  0.08777826  0.08276315  0.80228822  1
  Se  Se207  1  0.08663936  0.41990046  0.30069895  1
  Se  Se208  1  0.08356635  0.42146849  0.80786495  1
  Se  Se209  1  0.08535577  0.74693547  0.30249697  1
  Se  Se210  1  0.07688322  0.74579596  0.80786850  1
  Se  Se211  1  0.41932029  0.08502454  0.30380168  1
  Se  Se212  1  0.42599233  0.08949279  0.80573803  1
  Se  Se213  1  0.42379879  0.41913528  0.31225931  1
  Se  Se214  1  0.40914062  0.41694635  0.80342409  1
  Se  Se215  1  0.42235038  0.75084303  0.29444484  1
  Se  Se216  1  0.41124022  0.75232649  0.80499806  1
  Se  Se217  1  0.75786196  0.09451749  0.31340092  1
  Se  Se218  1  0.75382216  0.07683432  0.80861519  1
  Se  Se219  1  0.75066919  0.41429374  0.30189811  1
  Se  Se220  1  0.74567207  0.41186544  0.80300316  1
  Se  Se221  1  0.74088584  0.75244146  0.29309228  1
  Se  Se222  1  0.75408543  0.74921198  0.81516153  1
  Se  Se223  1  0.25406748  0.07990149  0.20087417  1
  Se  Se224  1  0.24499622  0.09019840  0.68184057  1
  Se  Se225  1  0.24794295  0.42356422  0.18415492  1
  Se  Se226  1  0.24734060  0.42056431  0.69828778  1
  Se  Se227  1  0.24923096  0.74353523  0.19217700  1
  Se  Se228  1  0.24951520  0.74568210  0.70169034  1
  Se  Se229  1  0.57765775  0.09004172  0.18617724  1
  Se  Se230  1  0.59418158  0.06335689  0.70320836  1
  Se  Se231  1  0.58910149  0.41092662  0.19959294  1
  Se  Se232  1  0.58333278  0.41859114  0.70240959  1
  Se  Se233  1  0.60455107  0.74663722  0.20894613  1
  Se  Se234  1  0.57609357  0.75297330  0.68593353  1
  Se  Se235  1  0.91870713  0.08769941  0.19682013  1
  Se  Se236  1  0.91846283  0.07705919  0.70028887  1
  Se  Se237  1  0.92177817  0.41430348  0.19302107  1
  Se  Se238  1  0.90751218  0.42433892  0.68481835  1
  Se  Se239  1  0.91140861  0.75917603  0.20347958  1
  Se  Se240  1  0.91510278  0.74382119  0.70132036  1
  Se  Se241  1  0.08541458  0.25380616  0.20044527  1
  Se  Se242  1  0.09089001  0.24368299  0.68179901  1
  Se  Se243  1  0.08147743  0.58485445  0.19233765  1
  Se  Se244  1  0.07716184  0.58602969  0.69967583  1
  Se  Se245  1  0.08360950  0.91622016  0.19631879  1
  Se  Se246  1  0.08011864  0.91445697  0.70199010  1
  Se  Se247  1  0.42053929  0.24314036  0.18716924  1
  Se  Se248  1  0.41929607  0.24778773  0.69965461  1
  Se  Se249  1  0.41814540  0.58048268  0.20196064  1
  Se  Se250  1  0.41230920  0.58998022  0.70141182  1
  Se  Se251  1  0.40728997  0.91552583  0.19723752  1
  Se  Se252  1  0.42212085  0.90905373  0.68475070  1
  Se  Se253  1  0.74955366  0.25349323  0.19633673  1
  Se  Se254  1  0.75218262  0.25134889  0.70314965  1
  Se  Se255  1  0.75353660  0.57901812  0.19802452  1
  Se  Se256  1  0.75295143  0.57625849  0.68644137  1
  Se  Se257  1  0.75642140  0.92013858  0.18480584  1
  Se  Se258  1  0.75005245  0.90985941  0.70253422  1
