# generated using pymatgen
data_In86Cu29Se144
_symmetry_space_group_name_H-M   'P 1'
_cell_length_a   17.58600317
_cell_length_b   17.58441363
_cell_length_c   23.45145749
_cell_angle_alpha   90.01573720
_cell_angle_beta   89.97650189
_cell_angle_gamma   89.99777520
_symmetry_Int_Tables_number   1
_chemical_formula_structural   In86Cu29Se144
_chemical_formula_sum   'In86 Cu29 Se144'
_cell_volume   7252.11736594
_cell_formula_units_Z   1
loop_
 _symmetry_equiv_pos_site_id
 _symmetry_equiv_pos_as_xyz
  1  'x, y, z'
loop_
 _atom_site_type_symbol
 _atom_site_label
 _atom_site_symmetry_multiplicity
 _atom_site_fract_x
 _atom_site_fract_y
 _atom_site_fract_z
 _atom_site_occupancy
  In  In0  1  0.00901230  0.15605590  0.13112059  1
  In  In1  1  -0.01378739  0.16769549  0.62594627  1
  In  In2  1  -0.01590461  0.49930153  0.12988404  1
  In  In3  1  -0.00511463  0.52197507  0.62030904  1
  In  In4  1  0.00537812  0.84363706  0.12259946  1
  In  In5  1  0.01378999  0.81856912  0.62702111  1
  In  In6  1  0.32163268  0.17023877  0.12361450  1
  In  In7  1  0.35330444  0.14990546  0.64227790  1
  In  In8  1  0.34758134  0.49993019  0.12412744  1
  In  In9  1  0.34124508  0.49324412  0.63312173  1
  In  In10  1  0.33837100  0.83047470  0.13191898  1
  In  In11  1  0.33572947  0.82821264  0.62622864  1
  In  In12  1  0.65789063  0.17193310  0.12316380  1
  In  In13  1  0.67495662  0.17200514  0.62388921  1
  In  In14  1  0.67149190  0.49764559  0.11397796  1
  In  In15  1  0.66719523  0.50107172  0.62754955  1
  In  In16  1  0.66004555  0.82229887  0.11151560  1
  In  In17  1  0.64861021  0.83022532  0.62507231  1
  In  In18  1  0.16094299  -0.00851320  0.37432091  1
  In  In19  1  0.17934774  0.01281435  0.87005141  1
  In  In20  1  0.15588072  0.35420825  0.37135311  1
  In  In21  1  0.16718244  0.31616140  0.87910901  1
  In  In22  1  0.18734238  0.65740985  0.37864847  1
  In  In23  1  0.16964496  0.67490148  0.86422182  1
  In  In24  1  0.48962754  0.01172135  0.38321039  1
  In  In25  1  0.47119341  -0.00226537  0.87381851  1
  In  In26  1  0.49912193  0.33469703  0.38777644  1
  In  In27  1  0.51305105  0.34152412  0.85534460  1
  In  In28  1  0.46957681  0.68734133  0.40197788  1
  In  In29  1  0.50236664  0.66706810  0.87336526  1
  In  In30  1  0.84800725  0.00290770  0.37359659  1
  In  In31  1  0.82862693  -0.01652251  0.87310243  1
  In  In32  1  0.83322868  0.33322545  0.37636360  1
  In  In33  1  0.82323830  0.34878173  0.87974313  1
  In  In34  1  0.82912483  0.66367797  0.37817667  1
  In  In35  1  0.83002465  0.66430812  0.86821618  1
  In  In36  1  -0.00340800  0.16223213  0.37547920  1
  In  In37  1  0.01477913  0.16744408  0.87483155  1
  In  In38  1  0.00291884  0.48954950  0.37018278  1
  In  In39  1  -0.01541774  0.49988849  0.87434052  1
  In  In40  1  -0.00036144  0.84726751  0.37489936  1
  In  In41  1  -0.00684464  0.82715951  0.86649085  1
  In  In42  1  0.34569392  0.17119464  0.37900096  1
  In  In43  1  0.33244137  0.15656125  0.86349485  1
  In  In44  1  0.32968867  0.51817923  0.38119578  1
  In  In45  1  0.34744638  0.51604017  0.86673097  1
  In  In46  1  0.32774515  0.83474670  0.37724294  1
  In  In47  1  0.34446335  0.84384076  0.87175331  1
  In  In48  1  0.66345029  0.17274536  0.38572971  1
  In  In49  1  0.64972338  0.17821752  0.86555117  1
  In  In50  1  0.66111915  0.50066804  0.38058728  1
  In  In51  1  0.66261124  0.49921935  0.87086900  1
  In  In52  1  0.66275251  0.82002885  0.37765235  1
  In  In53  1  0.67516641  0.82392964  0.87713138  1
  In  In54  1  0.16534009  0.00255831  0.13155419  1
  In  In55  1  0.17944076  -0.01482334  0.63150480  1
  In  In56  1  0.16994391  0.31788922  0.12547231  1
  In  In57  1  0.17567812  0.34532730  0.62529928  1
  In  In58  1  0.17086928  0.68253801  0.12704329  1
  In  In59  1  0.16321649  0.67469929  0.62616500  1
  In  In60  1  0.49887326  -0.01343641  0.12475601  1
  In  In61  1  0.49253746  -0.01590457  0.61966838  1
  In  In62  1  0.49444355  0.34117381  0.11833526  1
  In  In63  1  0.50106477  0.33138929  0.62974733  1
  In  In64  1  0.49822719  0.65951319  0.12269068  1
  In  In65  1  0.49816311  0.67012792  0.62893125  1
  In  In66  1  0.84905437  0.00251073  0.12164040  1
  In  In67  1  0.83352886  0.01425383  0.62705580  1
  In  In68  1  0.84079257  0.35714846  0.12486473  1
  In  In69  1  0.82458271  0.33051627  0.62109041  1
  In  In70  1  0.82779150  0.65910903  0.11523686  1
  In  In71  1  0.84437243  0.65319359  0.62785535  1
  In  In72  1  0.00702363  0.66479736  0.25366377  1
  In  In73  1  0.16606309  0.49757046  0.00109536  1
  In  In74  1  0.16706555  0.50625480  0.50200373  1
  In  In75  1  0.16665086  0.16455513  0.50205992  1
  In  In76  1  0.66295373  0.65919882  0.24797098  1
  In  In77  1  0.17093729  0.83883791  0.00055274  1
  In  In78  1  0.32666040  0.33422487  0.25158047  1
  In  In79  1  0.66985299  0.33341517  0.24365728  1
  In  In80  1  0.66275820  -0.00038895  0.75092842  1
  In  In81  1  0.67369542  -0.00725701  0.25325176  1
  In  In82  1  0.83268501  0.16314753  -0.00198125  1
  In  In83  1  0.00280542  0.33535910  0.75218946  1
  In  In84  1  0.49522912  0.16926136  -0.00747868  1
  In  In85  1  0.83063718  0.83566821  0.49847472  1
  Cu  Cu86  1  0.00381131  -0.00611460  0.00079591  1
  Cu  Cu87  1  -0.01007849  0.66185898  -0.00723171  1
  Cu  Cu88  1  0.16709969  0.16177321  0.75011151  1
  Cu  Cu89  1  0.49520337  0.83111433  0.75071620  1
  Cu  Cu90  1  0.49596446  0.16234656  0.25550232  1
  Cu  Cu91  1  0.33368283  -0.00752047  0.50638844  1
  Cu  Cu92  1  0.49474968  0.50910119  0.25469596  1
  Cu  Cu93  1  0.66862117  0.66294692  -0.00832887  1
  Cu  Cu94  1  0.17232701  0.83651550  0.25184433  1
  Cu  Cu95  1  0.83039973  0.50067939  0.74993338  1
  Cu  Cu96  1  0.84003488  0.83537565  0.24265588  1
  Cu  Cu97  1  0.66213453  -0.00574167  -0.00473085  1
  Cu  Cu98  1  0.48974671  0.83331019  0.25591541  1
  Cu  Cu99  1  0.83333144  0.83048327  0.74805312  1
  Cu  Cu100  1  -0.01123218  0.33602597  0.49887618  1
  Cu  Cu101  1  0.33914118  0.33026686  0.50802378  1
  Cu  Cu102  1  0.83574398  0.17031934  0.74863848  1
  Cu  Cu103  1  0.50379888  0.50348587  0.74680132  1
  Cu  Cu104  1  0.66380657  0.66118218  0.50505241  1
  Cu  Cu105  1  0.16320411  0.16164465  0.25328693  1
  Cu  Cu106  1  0.66620196  0.00443772  0.50485522  1
  Cu  Cu107  1  -0.00053443  0.00032096  0.50023631  1
  Cu  Cu108  1  -0.00199859  0.32806605  -0.00130612  1
  Cu  Cu109  1  0.33887519  0.33892037  -0.00498085  1
  Cu  Cu110  1  0.66838866  0.33923295  0.50563963  1
  Cu  Cu111  1  0.84347956  0.16933042  0.25166632  1
  Cu  Cu112  1  0.16458942  0.83446858  0.74892945  1
  Cu  Cu113  1  0.16712499  0.50412267  0.74814258  1
  Cu  Cu114  1  0.34422993  0.67051850  0.00034037  1
  Se  Se115  1  0.08452334  0.07734811  0.05592482  1
  Se  Se116  1  0.07931039  0.07621931  0.56488587  1
  Se  Se117  1  0.07660699  0.40846365  0.06162831  1
  Se  Se118  1  0.07247710  0.41211603  0.55947026  1
  Se  Se119  1  0.07316806  0.74195160  0.05172244  1
  Se  Se120  1  0.08013145  0.74074141  0.54943459  1
  Se  Se121  1  0.41485384  0.08284196  0.06139621  1
  Se  Se122  1  0.41545274  0.08100332  0.55602425  1
  Se  Se123  1  0.42051242  0.42470933  0.04610670  1
  Se  Se124  1  0.42078537  0.41709659  0.55866739  1
  Se  Se125  1  0.42047282  0.75349378  0.05905531  1
  Se  Se126  1  0.43202318  0.76245928  0.55810664  1
  Se  Se127  1  0.73834211  0.07344953  0.05939453  1
  Se  Se128  1  0.75394312  0.08749474  0.55226101  1
  Se  Se129  1  0.74632335  0.40456568  0.05060935  1
  Se  Se130  1  0.75354450  0.42487175  0.55491436  1
  Se  Se131  1  0.75200797  0.74657227  0.04696968  1
  Se  Se132  1  0.74535541  0.74617068  0.56225818  1
  Se  Se133  1  0.25526090  0.25550323  0.04801507  1
  Se  Se134  1  0.25742502  0.24877486  0.56477228  1
  Se  Se135  1  0.25618725  0.59328097  0.05808734  1
  Se  Se136  1  0.25943655  0.58640042  0.56496516  1
  Se  Se137  1  0.25904368  0.92446332  0.06265388  1
  Se  Se138  1  0.24853796  0.90714341  0.55419883  1
  Se  Se139  1  0.58869363  0.26168823  0.05138738  1
  Se  Se140  1  0.58680183  0.25314015  0.55831420  1
  Se  Se141  1  0.58666690  0.58567925  0.05284080  1
  Se  Se142  1  0.58006942  0.58257287  0.56076148  1
  Se  Se143  1  0.57755217  0.91327153  0.04951645  1
  Se  Se144  1  0.58291530  0.91370382  0.54853513  1
  Se  Se145  1  0.92104805  0.24805540  0.06285461  1
  Se  Se146  1  0.91178444  0.24890644  0.55335788  1
  Se  Se147  1  0.91521498  0.57598222  0.05031325  1
  Se  Se148  1  0.91076196  0.58429996  0.54445676  1
  Se  Se149  1  0.91594266  0.91158563  0.04994077  1
  Se  Se150  1  0.91946470  0.92114659  0.56261201  1
  Se  Se151  1  0.07970280  0.26109656  0.44292691  1
  Se  Se152  1  0.08563760  0.24307920  0.95360736  1
  Se  Se153  1  0.07611848  0.58868420  0.43742075  1
  Se  Se154  1  0.08140506  0.58915129  0.93662321  1
  Se  Se155  1  0.08394048  0.91568337  0.45052494  1
  Se  Se156  1  0.08102256  0.91944229  0.93408167  1
  Se  Se157  1  0.42170373  0.24524414  0.45502602  1
  Se  Se158  1  0.41210559  0.25937003  0.92941227  1
  Se  Se159  1  0.42778049  0.56520775  0.45323138  1
  Se  Se160  1  0.42280209  0.58380784  0.94670244  1
  Se  Se161  1  0.41627862  0.91529602  0.44595793  1
  Se  Se162  1  0.41346323  0.91531500  0.95265261  1
  Se  Se163  1  0.75019675  0.25612943  0.44867618  1
  Se  Se164  1  0.73951611  0.25030228  0.94011480  1
  Se  Se165  1  0.74683661  0.58434375  0.44699397  1
  Se  Se166  1  0.75189862  0.57929126  0.93876659  1
  Se  Se167  1  0.74139768  0.92777548  0.43592254  1
  Se  Se168  1  0.75157037  0.91077385  0.94884191  1
  Se  Se169  1  0.25785790  0.07528959  0.44253568  1
  Se  Se170  1  0.25588207  0.08904873  0.94319067  1
  Se  Se171  1  0.25736089  0.40741959  0.44527232  1
  Se  Se172  1  0.25598724  0.41744597  0.93456588  1
  Se  Se173  1  0.26480347  0.73832087  0.44747701  1
  Se  Se174  1  0.25672720  0.74407387  0.94142534  1
  Se  Se175  1  0.58077889  0.08668968  0.45032092  1
  Se  Se176  1  0.58625487  0.07491035  0.93429150  1
  Se  Se177  1  0.58233605  0.41992149  0.45224574  1
  Se  Se178  1  0.57882735  0.41368386  0.93661945  1
  Se  Se179  1  0.58405562  0.75121768  0.45399685  1
  Se  Se180  1  0.58301114  0.75032807  0.94442405  1
  Se  Se181  1  0.91580439  0.08569108  0.44989862  1
  Se  Se182  1  0.92360469  0.07321530  0.93813463  1
  Se  Se183  1  0.91351300  0.42245903  0.44303492  1
  Se  Se184  1  0.91643578  0.41577671  0.94969336  1
  Se  Se185  1  0.92314527  0.74775244  0.43950933  1
  Se  Se186  1  0.91220786  0.74890979  0.93871881  1
  Se  Se187  1  0.23884883  0.24419676  0.31607925  1
  Se  Se188  1  0.24732315  0.24927101  0.80204201  1
  Se  Se189  1  0.24086014  0.56628801  0.30251287  1
  Se  Se190  1  0.25223725  0.58763584  0.80023032  1
  Se  Se191  1  0.25360832  0.92166540  0.30525920  1
  Se  Se192  1  0.24860042  0.91436102  0.80541957  1
  Se  Se193  1  0.57659858  0.24866196  0.30899248  1
  Se  Se194  1  0.57502974  0.24324252  0.78676004  1
  Se  Se195  1  0.57056324  0.58855896  0.31731430  1
  Se  Se196  1  0.58557177  0.58750035  0.80201326  1
  Se  Se197  1  0.57633769  0.91065529  0.31336826  1
  Se  Se198  1  0.57624729  0.91066443  0.81360362  1
  Se  Se199  1  0.92018418  0.25308574  0.30856296  1
  Se  Se200  1  0.91102632  0.24891910  0.81496056  1
  Se  Se201  1  0.90716583  0.57881801  0.30634967  1
  Se  Se202  1  0.91830719  0.58377109  0.79907256  1
  Se  Se203  1  0.91825621  0.91879827  0.29902845  1
  Se  Se204  1  0.91485718  0.91757476  0.79878246  1
  Se  Se205  1  0.07995224  0.07919874  0.30816882  1
  Se  Se206  1  0.08093487  0.07976171  0.80166154  1
  Se  Se207  1  0.08377744  0.42319209  0.29276268  1
  Se  Se208  1  0.09248942  0.42391100  0.81420946  1
  Se  Se209  1  0.09374807  0.75694218  0.31426887  1
  Se  Se210  1  0.07820250  0.74797384  0.79745471  1
  Se  Se211  1  0.40955591  0.08111327  0.30489444  1
  Se  Se212  1  0.42831228  0.08955814  0.79618027  1
  Se  Se213  1  0.42084749  0.41940909  0.31227756  1
  Se  Se214  1  0.41504695  0.42212141  0.79775120  1
  Se  Se215  1  0.41255467  0.74574014  0.31029150  1
  Se  Se216  1  0.41303775  0.74712198  0.80560650  1
  Se  Se217  1  0.75455903  0.09525678  0.31030752  1
  Se  Se218  1  0.75536158  0.09085767  0.81129130  1
  Se  Se219  1  0.75030173  0.42478954  0.30733471  1
  Se  Se220  1  0.74702177  0.41508067  0.80026958  1
  Se  Se221  1  0.75859370  0.75723667  0.30215546  1
  Se  Se222  1  0.74708293  0.74829580  0.79902436  1
  Se  Se223  1  0.25158042  0.08659328  0.19803668  1
  Se  Se224  1  0.25175509  0.07586053  0.70031509  1
  Se  Se225  1  0.24539551  0.42303057  0.18553885  1
  Se  Se226  1  0.25155305  0.41586182  0.70237307  1
  Se  Se227  1  0.25455116  0.74940342  0.20195804  1
  Se  Se228  1  0.24923901  0.75029822  0.69689026  1
  Se  Se229  1  0.58027926  0.08601571  0.19581139  1
  Se  Se230  1  0.57969837  0.08107398  0.68256982  1
  Se  Se231  1  0.57318398  0.42900950  0.19208614  1
  Se  Se232  1  0.58700245  0.41632980  0.69674367  1
  Se  Se233  1  0.57563217  0.75959952  0.19458574  1
  Se  Se234  1  0.58353844  0.74858259  0.70218788  1
  Se  Se235  1  0.91984966  0.07796083  0.19959793  1
  Se  Se236  1  0.91947898  0.08288704  0.70202982  1
  Se  Se237  1  0.92406014  0.40990749  0.20481206  1
  Se  Se238  1  0.91509224  0.42220182  0.68876899  1
  Se  Se239  1  0.91522001  0.74794148  0.18536127  1
  Se  Se240  1  0.91692421  0.74860305  0.69335561  1
  Se  Se241  1  0.08431006  0.24744870  0.19860554  1
  Se  Se242  1  0.09071662  0.24517934  0.68852607  1
  Se  Se243  1  0.09084242  0.58097091  0.18444923  1
  Se  Se244  1  0.08319737  0.58538440  0.69472537  1
  Se  Se245  1  0.08388732  0.91524561  0.19858670  1
  Se  Se246  1  0.07949719  0.91583639  0.69515760  1
  Se  Se247  1  0.42418463  0.24676450  0.19142208  1
  Se  Se248  1  0.40121653  0.26664672  0.69609272  1
  Se  Se249  1  0.41332558  0.58929709  0.19775660  1
  Se  Se250  1  0.41582015  0.58735104  0.69882139  1
  Se  Se251  1  0.41433399  0.92155188  0.20089618  1
  Se  Se252  1  0.41293557  0.91608091  0.69797205  1
  Se  Se253  1  0.76254250  0.24098278  0.18614211  1
  Se  Se254  1  0.75119424  0.25320184  0.69821035  1
  Se  Se255  1  0.75708962  0.57077981  0.19161278  1
  Se  Se256  1  0.74943810  0.58639516  0.69666614  1
  Se  Se257  1  0.75330691  0.90727410  0.18212261  1
  Se  Se258  1  0.75280020  0.91089048  0.68739661  1
