# generated using pymatgen
data_In86Cu29Se144
_symmetry_space_group_name_H-M   'P 1'
_cell_length_a   17.57606917
_cell_length_b   17.57447861
_cell_length_c   23.43203072
_cell_angle_alpha   89.99311256
_cell_angle_beta   90.00229680
_cell_angle_gamma   90.01915241
_symmetry_Int_Tables_number   1
_chemical_formula_structural   In86Cu29Se144
_chemical_formula_sum   'In86 Cu29 Se144'
_cell_volume   7237.92540350
_cell_formula_units_Z   1
loop_
 _symmetry_equiv_pos_site_id
 _symmetry_equiv_pos_as_xyz
  1  'x, y, z'
loop_
 _atom_site_type_symbol
 _atom_site_label
 _atom_site_symmetry_multiplicity
 _atom_site_fract_x
 _atom_site_fract_y
 _atom_site_fract_z
 _atom_site_occupancy
  In  In0  1  -0.00059358  0.16238824  0.11153847  1
  In  In1  1  -0.00170424  0.16822125  0.62797999  1
  In  In2  1  0.01542644  0.49706766  0.12193960  1
  In  In3  1  0.00255765  0.49833925  0.62782026  1
  In  In4  1  -0.00821797  0.82711803  0.11848331  1
  In  In5  1  0.00209629  0.83740149  0.63864568  1
  In  In6  1  0.32565531  0.16598471  0.13061256  1
  In  In7  1  0.33411233  0.17047022  0.63190154  1
  In  In8  1  0.31761086  0.50234595  0.12658626  1
  In  In9  1  0.31737097  0.50684735  0.62470924  1
  In  In10  1  0.34412322  0.84860443  0.10748475  1
  In  In11  1  0.34624011  0.83430931  0.62126295  1
  In  In12  1  0.65858607  0.14966530  0.12228902  1
  In  In13  1  0.65519369  0.15652458  0.61940851  1
  In  In14  1  0.66364017  0.50392924  0.12736762  1
  In  In15  1  0.66967392  0.48494552  0.62136717  1
  In  In16  1  0.67225185  0.84065289  0.11733700  1
  In  In17  1  0.66157281  0.85073173  0.62727068  1
  In  In18  1  0.17619981  0.00109552  0.37811294  1
  In  In19  1  0.16940615  0.00118846  0.87600954  1
  In  In20  1  0.17673771  0.32698000  0.38602119  1
  In  In21  1  0.16228653  0.33124254  0.87153358  1
  In  In22  1  0.15596206  0.67068239  0.37185337  1
  In  In23  1  0.16378363  0.68013599  0.89120492  1
  In  In24  1  0.50080836  0.00227019  0.37833039  1
  In  In25  1  0.48861483  -0.00447119  0.85895964  1
  In  In26  1  0.47948857  0.33235749  0.37599637  1
  In  In27  1  0.48251561  0.33262617  0.86218810  1
  In  In28  1  0.50612179  0.67360681  0.37798097  1
  In  In29  1  0.50395385  0.67506470  0.88080322  1
  In  In30  1  0.82960247  0.01417816  0.37728650  1
  In  In31  1  0.83441372  0.00087429  0.86865081  1
  In  In32  1  0.83792509  0.33245902  0.38467678  1
  In  In33  1  0.84006740  0.30865068  0.86673471  1
  In  In34  1  0.83684709  0.65838911  0.37829734  1
  In  In35  1  0.84322506  0.66541494  0.87666672  1
  In  In36  1  -0.00343159  0.17262602  0.38826372  1
  In  In37  1  -0.00127475  0.16626309  0.86616002  1
  In  In38  1  0.00017580  0.50595634  0.38309935  1
  In  In39  1  0.00922056  0.51049420  0.86620328  1
  In  In40  1  0.01550280  0.82978312  0.37104364  1
  In  In41  1  0.00223567  0.83224890  0.87635720  1
  In  In42  1  0.33070628  0.16615055  0.38068221  1
  In  In43  1  0.32356852  0.15471255  0.85827240  1
  In  In44  1  0.33448777  0.48497021  0.37584694  1
  In  In45  1  0.32808484  0.48198072  0.86991911  1
  In  In46  1  0.33677505  0.85091042  0.36991421  1
  In  In47  1  0.32616793  0.84094286  0.88844634  1
  In  In48  1  0.67330146  0.15506644  0.38003681  1
  In  In49  1  0.68773078  0.15963284  0.86917912  1
  In  In50  1  0.67151978  0.51136039  0.38208057  1
  In  In51  1  0.66026744  0.50521271  0.87457837  1
  In  In52  1  0.65155884  0.84036665  0.37513356  1
  In  In53  1  0.65141389  0.84381872  0.88891042  1
  In  In54  1  0.17622619  0.01019257  0.11478419  1
  In  In55  1  0.15455300  0.01315281  0.63552683  1
  In  In56  1  0.17074384  0.33778941  0.11759671  1
  In  In57  1  0.16649477  0.33357239  0.62857692  1
  In  In58  1  0.16561681  0.65817177  0.11579688  1
  In  In59  1  0.16859577  0.65435162  0.62482742  1
  In  In60  1  0.50343955  -0.01334567  0.13732777  1
  In  In61  1  0.49873101  0.00605415  0.62999286  1
  In  In62  1  0.49135814  0.31283378  0.12694343  1
  In  In63  1  0.50133459  0.31599317  0.63288564  1
  In  In64  1  0.49582706  0.68643815  0.11472920  1
  In  In65  1  0.48064800  0.67589651  0.61636209  1
  In  In66  1  0.82847445  -0.01000106  0.11464385  1
  In  In67  1  0.81409835  0.02599978  0.65056429  1
  In  In68  1  0.84553817  0.33293997  0.11836100  1
  In  In69  1  0.84003061  0.34106024  0.62065219  1
  In  In70  1  0.83203821  0.68948403  0.12180425  1
  In  In71  1  0.85002759  0.66526765  0.62996441  1
  In  In72  1  0.33492503  0.67203665  0.24587128  1
  In  In73  1  0.17572244  0.83402651  0.49759756  1
  In  In74  1  0.50141822  0.49487204  0.49996901  1
  In  In75  1  0.49317230  0.50475331  0.00419713  1
  In  In76  1  0.83662765  0.50051128  -0.01251275  1
  In  In77  1  0.50003597  0.16127913  -0.00692305  1
  In  In78  1  0.66565349  0.66945328  0.75653904  1
  In  In79  1  0.32834933  0.66643545  0.74923043  1
  In  In80  1  0.66715609  0.67437459  0.24431624  1
  In  In81  1  0.66775387  0.32850327  0.74732394  1
  In  In82  1  0.83501735  0.83597295  0.51014395  1
  In  In83  1  0.00740925  0.32825763  0.25592710  1
  In  In84  1  0.00091795  -0.00461991  0.24953621  1
  In  In85  1  0.66725400  0.32692420  0.25824608  1
  Cu  Cu86  1  0.83010944  0.83709225  0.24437824  1
  Cu  Cu87  1  0.48859566  0.15764296  0.25404178  1
  Cu  Cu88  1  0.84526680  0.50717529  0.25667746  1
  Cu  Cu89  1  0.33112816  0.33021312  0.50599125  1
  Cu  Cu90  1  0.00113768  0.32275945  -0.00736196  1
  Cu  Cu91  1  0.33899995  0.00580535  -0.00541445  1
  Cu  Cu92  1  -0.00422663  0.00495204  0.51138308  1
  Cu  Cu93  1  0.17102634  0.83447135  0.76120618  1
  Cu  Cu94  1  0.67085070  0.33572215  -0.01071875  1
  Cu  Cu95  1  0.00656616  0.33741877  0.50729344  1
  Cu  Cu96  1  0.49375174  0.49655801  0.25003542  1
  Cu  Cu97  1  0.00290248  -0.00065769  -0.01002176  1
  Cu  Cu98  1  0.32243949  0.32843321  -0.00128728  1
  Cu  Cu99  1  0.83610373  0.49538071  0.74982740  1
  Cu  Cu100  1  0.49806022  0.83840524  0.74999482  1
  Cu  Cu101  1  0.16968738  0.16462773  0.25186338  1
  Cu  Cu102  1  0.67062036  0.32342730  0.50222214  1
  Cu  Cu103  1  -0.00176608  0.66682354  -0.00047740  1
  Cu  Cu104  1  0.83806325  0.83191178  0.75348279  1
  Cu  Cu105  1  0.82487280  0.15976735  0.24602914  1
  Cu  Cu106  1  0.16917967  0.49722669  0.24486751  1
  Cu  Cu107  1  0.00437647  0.66156432  0.50354094  1
  Cu  Cu108  1  0.16257736  0.49831616  0.74963454  1
  Cu  Cu109  1  0.67054372  0.00043106  -0.00154337  1
  Cu  Cu110  1  0.16719129  0.16958032  0.74965696  1
  Cu  Cu111  1  0.16743168  0.83019614  0.24467195  1
  Cu  Cu112  1  0.33379020  0.00862655  0.50320082  1
  Cu  Cu113  1  0.66128690  0.00301111  0.50606315  1
  Cu  Cu114  1  0.67086613  0.66861399  0.49943617  1
  Se  Se115  1  0.08570609  0.08310821  0.04545583  1
  Se  Se116  1  0.08549866  0.08923263  0.55615057  1
  Se  Se117  1  0.07957556  0.40944565  0.04796856  1
  Se  Se118  1  0.09032189  0.42248648  0.55787212  1
  Se  Se119  1  0.08300891  0.74945579  0.05275651  1
  Se  Se120  1  0.07868659  0.75170141  0.56038743  1
  Se  Se121  1  0.41627443  0.07893029  0.06273702  1
  Se  Se122  1  0.41658103  0.08874398  0.56021666  1
  Se  Se123  1  0.40805925  0.40288262  0.06033198  1
  Se  Se124  1  0.41404095  0.41001386  0.56563779  1
  Se  Se125  1  0.39315069  0.73482006  0.04605094  1
  Se  Se126  1  0.41164606  0.75643266  0.54242508  1
  Se  Se127  1  0.75155939  0.08646477  0.05163132  1
  Se  Se128  1  0.75368411  0.07975095  0.55756170  1
  Se  Se129  1  0.74381426  0.41501055  0.05541954  1
  Se  Se130  1  0.75243286  0.41518444  0.54754581  1
  Se  Se131  1  0.74952932  0.75543115  0.04821864  1
  Se  Se132  1  0.74407542  0.74342541  0.56854644  1
  Se  Se133  1  0.24656884  0.24090431  0.05496833  1
  Se  Se134  1  0.24817481  0.24758993  0.56035065  1
  Se  Se135  1  0.24302192  0.56911453  0.04873978  1
  Se  Se136  1  0.26056910  0.59860086  0.55106787  1
  Se  Se137  1  0.24881378  0.92236682  0.04348796  1
  Se  Se138  1  0.25115369  0.92876337  0.56354490  1
  Se  Se139  1  0.59169648  0.25608463  0.05294202  1
  Se  Se140  1  0.57884549  0.24888692  0.55314822  1
  Se  Se141  1  0.59270755  0.59503091  0.05721769  1
  Se  Se142  1  0.58897632  0.58945798  0.56131496  1
  Se  Se143  1  0.58163401  0.92507876  0.05487656  1
  Se  Se144  1  0.57481471  0.91925770  0.55539995  1
  Se  Se145  1  0.91236477  0.24571573  0.04616015  1
  Se  Se146  1  0.91980319  0.25142633  0.55498477  1
  Se  Se147  1  0.91829952  0.58410943  0.06040634  1
  Se  Se148  1  0.91818390  0.58044779  0.55606505  1
  Se  Se149  1  0.92100450  0.91776974  0.04817907  1
  Se  Se150  1  0.91746756  0.92664174  0.57244417  1
  Se  Se151  1  0.08617380  0.25070763  0.45274957  1
  Se  Se152  1  0.08535672  0.24141495  0.93938033  1
  Se  Se153  1  0.09162736  0.58511948  0.44843056  1
  Se  Se154  1  0.08038485  0.58112283  0.94728637  1
  Se  Se155  1  0.07345116  0.92700417  0.44639258  1
  Se  Se156  1  0.08999412  0.91277463  0.94393792  1
  Se  Se157  1  0.41494881  0.24807906  0.45168600  1
  Se  Se158  1  0.40518905  0.25184534  0.93853760  1
  Se  Se159  1  0.41430223  0.58535997  0.43830495  1
  Se  Se160  1  0.40684722  0.58175356  0.93469298  1
  Se  Se161  1  0.41300029  0.92232153  0.44807686  1
  Se  Se162  1  0.42622144  0.92335212  0.94395903  1
  Se  Se163  1  0.75449293  0.24314224  0.44645571  1
  Se  Se164  1  0.75467451  0.24661131  0.94447749  1
  Se  Se165  1  0.75791637  0.58320749  0.45361819  1
  Se  Se166  1  0.73753860  0.59573811  0.94257354  1
  Se  Se167  1  0.74499020  0.92195614  0.44598922  1
  Se  Se168  1  0.75536123  0.91981918  0.94346047  1
  Se  Se169  1  0.24417038  0.08704138  0.45136462  1
  Se  Se170  1  0.25455539  0.08874895  0.94240862  1
  Se  Se171  1  0.25196619  0.41925106  0.45320873  1
  Se  Se172  1  0.24311586  0.41370506  0.94464054  1
  Se  Se173  1  0.25959557  0.74683222  0.43194973  1
  Se  Se174  1  0.26648142  0.74106798  0.95585440  1
  Se  Se175  1  0.58082222  0.08652575  0.44970104  1
  Se  Se176  1  0.59148289  0.07513077  0.93314939  1
  Se  Se177  1  0.59201243  0.40398134  0.43751055  1
  Se  Se178  1  0.57784687  0.40961248  0.93836448  1
  Se  Se179  1  0.58616126  0.75258904  0.44975845  1
  Se  Se180  1  0.57762469  0.75211275  0.95467370  1
  Se  Se181  1  0.91334193  0.08352769  0.45156806  1
  Se  Se182  1  0.91809893  0.08341858  0.93847004  1
  Se  Se183  1  0.92182234  0.41714478  0.44955600  1
  Se  Se184  1  0.92438908  0.40659604  0.93105606  1
  Se  Se185  1  0.92729179  0.74979645  0.44500730  1
  Se  Se186  1  0.91635814  0.75181532  0.94743366  1
  Se  Se187  1  0.24802479  0.24869307  0.30885673  1
  Se  Se188  1  0.25053359  0.25720745  0.80019859  1
  Se  Se189  1  0.24843964  0.57815409  0.30767079  1
  Se  Se190  1  0.23827447  0.58170592  0.81252281  1
  Se  Se191  1  0.24176512  0.91759270  0.30112551  1
  Se  Se192  1  0.25845012  0.91811261  0.80901778  1
  Se  Se193  1  0.57136500  0.23945315  0.31357217  1
  Se  Se194  1  0.58275857  0.24188070  0.81242388  1
  Se  Se195  1  0.57841757  0.57628425  0.30524798  1
  Se  Se196  1  0.56638023  0.57736470  0.80560706  1
  Se  Se197  1  0.58354060  0.92636552  0.30488217  1
  Se  Se198  1  0.58891417  0.91393020  0.80325038  1
  Se  Se199  1  0.90566617  0.23879453  0.30710134  1
  Se  Se200  1  0.91808443  0.24137239  0.79074512  1
  Se  Se201  1  0.92819530  0.59025719  0.30778752  1
  Se  Se202  1  0.91464602  0.58568090  0.80095144  1
  Se  Se203  1  0.90851109  0.90955860  0.31345164  1
  Se  Se204  1  0.92347044  0.91515475  0.80501281  1
  Se  Se205  1  0.08217311  0.09191316  0.31236475  1
  Se  Se206  1  0.08915674  0.08127121  0.80381807  1
  Se  Se207  1  0.09385063  0.42236113  0.31321487  1
  Se  Se208  1  0.07833613  0.41329359  0.80108441  1
  Se  Se209  1  0.08161138  0.74698269  0.29446466  1
  Se  Se210  1  0.08810216  0.74586597  0.80957023  1
  Se  Se211  1  0.40665507  0.07803144  0.31110050  1
  Se  Se212  1  0.42881907  0.09781150  0.79486989  1
  Se  Se213  1  0.40953736  0.41111409  0.29815375  1
  Se  Se214  1  0.41316801  0.42106989  0.79328193  1
  Se  Se215  1  0.42721867  0.75897145  0.30634133  1
  Se  Se216  1  0.41763929  0.75754456  0.81005170  1
  Se  Se217  1  0.74374175  0.07771383  0.30056771  1
  Se  Se218  1  0.75837358  0.08138335  0.79375934  1
  Se  Se219  1  0.75989090  0.42661443  0.31131908  1
  Se  Se220  1  0.75464476  0.42119580  0.81212829  1
  Se  Se221  1  0.75671674  0.75704583  0.31262979  1
  Se  Se222  1  0.75327130  0.75927547  0.81638117  1
  Se  Se223  1  0.24739170  0.07651663  0.19843284  1
  Se  Se224  1  0.25223631  0.08281163  0.70021035  1
  Se  Se225  1  0.25019818  0.40813931  0.19598940  1
  Se  Se226  1  0.25016170  0.41888300  0.69753591  1
  Se  Se227  1  0.24685251  0.75542031  0.18132316  1
  Se  Se228  1  0.24198981  0.76065082  0.68877549  1
  Se  Se229  1  0.57958176  0.08353911  0.20022127  1
  Se  Se230  1  0.59622049  0.07220442  0.69750532  1
  Se  Se231  1  0.57683993  0.41506900  0.19198067  1
  Se  Se232  1  0.57480103  0.42407395  0.69373403  1
  Se  Se233  1  0.57495034  0.76497952  0.19000779  1
  Se  Se234  1  0.57372576  0.75280250  0.69011032  1
  Se  Se235  1  0.91293794  0.08598392  0.18786310  1
  Se  Se236  1  0.93981604  0.06586971  0.69583541  1
  Se  Se237  1  0.91628945  0.42058296  0.19509724  1
  Se  Se238  1  0.91977057  0.41370032  0.69668934  1
  Se  Se239  1  0.91793791  0.75213673  0.19813846  1
  Se  Se240  1  0.92208394  0.74664760  0.70367536  1
  Se  Se241  1  0.08731675  0.23877101  0.18847166  1
  Se  Se242  1  0.08210248  0.25213361  0.69694354  1
  Se  Se243  1  0.08693160  0.58277566  0.19382399  1
  Se  Se244  1  0.08163539  0.58602112  0.69773038  1
  Se  Se245  1  0.08898298  0.91309017  0.18348634  1
  Se  Se246  1  0.08868494  0.91697441  0.70503152  1
  Se  Se247  1  0.40921670  0.24593479  0.20224341  1
  Se  Se248  1  0.41895786  0.24472901  0.70540855  1
  Se  Se249  1  0.42631778  0.58028832  0.18458926  1
  Se  Se250  1  0.42196047  0.57952345  0.68943472  1
  Se  Se251  1  0.40392626  0.91144232  0.19519299  1
  Se  Se252  1  0.41264186  0.91873705  0.69660088  1
  Se  Se253  1  0.75326226  0.24792340  0.18621450  1
  Se  Se254  1  0.75306633  0.24581305  0.68176877  1
  Se  Se255  1  0.76318109  0.57881043  0.19177735  1
  Se  Se256  1  0.75177660  0.57581027  0.69213120  1
  Se  Se257  1  0.74838314  0.92099395  0.19266421  1
  Se  Se258  1  0.74998348  0.91161497  0.70202233  1
