# generated using pymatgen
data_In86Cu29Se144
_symmetry_space_group_name_H-M   'P 1'
_cell_length_a   17.58396858
_cell_length_b   17.58319426
_cell_length_c   23.43477462
_cell_angle_alpha   89.97175951
_cell_angle_beta   90.00292901
_cell_angle_gamma   90.00183200
_symmetry_Int_Tables_number   1
_chemical_formula_structural   In86Cu29Se144
_chemical_formula_sum   'In86 Cu29 Se144'
_cell_volume   7245.61745643
_cell_formula_units_Z   1
loop_
 _symmetry_equiv_pos_site_id
 _symmetry_equiv_pos_as_xyz
  1  'x, y, z'
loop_
 _atom_site_type_symbol
 _atom_site_label
 _atom_site_symmetry_multiplicity
 _atom_site_fract_x
 _atom_site_fract_y
 _atom_site_fract_z
 _atom_site_occupancy
  In  In0  1  -0.00081104  0.16793277  0.12874946  1
  In  In1  1  0.00117574  0.16940988  0.61673835  1
  In  In2  1  -0.00103516  0.50269782  0.12534912  1
  In  In3  1  0.01237463  0.50660412  0.62532654  1
  In  In4  1  0.02689192  0.81268968  0.14757951  1
  In  In5  1  -0.00873439  0.83311664  0.62430369  1
  In  In6  1  0.32252136  0.15704693  0.11731865  1
  In  In7  1  0.32188220  0.16471424  0.62770041  1
  In  In8  1  0.33047556  0.51731501  0.12697271  1
  In  In9  1  0.34362605  0.49898603  0.62531982  1
  In  In10  1  0.32555187  0.83144251  0.13123458  1
  In  In11  1  0.33423218  0.83280761  0.63346753  1
  In  In12  1  0.67995071  0.18188713  0.10674945  1
  In  In13  1  0.67962624  0.16362976  0.62932838  1
  In  In14  1  0.67706939  0.48942242  0.12883217  1
  In  In15  1  0.65536274  0.50367339  0.62675820  1
  In  In16  1  0.65048361  0.82527257  0.11952762  1
  In  In17  1  0.67092061  0.82469665  0.62106230  1
  In  In18  1  0.17587827  0.00452556  0.36426042  1
  In  In19  1  0.16868466  -0.00528364  0.88322785  1
  In  In20  1  0.15328462  0.33727406  0.36968665  1
  In  In21  1  0.16862951  0.33207675  0.88811865  1
  In  In22  1  0.17273038  0.67246665  0.35599688  1
  In  In23  1  0.16577597  0.66832376  0.87869283  1
  In  In24  1  0.48488595  0.00096094  0.36994235  1
  In  In25  1  0.48202237  0.01321058  0.88139043  1
  In  In26  1  0.51593146  0.33323630  0.37164593  1
  In  In27  1  0.50044150  0.31668471  0.87306585  1
  In  In28  1  0.49182897  0.65171028  0.37003525  1
  In  In29  1  0.50405206  0.68288159  0.88292789  1
  In  In30  1  0.84414218  -0.00531069  0.37821947  1
  In  In31  1  0.84570699  0.00303346  0.88033271  1
  In  In32  1  0.83466895  0.33122648  0.37166686  1
  In  In33  1  0.82346452  0.33619006  0.88468972  1
  In  In34  1  0.84208781  0.67559881  0.36407909  1
  In  In35  1  0.83121584  0.65299375  0.88074891  1
  In  In36  1  0.00149567  0.16705622  0.37254101  1
  In  In37  1  -0.00278933  0.16431192  0.88696647  1
  In  In38  1  0.01888489  0.50560002  0.35273281  1
  In  In39  1  -0.00696697  0.50500337  0.88610915  1
  In  In40  1  -0.00350734  0.82444161  0.35921215  1
  In  In41  1  0.01533187  0.83736928  0.87906212  1
  In  In42  1  0.33237146  0.15104452  0.37073112  1
  In  In43  1  0.33290356  0.15801703  0.87816616  1
  In  In44  1  0.34093749  0.51990353  0.37466489  1
  In  In45  1  0.31696710  0.50010412  0.88092067  1
  In  In46  1  0.32408327  0.82628120  0.36129951  1
  In  In47  1  0.33004568  0.83346067  0.87822194  1
  In  In48  1  0.67152352  0.18316780  0.37034563  1
  In  In49  1  0.64835519  0.18594211  0.89353017  1
  In  In50  1  0.66059250  0.49090341  0.36799813  1
  In  In51  1  0.68094350  0.49563031  0.88641654  1
  In  In52  1  0.68045692  0.83602568  0.37263230  1
  In  In53  1  0.65181008  0.81596666  0.88458231  1
  In  In54  1  0.16384712  -0.00121859  0.13156385  1
  In  In55  1  0.17129166  0.01197645  0.62564502  1
  In  In56  1  0.15867783  0.32824631  0.11995386  1
  In  In57  1  0.17653678  0.32394066  0.62375088  1
  In  In58  1  0.16615998  0.66382115  0.12616387  1
  In  In59  1  0.16717357  0.66610235  0.63399395  1
  In  In60  1  0.49008118  -0.00661531  0.11747036  1
  In  In61  1  0.49407078  -0.00475945  0.63149304  1
  In  In62  1  0.52008707  0.33182010  0.11880073  1
  In  In63  1  0.50007534  0.34784463  0.62702604  1
  In  In64  1  0.48675352  0.67212468  0.13344796  1
  In  In65  1  0.49803232  0.65818582  0.62531759  1
  In  In66  1  0.84257898  0.01175331  0.12434018  1
  In  In67  1  0.83773680  0.00322443  0.61595758  1
  In  In68  1  0.82846954  0.33756353  0.12135429  1
  In  In69  1  0.83591931  0.32113691  0.62512608  1
  In  In70  1  0.84177097  0.65494274  0.12916492  1
  In  In71  1  0.83225477  0.67563854  0.62219273  1
  In  In72  1  0.33339185  0.33155663  0.75406613  1
  In  In73  1  0.16963790  0.49785266  0.49297038  1
  In  In74  1  0.49872650  0.50285819  0.00486372  1
  In  In75  1  0.50291647  0.83089546  0.50615604  1
  In  In76  1  0.00700388  -0.00003124  0.74946713  1
  In  In77  1  0.66293289  0.00460139  0.75395480  1
  In  In78  1  0.66138230  0.66540592  0.75242199  1
  In  In79  1  0.50398656  0.16741673  0.49802075  1
  In  In80  1  0.66640861  0.00283162  0.24131734  1
  In  In81  1  0.16421528  0.82948021  0.48418713  1
  In  In82  1  0.83393120  0.49794412  0.48923752  1
  In  In83  1  0.83893986  0.84091004  0.00721288  1
  In  In84  1  0.33276842  0.33629000  0.23827452  1
  In  In85  1  0.00444042  0.33521415  0.74467813  1
  Cu  Cu86  1  0.83412137  0.82768067  0.74519854  1
  Cu  Cu87  1  0.33454454  0.32910358  0.50211419  1
  Cu  Cu88  1  0.66943346  0.33587808  0.49567948  1
  Cu  Cu89  1  0.17236808  0.82928983  0.75736635  1
  Cu  Cu90  1  0.50376676  0.16388400  0.24438971  1
  Cu  Cu91  1  0.16300686  0.50738758  0.75611323  1
  Cu  Cu92  1  0.00028397  0.32618607  0.49280748  1
  Cu  Cu93  1  0.67502878  0.00812736  0.49555625  1
  Cu  Cu94  1  0.50353009  0.49987717  0.24558877  1
  Cu  Cu95  1  0.32947525  -0.00317328  0.00204401  1
  Cu  Cu96  1  -0.00251846  0.67311099  0.49101016  1
  Cu  Cu97  1  0.32764056  0.67717408  0.00516248  1
  Cu  Cu98  1  0.49799213  0.83172202  0.24557722  1
  Cu  Cu99  1  0.83064407  0.17338864  0.75394618  1
  Cu  Cu100  1  0.82977253  0.83303305  0.24643811  1
  Cu  Cu101  1  0.67046824  0.66992589  0.49818169  1
  Cu  Cu102  1  0.83377916  0.17271966  0.24642033  1
  Cu  Cu103  1  0.83528104  0.49893498  0.76058638  1
  Cu  Cu104  1  0.33087408  0.33370042  0.00128525  1
  Cu  Cu105  1  -0.00040337  0.00315818  0.49606677  1
  Cu  Cu106  1  0.32489717  -0.00343989  0.49663790  1
  Cu  Cu107  1  0.66358535  -0.00403420  0.00272757  1
  Cu  Cu108  1  0.16532788  0.16767780  0.24536345  1
  Cu  Cu109  1  0.49988649  0.50316916  0.75145807  1
  Cu  Cu110  1  -0.00744244  0.33472419  0.00481003  1
  Cu  Cu111  1  0.83264967  0.49535701  0.24809877  1
  Cu  Cu112  1  0.00953400  -0.00032126  0.01023671  1
  Cu  Cu113  1  0.00272430  0.66847501  0.00782342  1
  Cu  Cu114  1  0.48919451  0.83916721  0.75767997  1
  Se  Se115  1  0.08863379  0.08896411  0.06098252  1
  Se  Se116  1  0.08366697  0.08069430  0.55317012  1
  Se  Se117  1  0.07934854  0.41833486  0.05435969  1
  Se  Se118  1  0.07866681  0.40570584  0.55623333  1
  Se  Se119  1  0.08707466  0.75436818  0.05684142  1
  Se  Se120  1  0.08033296  0.74431989  0.55614162  1
  Se  Se121  1  0.41533520  0.08455786  0.04958768  1
  Se  Se122  1  0.41144182  0.07430892  0.55475651  1
  Se  Se123  1  0.40791799  0.41126931  0.06543329  1
  Se  Se124  1  0.41690818  0.41607805  0.55147676  1
  Se  Se125  1  0.41415707  0.75513926  0.05932735  1
  Se  Se126  1  0.40592655  0.74248722  0.55895829  1
  Se  Se127  1  0.75342108  0.07648155  0.05091776  1
  Se  Se128  1  0.75464391  0.09120145  0.55153541  1
  Se  Se129  1  0.73657189  0.40595426  0.05044534  1
  Se  Se130  1  0.74769966  0.41570418  0.55934047  1
  Se  Se131  1  0.75213709  0.74452902  0.06172260  1
  Se  Se132  1  0.75572138  0.75417409  0.54772737  1
  Se  Se133  1  0.24570297  0.24894571  0.05211963  1
  Se  Se134  1  0.25028275  0.24323517  0.54991963  1
  Se  Se135  1  0.24718191  0.58496793  0.05131941  1
  Se  Se136  1  0.25196751  0.58594601  0.55998443  1
  Se  Se137  1  0.24765194  0.91824432  0.06071148  1
  Se  Se138  1  0.24916111  0.91268620  0.55671549  1
  Se  Se139  1  0.57725372  0.24379283  0.04281539  1
  Se  Se140  1  0.59156895  0.25698010  0.56045975  1
  Se  Se141  1  0.58300160  0.58592581  0.07119185  1
  Se  Se142  1  0.58706519  0.58927476  0.55306510  1
  Se  Se143  1  0.57663551  0.91187518  0.04985263  1
  Se  Se144  1  0.59499603  0.93087287  0.55890139  1
  Se  Se145  1  0.91419473  0.24705224  0.05833941  1
  Se  Se146  1  0.91476459  0.24932966  0.54904167  1
  Se  Se147  1  0.91498069  0.58048116  0.05093811  1
  Se  Se148  1  0.92358467  0.58798287  0.55309273  1
  Se  Se149  1  0.93518560  0.91470375  0.07134847  1
  Se  Se150  1  0.91976551  0.91650791  0.55066769  1
  Se  Se151  1  0.08953376  0.24651033  0.44269919  1
  Se  Se152  1  0.07867983  0.25163573  0.95230450  1
  Se  Se153  1  0.08080128  0.59319285  0.43488875  1
  Se  Se154  1  0.08372487  0.58589350  0.94940743  1
  Se  Se155  1  0.07432493  0.92447215  0.43083963  1
  Se  Se156  1  0.08768362  0.91401927  0.95504578  1
  Se  Se157  1  0.41314373  0.25347207  0.43532683  1
  Se  Se158  1  0.40992852  0.25098111  0.94473795  1
  Se  Se159  1  0.42483677  0.58042341  0.45191306  1
  Se  Se160  1  0.40648151  0.59258440  0.94438551  1
  Se  Se161  1  0.40784277  0.91349613  0.44160950  1
  Se  Se162  1  0.41444247  0.91543585  0.94729834  1
  Se  Se163  1  0.75431157  0.25211217  0.44588427  1
  Se  Se164  1  0.77046173  0.22598603  0.94493087  1
  Se  Se165  1  0.74520403  0.59183720  0.43299427  1
  Se  Se166  1  0.73932035  0.59512975  0.95295529  1
  Se  Se167  1  0.75385722  0.91752849  0.44607831  1
  Se  Se168  1  0.74329814  0.91798666  0.93883334  1
  Se  Se169  1  0.24540588  0.08321280  0.44452419  1
  Se  Se170  1  0.24699416  0.08425006  0.95011158  1
  Se  Se171  1  0.26043335  0.40654279  0.43502205  1
  Se  Se172  1  0.24408177  0.42164318  0.95639365  1
  Se  Se173  1  0.26041115  0.73352282  0.43817669  1
  Se  Se174  1  0.24351896  0.75580137  0.94802870  1
  Se  Se175  1  0.58965273  0.07717676  0.43304938  1
  Se  Se176  1  0.57979736  0.07894203  0.94933710  1
  Se  Se177  1  0.58284548  0.41913285  0.44696278  1
  Se  Se178  1  0.58139388  0.40959527  0.94248480  1
  Se  Se179  1  0.58816988  0.74874896  0.43736897  1
  Se  Se180  1  0.58311838  0.74236196  0.96341147  1
  Se  Se181  1  0.91595831  0.08883516  0.44459806  1
  Se  Se182  1  0.92032372  0.07744286  0.95689761  1
  Se  Se183  1  0.93504659  0.41824458  0.43237351  1
  Se  Se184  1  0.90981577  0.41862111  0.95038546  1
  Se  Se185  1  0.91593510  0.75728172  0.43894603  1
  Se  Se186  1  0.92350461  0.74741035  0.94295033  1
  Se  Se187  1  0.24947015  0.24653551  0.30597710  1
  Se  Se188  1  0.23888794  0.24636864  0.81161845  1
  Se  Se189  1  0.23200154  0.55491573  0.30798939  1
  Se  Se190  1  0.25075623  0.58744098  0.80726987  1
  Se  Se191  1  0.25728868  0.92213513  0.29713827  1
  Se  Se192  1  0.24904282  0.91931117  0.80882073  1
  Se  Se193  1  0.58514135  0.24996539  0.29604013  1
  Se  Se194  1  0.59105197  0.24819511  0.80424981  1
  Se  Se195  1  0.58602486  0.58309703  0.30120494  1
  Se  Se196  1  0.57827383  0.57703854  0.81791625  1
  Se  Se197  1  0.57747345  0.91383522  0.30685972  1
  Se  Se198  1  0.57751847  0.91162269  0.81584412  1
  Se  Se199  1  0.91882705  0.25110913  0.30314348  1
  Se  Se200  1  0.91768691  0.24987536  0.81108791  1
  Se  Se201  1  0.91632884  0.58271790  0.29838535  1
  Se  Se202  1  0.91954036  0.58425731  0.80833050  1
  Se  Se203  1  0.91192384  0.91794467  0.29907062  1
  Se  Se204  1  0.91239162  0.90765123  0.80647329  1
  Se  Se205  1  0.08338544  0.08554236  0.30204780  1
  Se  Se206  1  0.08759700  0.08971628  0.81389206  1
  Se  Se207  1  0.07959771  0.40305209  0.28976158  1
  Se  Se208  1  0.08706473  0.42074729  0.81369642  1
  Se  Se209  1  0.09488793  0.76167089  0.29307015  1
  Se  Se210  1  0.08223196  0.74935945  0.80639479  1
  Se  Se211  1  0.41623892  0.08311762  0.29456781  1
  Se  Se212  1  0.41851949  0.09229416  0.80291873  1
  Se  Se213  1  0.42247401  0.41843420  0.30697224  1
  Se  Se214  1  0.42015798  0.42550744  0.81485572  1
  Se  Se215  1  0.42028774  0.74621253  0.30276705  1
  Se  Se216  1  0.41451151  0.74753578  0.80974176  1
  Se  Se217  1  0.75509175  0.08759079  0.30710381  1
  Se  Se218  1  0.75822569  0.08710193  0.81371797  1
  Se  Se219  1  0.75031200  0.41181906  0.30311564  1
  Se  Se220  1  0.74917671  0.41567746  0.80818827  1
  Se  Se221  1  0.74584646  0.74924912  0.29843158  1
  Se  Se222  1  0.75340707  0.75624588  0.81071349  1
  Se  Se223  1  0.25292178  0.08378002  0.19748226  1
  Se  Se224  1  0.25644490  0.07651352  0.69971355  1
  Se  Se225  1  0.23784075  0.42677938  0.18646246  1
  Se  Se226  1  0.24069303  0.42548170  0.69388131  1
  Se  Se227  1  0.25531270  0.73610136  0.19700150  1
  Se  Se228  1  0.25357645  0.74659237  0.70038925  1
  Se  Se229  1  0.58197670  0.09066421  0.17773401  1
  Se  Se230  1  0.57406279  0.09395438  0.69235090  1
  Se  Se231  1  0.58614557  0.41192798  0.19740428  1
  Se  Se232  1  0.58506197  0.41949697  0.70082820  1
  Se  Se233  1  0.58444298  0.74679342  0.19863646  1
  Se  Se234  1  0.57139554  0.76235301  0.69396668  1
  Se  Se235  1  0.91883037  0.08459064  0.20117597  1
  Se  Se236  1  0.91083910  0.09219776  0.69292192  1
  Se  Se237  1  0.91460430  0.41462958  0.19144931  1
  Se  Se238  1  0.90968027  0.42800179  0.68849941  1
  Se  Se239  1  0.91441864  0.74539872  0.19893762  1
  Se  Se240  1  0.91959814  0.74433780  0.69554877  1
  Se  Se241  1  0.08166452  0.25380505  0.19706817  1
  Se  Se242  1  0.09384674  0.23642265  0.69303731  1
  Se  Se243  1  0.06573767  0.59909011  0.19245520  1
  Se  Se244  1  0.07814328  0.58822911  0.70178232  1
  Se  Se245  1  0.06987336  0.93247256  0.20163032  1
  Se  Se246  1  0.09505367  0.90556742  0.68972206  1
  Se  Se247  1  0.42395809  0.24349533  0.18229497  1
  Se  Se248  1  0.42155338  0.24785261  0.68827165  1
  Se  Se249  1  0.41153253  0.58462303  0.20438006  1
  Se  Se250  1  0.41511777  0.58473259  0.69897719  1
  Se  Se251  1  0.41611744  0.91799951  0.19491299  1
  Se  Se252  1  0.40899688  0.92210292  0.70221514  1
  Se  Se253  1  0.74700881  0.24931115  0.19133832  1
  Se  Se254  1  0.74850981  0.25606310  0.69978808  1
  Se  Se255  1  0.74923806  0.58159413  0.19752704  1
  Se  Se256  1  0.75797551  0.57800633  0.69349957  1
  Se  Se257  1  0.75313119  0.90957570  0.18166995  1
  Se  Se258  1  0.75513553  0.91381823  0.68993292  1
