# generated using pymatgen
data_In86Cu29Se144
_symmetry_space_group_name_H-M   'P 1'
_cell_length_a   17.57381173
_cell_length_b   17.57603085
_cell_length_c   23.43191465
_cell_angle_alpha   90.02120535
_cell_angle_beta   89.98594683
_cell_angle_gamma   90.00836051
_symmetry_Int_Tables_number   1
_chemical_formula_structural   In86Cu29Se144
_chemical_formula_sum   'In86 Cu29 Se144'
_cell_volume   7237.59879751
_cell_formula_units_Z   1
loop_
 _symmetry_equiv_pos_site_id
 _symmetry_equiv_pos_as_xyz
  1  'x, y, z'
loop_
 _atom_site_type_symbol
 _atom_site_label
 _atom_site_symmetry_multiplicity
 _atom_site_fract_x
 _atom_site_fract_y
 _atom_site_fract_z
 _atom_site_occupancy
  In  In0  1  -0.00321724  0.17698697  0.12044696  1
  In  In1  1  0.01131713  0.16191589  0.62576191  1
  In  In2  1  0.00503039  0.50389550  0.12256883  1
  In  In3  1  -0.01497533  0.51122527  0.64292450  1
  In  In4  1  -0.00910214  0.82916655  0.12418183  1
  In  In5  1  -0.00189774  0.83157455  0.62097807  1
  In  In6  1  0.35696419  0.15085908  0.14858317  1
  In  In7  1  0.33057346  0.17443416  0.62482936  1
  In  In8  1  0.33531955  0.50373929  0.13068544  1
  In  In9  1  0.33218614  0.50136555  0.63241405  1
  In  In10  1  0.34835415  0.82795168  0.12921575  1
  In  In11  1  0.32907877  0.82787285  0.61402879  1
  In  In12  1  0.66209688  0.16493091  0.12192917  1
  In  In13  1  0.66326392  0.16633647  0.63520855  1
  In  In14  1  0.66734330  0.49027760  0.11660750  1
  In  In15  1  0.67016710  0.50106300  0.64203833  1
  In  In16  1  0.67408124  0.83589402  0.11356059  1
  In  In17  1  0.66749359  0.83277191  0.62836372  1
  In  In18  1  0.16867004  -0.00504724  0.37889132  1
  In  In19  1  0.16629855  -0.00812971  0.87403676  1
  In  In20  1  0.17106133  0.32019306  0.37728720  1
  In  In21  1  0.17019598  0.34034419  0.86810190  1
  In  In22  1  0.17278426  0.67977129  0.36882307  1
  In  In23  1  0.16035848  0.66548568  0.86259853  1
  In  In24  1  0.49193621  -0.00781327  0.36457434  1
  In  In25  1  0.51443782  -0.01600605  0.88608446  1
  In  In26  1  0.48559953  0.31789501  0.35671205  1
  In  In27  1  0.49671375  0.32726803  0.87707753  1
  In  In28  1  0.49765629  0.68134039  0.37603999  1
  In  In29  1  0.50687129  0.67177191  0.87442235  1
  In  In30  1  0.81726622  -0.00238937  0.37074557  1
  In  In31  1  0.81926950  0.01038396  0.88501515  1
  In  In32  1  0.82666931  0.33432113  0.37137517  1
  In  In33  1  0.83146876  0.33500837  0.87685703  1
  In  In34  1  0.84400654  0.66559183  0.37294683  1
  In  In35  1  0.83262583  0.66867926  0.88466493  1
  In  In36  1  0.00352519  0.17786229  0.37737099  1
  In  In37  1  -0.01506244  0.16893617  0.88256530  1
  In  In38  1  -0.01563502  0.50440539  0.37462444  1
  In  In39  1  -0.02501842  0.48922050  0.85480997  1
  In  In40  1  0.00713261  0.82841879  0.37972176  1
  In  In41  1  -0.01737970  0.79042430  0.85657460  1
  In  In42  1  0.31457192  0.14178241  0.34497545  1
  In  In43  1  0.33574201  0.17783103  0.87922855  1
  In  In44  1  0.32983225  0.50244963  0.36757050  1
  In  In45  1  0.33467895  0.50088630  0.86993171  1
  In  In46  1  0.33396413  0.83433676  0.37432591  1
  In  In47  1  0.34285925  0.82787129  0.87633998  1
  In  In48  1  0.63980843  0.14834721  0.34453391  1
  In  In49  1  0.66310488  0.16574294  0.87641305  1
  In  In50  1  0.66948130  0.48322869  0.37347842  1
  In  In51  1  0.69435006  0.52071878  0.86053215  1
  In  In52  1  0.65649154  0.83903246  0.38320710  1
  In  In53  1  0.66373862  0.82813556  0.87980859  1
  In  In54  1  0.18505810  0.01318683  0.13308247  1
  In  In55  1  0.16888635  0.00203513  0.61325397  1
  In  In56  1  0.17076231  0.33500017  0.12855929  1
  In  In57  1  0.16958153  0.32850010  0.63141584  1
  In  In58  1  0.17026933  0.66496351  0.13222369  1
  In  In59  1  0.15989739  0.68442936  0.63673491  1
  In  In60  1  0.50652411  0.00302076  0.12945728  1
  In  In61  1  0.51433821  -0.00272505  0.62592650  1
  In  In62  1  0.51374775  0.32356980  0.13401700  1
  In  In63  1  0.49883402  0.33282975  0.63538043  1
  In  In64  1  0.48765720  0.66702796  0.11436267  1
  In  In65  1  0.49183717  0.67801390  0.63500598  1
  In  In66  1  0.81774252  -0.00847684  0.11910109  1
  In  In67  1  0.83319646  -0.01348998  0.62666284  1
  In  In68  1  0.82629607  0.31375849  0.10219817  1
  In  In69  1  0.82792367  0.34208116  0.64010296  1
  In  In70  1  0.83926072  0.67550944  0.11014806  1
  In  In71  1  0.82356389  0.67704084  0.64001771  1
  In  In72  1  -0.00261326  -0.00156454  0.74696440  1
  In  In73  1  0.15979381  0.50625074  0.51084140  1
  In  In74  1  0.16241243  0.83511767  -0.00940102  1
  In  In75  1  0.16861817  0.16879053  0.00459039  1
  In  In76  1  0.83288811  0.16680040  0.49649652  1
  In  In77  1  0.49308457  0.16010453  0.48949262  1
  In  In78  1  0.50335043  0.50156200  0.50976442  1
  In  In79  1  0.82925389  0.50473589  0.50996188  1
  In  In80  1  0.16527433  0.50132090  0.00279006  1
  In  In81  1  0.50848567  0.50058906  -0.00750192  1
  In  In82  1  0.00321105  0.33624606  0.24626732  1
  In  In83  1  0.00135120  -0.00451033  0.25316876  1
  In  In84  1  0.33782196  -0.00457942  0.75435590  1
  In  In85  1  0.66099087  0.66472947  0.24520939  1
  Cu  Cu86  1  0.16526263  0.17094084  0.75227158  1
  Cu  Cu87  1  0.66240400  0.00412346  0.00104200  1
  Cu  Cu88  1  0.33564097  -0.00012290  0.49032258  1
  Cu  Cu89  1  0.16815775  0.83299084  0.25364752  1
  Cu  Cu90  1  0.16940832  0.50028083  0.74691443  1
  Cu  Cu91  1  0.82555883  0.83796035  0.75547724  1
  Cu  Cu92  1  0.66110781  0.32421462  0.49622645  1
  Cu  Cu93  1  0.33726336  0.67478547  0.50023858  1
  Cu  Cu94  1  0.00389017  0.67672655  0.50017817  1
  Cu  Cu95  1  0.34194187  0.32942207  0.00685682  1
  Cu  Cu96  1  0.32214216  0.32774726  0.50089349  1
  Cu  Cu97  1  -0.00153566  0.66039733  -0.00498181  1
  Cu  Cu98  1  0.67105679  -0.01010088  0.50066000  1
  Cu  Cu99  1  0.82698612  0.17057686  0.75897145  1
  Cu  Cu100  1  0.82693985  0.82600110  0.24174867  1
  Cu  Cu101  1  0.49752960  0.83507172  0.24941617  1
  Cu  Cu102  1  0.50705497  0.83000230  0.75451713  1
  Cu  Cu103  1  0.50300413  0.49339818  0.75792201  1
  Cu  Cu104  1  0.16260336  0.50837616  0.25078031  1
  Cu  Cu105  1  -0.00614693  -0.00583514  0.00112983  1
  Cu  Cu106  1  0.00155080  0.33005251  0.50725642  1
  Cu  Cu107  1  0.00229306  -0.00253902  0.50019638  1
  Cu  Cu108  1  0.83655567  0.50052236  0.24339941  1
  Cu  Cu109  1  0.33868470  0.00213698  0.00884467  1
  Cu  Cu110  1  0.49948765  0.50518483  0.24350418  1
  Cu  Cu111  1  0.66712717  0.33189562  -0.00491064  1
  Cu  Cu112  1  0.67285993  0.67226310  0.50577773  1
  Cu  Cu113  1  0.49933981  0.16377464  0.75347350  1
  Cu  Cu114  1  0.82624738  0.16311053  0.23864632  1
  Se  Se115  1  0.07940685  0.06994014  0.06114603  1
  Se  Se116  1  0.08410421  0.08717437  0.54785386  1
  Se  Se117  1  0.07729072  0.40233632  0.05597798  1
  Se  Se118  1  0.06913081  0.41670155  0.56983498  1
  Se  Se119  1  0.08014836  0.74025562  0.05640218  1
  Se  Se120  1  0.09090266  0.75520486  0.55412253  1
  Se  Se121  1  0.41927991  0.08729548  0.06127748  1
  Se  Se122  1  0.41020096  0.07386537  0.56035336  1
  Se  Se123  1  0.42073453  0.41725595  0.06142899  1
  Se  Se124  1  0.40636313  0.40474165  0.55954216  1
  Se  Se125  1  0.41765979  0.75966140  0.04716738  1
  Se  Se126  1  0.42778019  0.75222836  0.55175924  1
  Se  Se127  1  0.74962880  0.08735802  0.05222943  1
  Se  Se128  1  0.74276491  0.07927137  0.55957152  1
  Se  Se129  1  0.75265780  0.41731472  0.04481391  1
  Se  Se130  1  0.73610849  0.40637422  0.55936337  1
  Se  Se131  1  0.74572536  0.74609309  0.04547855  1
  Se  Se132  1  0.75662659  0.75317296  0.55938663  1
  Se  Se133  1  0.26366858  0.24816597  0.06738787  1
  Se  Se134  1  0.24041077  0.24530478  0.55487720  1
  Se  Se135  1  0.25903589  0.59274570  0.05697055  1
  Se  Se136  1  0.25804254  0.59547436  0.56220393  1
  Se  Se137  1  0.25073875  0.91963340  0.06002081  1
  Se  Se138  1  0.25285429  0.91826322  0.54733482  1
  Se  Se139  1  0.58253242  0.25284070  0.05193995  1
  Se  Se140  1  0.57976439  0.24784633  0.55835708  1
  Se  Se141  1  0.59317759  0.59337730  0.05479955  1
  Se  Se142  1  0.59562307  0.59048274  0.56729384  1
  Se  Se143  1  0.58004718  0.92001676  0.05504657  1
  Se  Se144  1  0.58457069  0.91071410  0.55406879  1
  Se  Se145  1  0.92901244  0.24836368  0.04087101  1
  Se  Se146  1  0.91369567  0.25497541  0.56513005  1
  Se  Se147  1  0.91875597  0.57698631  0.05108625  1
  Se  Se148  1  0.92292036  0.59820029  0.56165398  1
  Se  Se149  1  0.91090606  0.91182250  0.05567191  1
  Se  Se150  1  0.91636195  0.91675274  0.55247714  1
  Se  Se151  1  0.08454370  0.25108550  0.45166672  1
  Se  Se152  1  0.08535560  0.25646211  0.93917389  1
  Se  Se153  1  0.07628361  0.58938981  0.43987562  1
  Se  Se154  1  0.07833678  0.58107858  0.93463128  1
  Se  Se155  1  0.08663752  0.91347579  0.44794641  1
  Se  Se156  1  0.06395111  0.91762617  0.93357954  1
  Se  Se157  1  0.40182356  0.25403604  0.43695236  1
  Se  Se158  1  0.42277539  0.24521028  0.95294460  1
  Se  Se159  1  0.41228584  0.58572030  0.44350269  1
  Se  Se160  1  0.40921291  0.58915807  0.94127382  1
  Se  Se161  1  0.42202976  0.91517058  0.44266668  1
  Se  Se162  1  0.41100943  0.91746023  0.94808772  1
  Se  Se163  1  0.73776825  0.24575847  0.43379148  1
  Se  Se164  1  0.75084517  0.24558581  0.94415044  1
  Se  Se165  1  0.74131342  0.58749884  0.44011245  1
  Se  Se166  1  0.75043008  0.58194568  0.95031736  1
  Se  Se167  1  0.75658391  0.90994844  0.44709852  1
  Se  Se168  1  0.74463513  0.91617054  0.94929462  1
  Se  Se169  1  0.25561971  0.08772922  0.43802913  1
  Se  Se170  1  0.25605122  0.07387836  0.94336171  1
  Se  Se171  1  0.24970010  0.42009846  0.44533948  1
  Se  Se172  1  0.26133237  0.40807321  0.94664183  1
  Se  Se173  1  0.25047783  0.75254940  0.44525388  1
  Se  Se174  1  0.25100169  0.73771487  0.93861123  1
  Se  Se175  1  0.59429056  0.07272620  0.43803595  1
  Se  Se176  1  0.57820193  0.08817424  0.94889451  1
  Se  Se177  1  0.57674062  0.40674531  0.44161442  1
  Se  Se178  1  0.59792571  0.41562727  0.93032553  1
  Se  Se179  1  0.58307121  0.74740605  0.45124537  1
  Se  Se180  1  0.56482853  0.76468753  0.94801733  1
  Se  Se181  1  0.92244947  0.07395296  0.43610265  1
  Se  Se182  1  0.91154693  0.08384753  0.95342881  1
  Se  Se183  1  0.91754680  0.40762533  0.44786993  1
  Se  Se184  1  0.91701953  0.42235873  0.94087900  1
  Se  Se185  1  0.91373861  0.75163939  0.44578945  1
  Se  Se186  1  0.91800755  0.75673235  0.95186957  1
  Se  Se187  1  0.25784491  0.26380702  0.30132005  1
  Se  Se188  1  0.25305959  0.24962215  0.80526811  1
  Se  Se189  1  0.25023809  0.59037465  0.30197831  1
  Se  Se190  1  0.25282818  0.58270454  0.80101536  1
  Se  Se191  1  0.25035030  0.91816053  0.30571299  1
  Se  Se192  1  0.24337427  0.90237519  0.80604555  1
  Se  Se193  1  0.60906649  0.27981471  0.30504559  1
  Se  Se194  1  0.58159667  0.24894503  0.80621556  1
  Se  Se195  1  0.57693352  0.57591222  0.31363649  1
  Se  Se196  1  0.58395484  0.58527751  0.80458000  1
  Se  Se197  1  0.58707753  0.91287968  0.30255699  1
  Se  Se198  1  0.58913331  0.91611135  0.80586063  1
  Se  Se199  1  0.90657100  0.24008136  0.30236625  1
  Se  Se200  1  0.91744071  0.25017670  0.80670168  1
  Se  Se201  1  0.91672926  0.58463109  0.29751048  1
  Se  Se202  1  0.94171836  0.62243784  0.81551283  1
  Se  Se203  1  0.90628149  0.90416993  0.30709449  1
  Se  Se204  1  0.90946174  0.91707569  0.81490130  1
  Se  Se205  1  0.08700664  0.09143348  0.31010847  1
  Se  Se206  1  0.08574480  0.08993617  0.81177784  1
  Se  Se207  1  0.08782633  0.42518131  0.31417953  1
  Se  Se208  1  0.08402273  0.41816236  0.79972097  1
  Se  Se209  1  0.07775937  0.75073042  0.30127342  1
  Se  Se210  1  0.09976011  0.76615588  0.79537535  1
  Se  Se211  1  0.45123895  0.11428155  0.31113307  1
  Se  Se212  1  0.42394753  0.08365692  0.81724399  1
  Se  Se213  1  0.41595923  0.42390001  0.30010537  1
  Se  Se214  1  0.41513294  0.41020446  0.80675394  1
  Se  Se215  1  0.41416490  0.75045867  0.30211951  1
  Se  Se216  1  0.41839851  0.74709160  0.80269793  1
  Se  Se217  1  0.74813537  0.07565687  0.29292186  1
  Se  Se218  1  0.74478445  0.08092671  0.80554983  1
  Se  Se219  1  0.75472781  0.41774047  0.29759513  1
  Se  Se220  1  0.75037804  0.41066131  0.80262302  1
  Se  Se221  1  0.74909753  0.75154550  0.30966765  1
  Se  Se222  1  0.75078195  0.74878461  0.81107918  1
  Se  Se223  1  0.25583457  0.08425743  0.21217946  1
  Se  Se224  1  0.24342173  0.08555007  0.69395537  1
  Se  Se225  1  0.24419565  0.42533441  0.19585312  1
  Se  Se226  1  0.25316436  0.41230224  0.69800651  1
  Se  Se227  1  0.25220597  0.75467631  0.19528397  1
  Se  Se228  1  0.27348826  0.74114090  0.69197232  1
  Se  Se229  1  0.57894480  0.09556460  0.19738555  1
  Se  Se230  1  0.58302843  0.07916737  0.70183490  1
  Se  Se231  1  0.58808217  0.42368881  0.19498160  1
  Se  Se232  1  0.58550360  0.41069281  0.70275142  1
  Se  Se233  1  0.57489752  0.75633614  0.18533885  1
  Se  Se234  1  0.59105742  0.74617421  0.69962554  1
  Se  Se235  1  0.91466400  0.08256112  0.18601113  1
  Se  Se236  1  0.90405671  0.09357120  0.69125173  1
  Se  Se237  1  0.90932380  0.41407847  0.18241893  1
  Se  Se238  1  0.91935510  0.41298172  0.70649652  1
  Se  Se239  1  0.91346825  0.74294583  0.19322081  1
  Se  Se240  1  0.91577132  0.76357374  0.69844726  1
  Se  Se241  1  0.09320945  0.23683587  0.19502408  1
  Se  Se242  1  0.07898465  0.24987159  0.69822658  1
  Se  Se243  1  0.07733593  0.58722178  0.19652287  1
  Se  Se244  1  0.08484320  0.58905121  0.69990178  1
  Se  Se245  1  0.09226129  0.91092053  0.18720087  1
  Se  Se246  1  0.09316201  0.91583454  0.68743249  1
  Se  Se247  1  0.40225363  0.27493660  0.19529827  1
  Se  Se248  1  0.41446664  0.24449676  0.69872508  1
  Se  Se249  1  0.41785278  0.59297953  0.19500663  1
  Se  Se250  1  0.42499933  0.57555630  0.69745497  1
  Se  Se251  1  0.41581532  0.92306973  0.19779740  1
  Se  Se252  1  0.42624972  0.90869606  0.69134273  1
  Se  Se253  1  0.75122873  0.25318608  0.18563613  1
  Se  Se254  1  0.74389783  0.25187878  0.70159822  1
  Se  Se255  1  0.75487294  0.58079841  0.18420857  1
  Se  Se256  1  0.77258439  0.56735259  0.70158993  1
  Se  Se257  1  0.74261472  0.91268732  0.19443712  1
  Se  Se258  1  0.74516985  0.92061696  0.69939108  1
