# generated using pymatgen
data_In86Cu29Se144
_symmetry_space_group_name_H-M   'P 1'
_cell_length_a   17.58304889
_cell_length_b   17.58986478
_cell_length_c   23.44466083
_cell_angle_alpha   89.98229547
_cell_angle_beta   90.00929133
_cell_angle_gamma   89.96895086
_symmetry_Int_Tables_number   1
_chemical_formula_structural   In86Cu29Se144
_chemical_formula_sum   'In86 Cu29 Se144'
_cell_volume   7251.04413374
_cell_formula_units_Z   1
loop_
 _symmetry_equiv_pos_site_id
 _symmetry_equiv_pos_as_xyz
  1  'x, y, z'
loop_
 _atom_site_type_symbol
 _atom_site_label
 _atom_site_symmetry_multiplicity
 _atom_site_fract_x
 _atom_site_fract_y
 _atom_site_fract_z
 _atom_site_occupancy
  In  In0  1  0.00993584  0.17109263  0.12145325  1
  In  In1  1  0.01690913  0.16822316  0.62283105  1
  In  In2  1  -0.00398711  0.49893013  0.13482554  1
  In  In3  1  -0.01679676  0.49825014  0.61927408  1
  In  In4  1  -0.01721129  0.83252668  0.12486002  1
  In  In5  1  -0.00012985  0.83130099  0.61994455  1
  In  In6  1  0.32728960  0.16011793  0.11976669  1
  In  In7  1  0.33861108  0.17278612  0.63671185  1
  In  In8  1  0.33666544  0.49100937  0.12100354  1
  In  In9  1  0.34472105  0.49145925  0.63060291  1
  In  In10  1  0.36113307  0.83789751  0.12575397  1
  In  In11  1  0.34329885  0.82207587  0.63305271  1
  In  In12  1  0.65428281  0.18055687  0.12763560  1
  In  In13  1  0.65249385  0.17246129  0.64287045  1
  In  In14  1  0.65223890  0.50173439  0.13271745  1
  In  In15  1  0.66881413  0.50498326  0.62467012  1
  In  In16  1  0.65688588  0.83174221  0.12839258  1
  In  In17  1  0.65345547  0.84361212  0.63334745  1
  In  In18  1  0.18066063  -0.00247807  0.38131143  1
  In  In19  1  0.18810303  0.00598548  0.87234192  1
  In  In20  1  0.15386242  0.33219589  0.37744688  1
  In  In21  1  0.16364474  0.32000172  0.87110966  1
  In  In22  1  0.16642620  0.67829463  0.37100272  1
  In  In23  1  0.16820209  0.65351399  0.87259040  1
  In  In24  1  0.48779162  -0.01290861  0.35902543  1
  In  In25  1  0.49872002  -0.00270722  0.87900576  1
  In  In26  1  0.51268869  0.34224659  0.37180755  1
  In  In27  1  0.50012962  0.33236880  0.87213174  1
  In  In28  1  0.51230983  0.65769529  0.38513429  1
  In  In29  1  0.50544875  0.66695354  0.87520962  1
  In  In30  1  0.81929797  0.01089417  0.37371437  1
  In  In31  1  0.81708293  -0.00248628  0.87677851  1
  In  In32  1  0.84112133  0.33687456  0.37184559  1
  In  In33  1  0.83420842  0.33562433  0.86950668  1
  In  In34  1  0.82385198  0.65934301  0.37143741  1
  In  In35  1  0.83073851  0.68068923  0.87936333  1
  In  In36  1  -0.00101115  0.17518850  0.38074542  1
  In  In37  1  0.00643474  0.18427178  0.87896205  1
  In  In38  1  -0.01038771  0.49550213  0.37382807  1
  In  In39  1  0.00755954  0.48921046  0.87361372  1
  In  In40  1  0.00677833  0.82758746  0.36868469  1
  In  In41  1  -0.00824569  0.82430805  0.88118182  1
  In  In42  1  0.33754990  0.14822969  0.38549232  1
  In  In43  1  0.33745667  0.16327487  0.87513436  1
  In  In44  1  0.34670103  0.50607141  0.37907083  1
  In  In45  1  0.34459547  0.51095256  0.86620701  1
  In  In46  1  0.34010029  0.85066041  0.37264875  1
  In  In47  1  0.35394275  0.85100965  0.86546209  1
  In  In48  1  0.65999162  0.16584718  0.36459658  1
  In  In49  1  0.64278383  0.15029336  0.85573670  1
  In  In50  1  0.66776871  0.50507456  0.37727318  1
  In  In51  1  0.65410551  0.48848304  0.86599157  1
  In  In52  1  0.64839130  0.81784580  0.36284898  1
  In  In53  1  0.66427485  0.83171566  0.87796635  1
  In  In54  1  0.16841186  0.01608894  0.12227741  1
  In  In55  1  0.17429528  0.01886361  0.61647366  1
  In  In56  1  0.16483845  0.32253009  0.12499262  1
  In  In57  1  0.17758785  0.32274528  0.63235856  1
  In  In58  1  0.16632800  0.65473026  0.12989620  1
  In  In59  1  0.16995367  0.67543170  0.62546548  1
  In  In60  1  0.49648710  -0.00046727  0.12756154  1
  In  In61  1  0.50424530  -0.00196639  0.63286793  1
  In  In62  1  0.50869339  0.34082856  0.11035536  1
  In  In63  1  0.49553326  0.34050365  0.63433949  1
  In  In64  1  0.51215825  0.67455687  0.12035713  1
  In  In65  1  0.50406676  0.66722533  0.62608101  1
  In  In66  1  0.82834575  -0.01554424  0.12146130  1
  In  In67  1  0.82312046  -0.00679175  0.62465665  1
  In  In68  1  0.82861804  0.33704701  0.13015144  1
  In  In69  1  0.82108024  0.34307036  0.63332643  1
  In  In70  1  0.81418142  0.67256551  0.13552293  1
  In  In71  1  0.83403462  0.65162548  0.61855365  1
  In  In72  1  0.33526320  0.33076937  0.25487294  1
  In  In73  1  0.83286241  0.16872337  0.49962020  1
  In  In74  1  -0.00472537  0.00051525  0.24872391  1
  In  In75  1  0.82848381  0.49892691  -0.00522236  1
  In  In76  1  0.16976732  0.49818674  0.49516411  1
  In  In77  1  0.50083793  0.16787624  0.50901280  1
  In  In78  1  0.33688776  0.67018948  0.24781103  1
  In  In79  1  0.16786347  0.83423971  0.50115905  1
  In  In80  1  0.00037508  0.00037435  0.73989417  1
  In  In81  1  0.00200270  0.66087736  0.74113895  1
  In  In82  1  0.16995019  0.49360932  0.00192879  1
  In  In83  1  0.83083108  0.83259811  0.49556330  1
  In  In84  1  0.82773483  0.16639681  -0.00360497  1
  In  In85  1  0.17120821  0.83487426  -0.00452159  1
  Cu  Cu86  1  0.00180019  0.00304707  0.00223903  1
  Cu  Cu87  1  0.65886093  0.00192013  0.50202456  1
  Cu  Cu88  1  0.67224445  0.34584259  0.50026847  1
  Cu  Cu89  1  0.16548586  0.16663201  0.24836073  1
  Cu  Cu90  1  0.00032198  0.33405349  0.49944279  1
  Cu  Cu91  1  0.83099386  0.16985852  0.24817510  1
  Cu  Cu92  1  0.82997134  0.49731534  0.25338255  1
  Cu  Cu93  1  0.17327109  0.83099266  0.74971511  1
  Cu  Cu94  1  0.66273709  0.32903633  -0.00821537  1
  Cu  Cu95  1  0.82666696  0.82792909  0.24723120  1
  Cu  Cu96  1  0.34351442  0.66802433  0.50452170  1
  Cu  Cu97  1  0.16968716  0.16707669  0.75112625  1
  Cu  Cu98  1  0.82339757  0.83496791  0.75189942  1
  Cu  Cu99  1  0.49616171  0.16701832  0.24689957  1
  Cu  Cu100  1  0.50355265  0.50520884  0.74882539  1
  Cu  Cu101  1  0.83410963  0.50409710  0.74894506  1
  Cu  Cu102  1  0.15671261  0.49774578  0.25499831  1
  Cu  Cu103  1  0.17403330  0.48884222  0.74991970  1
  Cu  Cu104  1  0.66492841  0.67007875  0.49915015  1
  Cu  Cu105  1  0.16611848  0.83516806  0.25000446  1
  Cu  Cu106  1  0.34246203  0.67235221  -0.00913765  1
  Cu  Cu107  1  0.66066350  -0.00332051  -0.00073769  1
  Cu  Cu108  1  0.33863906  0.32800412  0.50920146  1
  Cu  Cu109  1  -0.00911049  0.66819589  0.00704028  1
  Cu  Cu110  1  0.33925437  0.00355799  -0.00175251  1
  Cu  Cu111  1  0.50358865  0.82867842  0.75420496  1
  Cu  Cu112  1  0.66420756  0.66943795  0.00476557  1
  Cu  Cu113  1  0.33624802  0.33021922  -0.00506123  1
  Cu  Cu114  1  0.83437216  0.16951536  0.75617285  1
  Se  Se115  1  0.08618926  0.08918624  0.04859218  1
  Se  Se116  1  0.07406107  0.07617093  0.55016543  1
  Se  Se117  1  0.07353672  0.41180987  0.06098450  1
  Se  Se118  1  0.08505784  0.40976699  0.56133070  1
  Se  Se119  1  0.08248959  0.74508505  0.06047398  1
  Se  Se120  1  0.07290399  0.73611939  0.55177370  1
  Se  Se121  1  0.42081789  0.08548243  0.05457503  1
  Se  Se122  1  0.41034699  0.07663841  0.56403812  1
  Se  Se123  1  0.41601938  0.41923058  0.04594394  1
  Se  Se124  1  0.42283837  0.41575698  0.55510974  1
  Se  Se125  1  0.42288270  0.75080838  0.05023703  1
  Se  Se126  1  0.42466671  0.75421779  0.55571645  1
  Se  Se127  1  0.74060702  0.07860214  0.06030465  1
  Se  Se128  1  0.73606946  0.08575257  0.56110599  1
  Se  Se129  1  0.73903700  0.40984294  0.05541111  1
  Se  Se130  1  0.75700928  0.42504550  0.55488742  1
  Se  Se131  1  0.74620871  0.75280787  0.05836118  1
  Se  Se132  1  0.74259853  0.75062920  0.56299952  1
  Se  Se133  1  0.25174518  0.25337777  0.05293433  1
  Se  Se134  1  0.25603433  0.24407838  0.55940655  1
  Se  Se135  1  0.26161771  0.59479264  0.05350881  1
  Se  Se136  1  0.25747018  0.58736828  0.55940708  1
  Se  Se137  1  0.25787489  0.92203199  0.06000990  1
  Se  Se138  1  0.25932218  0.91515293  0.56369700  1
  Se  Se139  1  0.57984856  0.24411823  0.04451934  1
  Se  Se140  1  0.59546190  0.26240567  0.56100725  1
  Se  Se141  1  0.58328615  0.57858583  0.05318459  1
  Se  Se142  1  0.58444086  0.58479797  0.55473836  1
  Se  Se143  1  0.57907965  0.91626423  0.05717449  1
  Se  Se144  1  0.57857196  0.91780660  0.55612782  1
  Se  Se145  1  0.91544499  0.25603015  0.05815025  1
  Se  Se146  1  0.91861110  0.25810859  0.56341165  1
  Se  Se147  1  0.91150206  0.58579196  0.06421079  1
  Se  Se148  1  0.92359606  0.58878516  0.54666882  1
  Se  Se149  1  0.91697261  0.91654421  0.04863619  1
  Se  Se150  1  0.92146262  0.92631327  0.55522329  1
  Se  Se151  1  0.08589867  0.24734654  0.45286653  1
  Se  Se152  1  0.08933303  0.25361566  0.95189403  1
  Se  Se153  1  0.08171010  0.58901762  0.43626013  1
  Se  Se154  1  0.07198864  0.58939632  0.94707147  1
  Se  Se155  1  0.07426198  0.92057192  0.44009347  1
  Se  Se156  1  0.07964093  0.92565774  0.93562342  1
  Se  Se157  1  0.41779164  0.25751137  0.43956780  1
  Se  Se158  1  0.42071044  0.24786317  0.94283140  1
  Se  Se159  1  0.42401020  0.57914236  0.45424644  1
  Se  Se160  1  0.42275931  0.58057201  0.94390920  1
  Se  Se161  1  0.41674725  0.92897863  0.44452244  1
  Se  Se162  1  0.42052097  0.91220887  0.95176334  1
  Se  Se163  1  0.74014820  0.25510630  0.43908818  1
  Se  Se164  1  0.73990449  0.24890201  0.93054331  1
  Se  Se165  1  0.75029235  0.58532573  0.44975310  1
  Se  Se166  1  0.73721409  0.58961463  0.93793029  1
  Se  Se167  1  0.73603768  0.92175636  0.43969817  1
  Se  Se168  1  0.74827754  0.91299536  0.95003573  1
  Se  Se169  1  0.24370022  0.08578471  0.45449994  1
  Se  Se170  1  0.25142051  0.08722750  0.95005260  1
  Se  Se171  1  0.26335046  0.40411983  0.43998352  1
  Se  Se172  1  0.25811913  0.41423607  0.93425309  1
  Se  Se173  1  0.26330734  0.74511530  0.44145236  1
  Se  Se174  1  0.25723794  0.74707666  0.93144977  1
  Se  Se175  1  0.58300781  0.08326687  0.43950608  1
  Se  Se176  1  0.58414393  0.08453216  0.94452595  1
  Se  Se177  1  0.58245928  0.42292072  0.44778918  1
  Se  Se178  1  0.57884446  0.41844663  0.94458081  1
  Se  Se179  1  0.58128482  0.75777481  0.45028527  1
  Se  Se180  1  0.58111130  0.75109173  0.94808478  1
  Se  Se181  1  0.92056550  0.07321328  0.44215581  1
  Se  Se182  1  0.92213215  0.07768712  0.93614943  1
  Se  Se183  1  0.91413686  0.41566911  0.44882347  1
  Se  Se184  1  0.92589512  0.40615091  0.94531791  1
  Se  Se185  1  0.92136954  0.74371703  0.43691859  1
  Se  Se186  1  0.90933405  0.75398790  0.95579149  1
  Se  Se187  1  0.24448488  0.24143152  0.31438026  1
  Se  Se188  1  0.25605632  0.24827414  0.80407161  1
  Se  Se189  1  0.24525162  0.57522796  0.30943377  1
  Se  Se190  1  0.24960645  0.58299633  0.79854607  1
  Se  Se191  1  0.24794896  0.91926727  0.30214360  1
  Se  Se192  1  0.25472262  0.91831860  0.79942852  1
  Se  Se193  1  0.57843648  0.25284343  0.29889637  1
  Se  Se194  1  0.59196678  0.26503113  0.80091613  1
  Se  Se195  1  0.58509549  0.58623751  0.30759984  1
  Se  Se196  1  0.58741954  0.58875076  0.80186890  1
  Se  Se197  1  0.60529937  0.93639459  0.30722760  1
  Se  Se198  1  0.58342638  0.91514737  0.80878890  1
  Se  Se199  1  0.91750073  0.24469417  0.30513681  1
  Se  Se200  1  0.92172722  0.25206885  0.80428894  1
  Se  Se201  1  0.91482686  0.58314825  0.30364912  1
  Se  Se202  1  0.91443895  0.58125658  0.81303651  1
  Se  Se203  1  0.90349405  0.91050272  0.30961999  1
  Se  Se204  1  0.91368336  0.91164750  0.80701757  1
  Se  Se205  1  0.08637693  0.08557626  0.31115875  1
  Se  Se206  1  0.08552300  0.08540276  0.80908178  1
  Se  Se207  1  0.07531203  0.41182531  0.30626557  1
  Se  Se208  1  0.08561580  0.41060549  0.80234891  1
  Se  Se209  1  0.08230742  0.74685321  0.29531593  1
  Se  Se210  1  0.08610075  0.75477701  0.80739990  1
  Se  Se211  1  0.41013220  0.08756022  0.30087696  1
  Se  Se212  1  0.40298545  0.06358239  0.81062077  1
  Se  Se213  1  0.42685680  0.43048206  0.30229951  1
  Se  Se214  1  0.42042832  0.41895667  0.80122578  1
  Se  Se215  1  0.42257362  0.74968365  0.31599893  1
  Se  Se216  1  0.41676356  0.74469317  0.80505130  1
  Se  Se217  1  0.74579198  0.08446482  0.29657996  1
  Se  Se218  1  0.75095839  0.07934111  0.80066111  1
  Se  Se219  1  0.74817867  0.41546410  0.30934788  1
  Se  Se220  1  0.75233571  0.41848244  0.80170683  1
  Se  Se221  1  0.74523725  0.74327542  0.30116165  1
  Se  Se222  1  0.74579574  0.74818316  0.80560426  1
  Se  Se223  1  0.25111822  0.08379833  0.19785347  1
  Se  Se224  1  0.25047901  0.08211341  0.69777256  1
  Se  Se225  1  0.24070089  0.42230948  0.19381323  1
  Se  Se226  1  0.26118206  0.40787926  0.69784102  1
  Se  Se227  1  0.24699176  0.76074494  0.18504934  1
  Se  Se228  1  0.25382539  0.74207856  0.70031476  1
  Se  Se229  1  0.58232353  0.08628801  0.19369000  1
  Se  Se230  1  0.58156370  0.07788463  0.70568354  1
  Se  Se231  1  0.58274992  0.40024296  0.19306600  1
  Se  Se232  1  0.58839370  0.42251370  0.69550183  1
  Se  Se233  1  0.58090411  0.74690160  0.19945951  1
  Se  Se234  1  0.58662170  0.74591554  0.69921781  1
  Se  Se235  1  0.90842762  0.08947720  0.18454092  1
  Se  Se236  1  0.90702360  0.09438517  0.68575172  1
  Se  Se237  1  0.91434626  0.41309747  0.20074930  1
  Se  Se238  1  0.91789153  0.41867879  0.69794140  1
  Se  Se239  1  0.91519567  0.74597224  0.19756946  1
  Se  Se240  1  0.90633794  0.75794504  0.69033397  1
  Se  Se241  1  0.08012593  0.25088063  0.19916159  1
  Se  Se242  1  0.08339462  0.24994248  0.69989324  1
  Se  Se243  1  0.07875761  0.58530608  0.20091606  1
  Se  Se244  1  0.09419553  0.56751380  0.68551876  1
  Se  Se245  1  0.08678470  0.91336287  0.18556026  1
  Se  Se246  1  0.09574686  0.90824025  0.68552932  1
  Se  Se247  1  0.41785920  0.24859683  0.18525630  1
  Se  Se248  1  0.44241781  0.23452455  0.69854765  1
  Se  Se249  1  0.42084460  0.57882250  0.18588862  1
  Se  Se250  1  0.41740684  0.58666690  0.69527779  1
  Se  Se251  1  0.42207843  0.91844287  0.20308357  1
  Se  Se252  1  0.42042427  0.91156333  0.69968274  1
  Se  Se253  1  0.74582235  0.25294994  0.19647306  1
  Se  Se254  1  0.74956674  0.25195697  0.70165246  1
  Se  Se255  1  0.74310605  0.57705681  0.19955659  1
  Se  Se256  1  0.75198928  0.58802473  0.69609329  1
  Se  Se257  1  0.74607540  0.91520895  0.19573951  1
  Se  Se258  1  0.74374363  0.92294010  0.70014658  1
