# generated using pymatgen
data_In86Cu29Se144
_symmetry_space_group_name_H-M   'P 1'
_cell_length_a   17.57917701
_cell_length_b   17.58173048
_cell_length_c   23.44139087
_cell_angle_alpha   89.98409151
_cell_angle_beta   89.98658240
_cell_angle_gamma   90.02026397
_symmetry_Int_Tables_number   1
_chemical_formula_structural   In86Cu29Se144
_chemical_formula_sum   'In86 Cu29 Se144'
_cell_volume   7245.08488501
_cell_formula_units_Z   1
loop_
 _symmetry_equiv_pos_site_id
 _symmetry_equiv_pos_as_xyz
  1  'x, y, z'
loop_
 _atom_site_type_symbol
 _atom_site_label
 _atom_site_symmetry_multiplicity
 _atom_site_fract_x
 _atom_site_fract_y
 _atom_site_fract_z
 _atom_site_occupancy
  In  In0  1  0.00231531  0.17073291  0.12910063  1
  In  In1  1  0.00193436  0.17105545  0.61271012  1
  In  In2  1  -0.00006892  0.48353654  0.12717370  1
  In  In3  1  0.00291716  0.50775876  0.60844141  1
  In  In4  1  0.00262010  0.84678576  0.13214212  1
  In  In5  1  -0.00584713  0.83758102  0.61826335  1
  In  In6  1  0.34404525  0.17782826  0.11827624  1
  In  In7  1  0.32753299  0.15938619  0.61948528  1
  In  In8  1  0.33389410  0.50236603  0.11777294  1
  In  In9  1  0.33142875  0.50869520  0.62559859  1
  In  In10  1  0.34358552  0.81689112  0.12702804  1
  In  In11  1  0.34841940  0.82786287  0.64405659  1
  In  In12  1  0.67326520  0.17369709  0.12257640  1
  In  In13  1  0.67314103  0.17750118  0.61549643  1
  In  In14  1  0.65908322  0.50427230  0.13408858  1
  In  In15  1  0.66847639  0.49162658  0.63124673  1
  In  In16  1  0.64708144  0.83003158  0.12291249  1
  In  In17  1  0.66764013  0.82236292  0.63094356  1
  In  In18  1  0.16721929  0.02052055  0.37409092  1
  In  In19  1  0.17613465  -0.00527505  0.87864283  1
  In  In20  1  0.16389642  0.33682049  0.37170008  1
  In  In21  1  0.16516706  0.33521925  0.88358127  1
  In  In22  1  0.16375416  0.64640771  0.37616375  1
  In  In23  1  0.18298296  0.65199101  0.87986260  1
  In  In24  1  0.51192470  -0.00062240  0.37292455  1
  In  In25  1  0.49187109  0.01278005  0.88383970  1
  In  In26  1  0.49024130  0.32671176  0.36607898  1
  In  In27  1  0.50776262  0.33017418  0.88322016  1
  In  In28  1  0.49562549  0.66786065  0.35893725  1
  In  In29  1  0.49760004  0.66133705  0.87642690  1
  In  In30  1  0.83680635  -0.00235087  0.37711198  1
  In  In31  1  0.83943743  0.00565972  0.87480487  1
  In  In32  1  0.83478039  0.33078638  0.37132691  1
  In  In33  1  0.81829671  0.33567634  0.87673082  1
  In  In34  1  0.83012643  0.67525656  0.38678993  1
  In  In35  1  0.81783680  0.67041851  0.86849354  1
  In  In36  1  -0.00311908  0.17539452  0.36904386  1
  In  In37  1  -0.00270595  0.16974288  0.88488329  1
  In  In38  1  0.01058658  0.49170115  0.38331538  1
  In  In39  1  0.01260026  0.50645009  0.87707368  1
  In  In40  1  -0.01974932  0.82943668  0.37685875  1
  In  In41  1  -0.00084943  0.84202682  0.87119643  1
  In  In42  1  0.32191061  0.17354609  0.37911020  1
  In  In43  1  0.33436480  0.16384808  0.88305753  1
  In  In44  1  0.32808249  0.49447369  0.36667209  1
  In  In45  1  0.32578580  0.51540290  0.88957621  1
  In  In46  1  0.34555658  0.82206214  0.37043134  1
  In  In47  1  0.34761566  0.83898946  0.86542001  1
  In  In48  1  0.66244544  0.17199466  0.37640759  1
  In  In49  1  0.66207568  0.17671404  0.88335421  1
  In  In50  1  0.67319708  0.50744021  0.36999406  1
  In  In51  1  0.66036723  0.49061654  0.86914703  1
  In  In52  1  0.67552635  0.83576363  0.37549838  1
  In  In53  1  0.65824075  0.81391674  0.86518133  1
  In  In54  1  0.14998091  0.00328264  0.13075378  1
  In  In55  1  0.16632774  0.00588812  0.62549754  1
  In  In56  1  0.17153858  0.33634040  0.12275072  1
  In  In57  1  0.16776520  0.33184888  0.61651599  1
  In  In58  1  0.18802354  0.66289530  0.12316851  1
  In  In59  1  0.17627219  0.66473231  0.62451563  1
  In  In60  1  0.49388341  -0.00548931  0.11371676  1
  In  In61  1  0.48782740  -0.00276856  0.62919876  1
  In  In62  1  0.49975753  0.33138270  0.12763670  1
  In  In63  1  0.51243370  0.33634496  0.62525424  1
  In  In64  1  0.50089080  0.66401384  0.11972154  1
  In  In65  1  0.50448929  0.66801841  0.63856845  1
  In  In66  1  0.82940732  0.01974350  0.13334501  1
  In  In67  1  0.83179910  0.00567292  0.61262212  1
  In  In68  1  0.84189950  0.31216452  0.14650953  1
  In  In69  1  0.83191562  0.33454951  0.61541485  1
  In  In70  1  0.82494209  0.65252664  0.12797963  1
  In  In71  1  0.82705416  0.65862710  0.61596785  1
  In  In72  1  -0.00016131  0.66584880  0.74168581  1
  In  In73  1  -0.00127432  0.66357194  0.25699805  1
  In  In74  1  0.49683922  0.49517683  0.50059013  1
  In  In75  1  -0.00207916  0.33756054  0.75357422  1
  In  In76  1  0.33902279  0.33839668  0.75005898  1
  In  In77  1  0.00167560  -0.00253740  0.75039000  1
  In  In78  1  0.82894901  0.83494067  -0.00975574  1
  In  In79  1  0.83438475  0.48869252  0.00661223  1
  In  In80  1  0.32980160  -0.00070146  0.24191583  1
  In  In81  1  0.16467978  0.83694677  0.50614771  1
  In  In82  1  0.66097412  -0.00125659  0.74512523  1
  In  In83  1  0.66637847  -0.00228831  0.25288660  1
  In  In84  1  0.50425375  0.83660423  0.50826487  1
  In  In85  1  0.17486613  0.83227822  0.00130204  1
  Cu  Cu86  1  0.66990976  0.32941944  0.00809887  1
  Cu  Cu87  1  0.00237665  0.00656299  0.49468461  1
  Cu  Cu88  1  0.82685704  0.82896500  0.25459199  1
  Cu  Cu89  1  0.16341284  0.18016888  0.25122560  1
  Cu  Cu90  1  0.82562258  0.16893959  0.74158923  1
  Cu  Cu91  1  0.17355314  0.82241649  0.75412759  1
  Cu  Cu92  1  0.32896781  0.66120034  0.49965571  1
  Cu  Cu93  1  0.49659820  0.49611775  0.24362789  1
  Cu  Cu94  1  0.17126259  0.49900701  0.24735396  1
  Cu  Cu95  1  0.01000921  0.66840685  -0.00151676  1
  Cu  Cu96  1  0.82815454  0.49609125  0.25447031  1
  Cu  Cu97  1  0.82892968  0.50373413  0.74394481  1
  Cu  Cu98  1  0.00243377  0.32996797  0.00802021  1
  Cu  Cu99  1  0.66405810  0.00140599  0.00157355  1
  Cu  Cu100  1  0.33692522  0.33298493  0.00159961  1
  Cu  Cu101  1  -0.00676927  0.01127863  0.00693250  1
  Cu  Cu102  1  0.32467725  0.00341126  0.00145181  1
  Cu  Cu103  1  0.67025527  0.00830658  0.49559702  1
  Cu  Cu104  1  0.50094103  0.16922126  0.75869694  1
  Cu  Cu105  1  0.50372995  0.50306540  0.75609729  1
  Cu  Cu106  1  0.32809482  0.32877274  0.49068951  1
  Cu  Cu107  1  0.33507338  0.00277877  0.50333884  1
  Cu  Cu108  1  0.49810454  0.16396604  0.24773761  1
  Cu  Cu109  1  0.16704112  0.83565301  0.25051332  1
  Cu  Cu110  1  0.66450531  0.66736712  0.49971826  1
  Cu  Cu111  1  -0.00271556  0.33160101  0.49187758  1
  Cu  Cu112  1  0.66900182  0.33522337  0.49710745  1
  Cu  Cu113  1  0.17236428  0.16342432  0.74735576  1
  Cu  Cu114  1  0.66065550  0.66167900  -0.00061540  1
  Se  Se115  1  0.08424614  0.08903268  0.05596408  1
  Se  Se116  1  0.08850414  0.08264840  0.55158032  1
  Se  Se117  1  0.08670635  0.41968346  0.05248006  1
  Se  Se118  1  0.08199549  0.41115327  0.54901463  1
  Se  Se119  1  0.07864795  0.74941509  0.06448715  1
  Se  Se120  1  0.07588074  0.73905371  0.55880794  1
  Se  Se121  1  0.41529566  0.08520341  0.04978172  1
  Se  Se122  1  0.42281969  0.08445040  0.55417358  1
  Se  Se123  1  0.42143805  0.41391726  0.05569394  1
  Se  Se124  1  0.40452518  0.40442698  0.55924535  1
  Se  Se125  1  0.42207521  0.75072627  0.05073593  1
  Se  Se126  1  0.41027138  0.74013741  0.56067091  1
  Se  Se127  1  0.74915050  0.08279519  0.05385193  1
  Se  Se128  1  0.75474803  0.09419319  0.54633401  1
  Se  Se129  1  0.74918097  0.40554212  0.07273352  1
  Se  Se130  1  0.74597716  0.42273000  0.55219638  1
  Se  Se131  1  0.74759669  0.74163823  0.05540223  1
  Se  Se132  1  0.74533118  0.75321052  0.55287416  1
  Se  Se133  1  0.24950757  0.24996538  0.05226026  1
  Se  Se134  1  0.24938094  0.24587478  0.55083385  1
  Se  Se135  1  0.25501191  0.58615461  0.04656996  1
  Se  Se136  1  0.24592140  0.57713992  0.55069934  1
  Se  Se137  1  0.25388201  0.92394942  0.06896330  1
  Se  Se138  1  0.26502176  0.91647551  0.56608007  1
  Se  Se139  1  0.57988643  0.24659753  0.05625394  1
  Se  Se140  1  0.58081104  0.25443200  0.54899077  1
  Se  Se141  1  0.58473134  0.57372053  0.05399844  1
  Se  Se142  1  0.58371803  0.58862903  0.56052042  1
  Se  Se143  1  0.57932790  0.91212037  0.04655991  1
  Se  Se144  1  0.59600941  0.93023655  0.56326744  1
  Se  Se145  1  0.91402681  0.25202252  0.06050228  1
  Se  Se146  1  0.91369179  0.24983583  0.54772822  1
  Se  Se147  1  0.92711562  0.58909029  0.05848989  1
  Se  Se148  1  0.90851130  0.58038562  0.54648597  1
  Se  Se149  1  0.91329607  0.92145223  0.05929682  1
  Se  Se150  1  0.91934102  0.92245360  0.54817398  1
  Se  Se151  1  0.08505181  0.24977888  0.44086895  1
  Se  Se152  1  0.08465685  0.24869851  0.95059678  1
  Se  Se153  1  0.07864689  0.58633368  0.45141444  1
  Se  Se154  1  0.09281718  0.58082671  0.95076267  1
  Se  Se155  1  0.08168611  0.92227770  0.43651886  1
  Se  Se156  1  0.07240113  0.92467144  0.94862931  1
  Se  Se157  1  0.41869839  0.24761188  0.44358884  1
  Se  Se158  1  0.41912075  0.24831419  0.94805701  1
  Se  Se159  1  0.41387846  0.58892997  0.43797656  1
  Se  Se160  1  0.44055218  0.56267681  0.94734556  1
  Se  Se161  1  0.41207329  0.92164077  0.44226732  1
  Se  Se162  1  0.40804635  0.92175071  0.94623796  1
  Se  Se163  1  0.75075644  0.25090499  0.44336332  1
  Se  Se164  1  0.75498406  0.24946640  0.95237334  1
  Se  Se165  1  0.74650620  0.58179692  0.44792928  1
  Se  Se166  1  0.74851963  0.58193517  0.94380907  1
  Se  Se167  1  0.75097048  0.91775806  0.44686281  1
  Se  Se168  1  0.73610216  0.92376628  0.93265625  1
  Se  Se169  1  0.25010938  0.08496273  0.45123888  1
  Se  Se170  1  0.24085194  0.08683275  0.94926245  1
  Se  Se171  1  0.24895743  0.41949009  0.44183499  1
  Se  Se172  1  0.25068171  0.41602850  0.95015163  1
  Se  Se173  1  0.25351740  0.74811151  0.44170187  1
  Se  Se174  1  0.26503828  0.74900352  0.94007101  1
  Se  Se175  1  0.58016669  0.08585529  0.44513651  1
  Se  Se176  1  0.58230984  0.08982510  0.95012058  1
  Se  Se177  1  0.58519353  0.41171831  0.43584522  1
  Se  Se178  1  0.59393779  0.41412791  0.94983082  1
  Se  Se179  1  0.58081467  0.74382627  0.43969551  1
  Se  Se180  1  0.58262788  0.74805676  0.94517936  1
  Se  Se181  1  0.91915029  0.08773479  0.44004691  1
  Se  Se182  1  0.90837213  0.08826242  0.94988208  1
  Se  Se183  1  0.91114774  0.41681196  0.44373059  1
  Se  Se184  1  0.92740319  0.40782211  0.93942128  1
  Se  Se185  1  0.91868249  0.75003151  0.45483939  1
  Se  Se186  1  0.92555449  0.73943862  0.93701982  1
  Se  Se187  1  0.25331875  0.25658830  0.30372133  1
  Se  Se188  1  0.24500193  0.24799214  0.80929179  1
  Se  Se189  1  0.25126570  0.58659721  0.29969331  1
  Se  Se190  1  0.25827377  0.57928497  0.80425925  1
  Se  Se191  1  0.24681150  0.91435108  0.31350872  1
  Se  Se192  1  0.24866914  0.91644688  0.80409920  1
  Se  Se193  1  0.58137175  0.24634359  0.30173389  1
  Se  Se194  1  0.58684226  0.25356742  0.80679899  1
  Se  Se195  1  0.57979591  0.57664943  0.30046123  1
  Se  Se196  1  0.59073036  0.58807914  0.80480673  1
  Se  Se197  1  0.57427500  0.89908280  0.30411897  1
  Se  Se198  1  0.57474682  0.92091940  0.81443802  1
  Se  Se199  1  0.92593583  0.26488280  0.29915287  1
  Se  Se200  1  0.90711225  0.24155415  0.80789672  1
  Se  Se201  1  0.90859764  0.57621614  0.31660510  1
  Se  Se202  1  0.91077136  0.57524472  0.80877140  1
  Se  Se203  1  0.91225686  0.91457223  0.30266588  1
  Se  Se204  1  0.90160116  0.90696865  0.80114864  1
  Se  Se205  1  0.08323325  0.09005727  0.30098126  1
  Se  Se206  1  0.08805873  0.09075494  0.81094151  1
  Se  Se207  1  0.08338033  0.42248457  0.30211836  1
  Se  Se208  1  0.09699126  0.42525039  0.80576946  1
  Se  Se209  1  0.08983813  0.75648895  0.31523226  1
  Se  Se210  1  0.08737047  0.74866487  0.81318324  1
  Se  Se211  1  0.41764850  0.08450780  0.30911156  1
  Se  Se212  1  0.41296527  0.08805205  0.80757075  1
  Se  Se213  1  0.41228738  0.41424303  0.29873843  1
  Se  Se214  1  0.42402560  0.42205574  0.81607096  1
  Se  Se215  1  0.41065152  0.74668967  0.29203091  1
  Se  Se216  1  0.41722361  0.74015621  0.80413899  1
  Se  Se217  1  0.75582160  0.08937153  0.30871865  1
  Se  Se218  1  0.75085165  0.09049044  0.80680119  1
  Se  Se219  1  0.74344905  0.41083452  0.30449840  1
  Se  Se220  1  0.75136102  0.41617683  0.79971484  1
  Se  Se221  1  0.74841140  0.74329765  0.30822050  1
  Se  Se222  1  0.75397331  0.75539755  0.79489808  1
  Se  Se223  1  0.24213241  0.09828737  0.18894304  1
  Se  Se224  1  0.25428619  0.07909659  0.69612169  1
  Se  Se225  1  0.25462828  0.41957686  0.19104589  1
  Se  Se226  1  0.24193648  0.42001090  0.69046228  1
  Se  Se227  1  0.24907867  0.75244620  0.19811251  1
  Se  Se228  1  0.25449001  0.73993629  0.69931290  1
  Se  Se229  1  0.57462787  0.08069359  0.18749102  1
  Se  Se230  1  0.57796356  0.09795591  0.68793784  1
  Se  Se231  1  0.58474683  0.40925699  0.19880391  1
  Se  Se232  1  0.58264555  0.41526638  0.70194223  1
  Se  Se233  1  0.59465982  0.73145741  0.19149076  1
  Se  Se234  1  0.56475552  0.77322972  0.69933901  1
  Se  Se235  1  0.92912133  0.07893082  0.19756948  1
  Se  Se236  1  0.91464638  0.09139823  0.68828556  1
  Se  Se237  1  0.91643480  0.41725493  0.20229510  1
  Se  Se238  1  0.91498357  0.42553834  0.68682765  1
  Se  Se239  1  0.90933489  0.75216814  0.19095029  1
  Se  Se240  1  0.90753870  0.75562802  0.68654040  1
  Se  Se241  1  0.08311404  0.26169454  0.19371125  1
  Se  Se242  1  0.08741407  0.24381462  0.69218594  1
  Se  Se243  1  0.08728766  0.58146047  0.18894886  1
  Se  Se244  1  0.09007862  0.57083931  0.68940506  1
  Se  Se245  1  0.07928716  0.92207620  0.20741267  1
  Se  Se246  1  0.09329568  0.90235294  0.69266191  1
  Se  Se247  1  0.41364867  0.25063980  0.19848539  1
  Se  Se248  1  0.42309387  0.24364518  0.68989502  1
  Se  Se249  1  0.41635870  0.58216858  0.18981853  1
  Se  Se250  1  0.41825286  0.57801666  0.69798241  1
  Se  Se251  1  0.42842914  0.90840714  0.19343089  1
  Se  Se252  1  0.41691344  0.92493771  0.70728415  1
  Se  Se253  1  0.74167229  0.23981915  0.20534305  1
  Se  Se254  1  0.74927472  0.25808079  0.68959374  1
  Se  Se255  1  0.74639149  0.58325011  0.20400939  1
  Se  Se256  1  0.74531897  0.58873450  0.69315617  1
  Se  Se257  1  0.75276891  0.90685512  0.18716931  1
  Se  Se258  1  0.76082524  0.91751184  0.68741255  1
