# generated using pymatgen
data_In86Cu29Se144
_symmetry_space_group_name_H-M   'P 1'
_cell_length_a   17.70221585
_cell_length_b   17.69888014
_cell_length_c   23.56083367
_cell_angle_alpha   90.01003251
_cell_angle_beta   90.05733096
_cell_angle_gamma   90.04883149
_symmetry_Int_Tables_number   1
_chemical_formula_structural   In86Cu29Se144
_chemical_formula_sum   'In86 Cu29 Se144'
_cell_volume   7381.82408545
_cell_formula_units_Z   1
loop_
 _symmetry_equiv_pos_site_id
 _symmetry_equiv_pos_as_xyz
  1  'x, y, z'
loop_
 _atom_site_type_symbol
 _atom_site_label
 _atom_site_symmetry_multiplicity
 _atom_site_fract_x
 _atom_site_fract_y
 _atom_site_fract_z
 _atom_site_occupancy
  In  In0  1  -0.00482606  0.15952567  0.13146278  1
  In  In1  1  -0.00141672  0.18438963  0.61876770  1
  In  In2  1  0.01745531  0.51078305  0.11169404  1
  In  In3  1  0.00328307  0.49547322  0.62972432  1
  In  In4  1  0.00220021  0.83066628  0.12881776  1
  In  In5  1  -0.01063844  0.83110679  0.62668338  1
  In  In6  1  0.34510750  0.13847513  0.14306030  1
  In  In7  1  0.33470326  0.16246398  0.61852116  1
  In  In8  1  0.33282127  0.49935091  0.12532158  1
  In  In9  1  0.33160877  0.50458690  0.61658681  1
  In  In10  1  0.33342061  0.83915783  0.12113867  1
  In  In11  1  0.34067639  0.82262679  0.62500906  1
  In  In12  1  0.65770027  0.17311638  0.13028118  1
  In  In13  1  0.66574629  0.14647256  0.62167825  1
  In  In14  1  0.65442487  0.49328334  0.11509910  1
  In  In15  1  0.65999587  0.51293362  0.63107683  1
  In  In16  1  0.66926642  0.83972866  0.11825484  1
  In  In17  1  0.66197209  0.83276939  0.63836802  1
  In  In18  1  0.17111707  0.00827566  0.34688184  1
  In  In19  1  0.16973833  -0.01701833  0.88739065  1
  In  In20  1  0.18466049  0.33896859  0.36717501  1
  In  In21  1  0.16309666  0.34645351  0.87968371  1
  In  In22  1  0.16358546  0.66768294  0.36603757  1
  In  In23  1  0.17082372  0.67152658  0.88585102  1
  In  In24  1  0.50083437  -0.00680791  0.36682394  1
  In  In25  1  0.51570381  -0.03085549  0.90429646  1
  In  In26  1  0.50055325  0.33801211  0.36759871  1
  In  In27  1  0.49816590  0.34022106  0.88113313  1
  In  In28  1  0.49551968  0.67542265  0.38016625  1
  In  In29  1  0.51671806  0.66231235  0.87617176  1
  In  In30  1  0.83707968  0.00611672  0.37174410  1
  In  In31  1  0.82596803  0.00098821  0.87457790  1
  In  In32  1  0.81560603  0.33945583  0.37680422  1
  In  In33  1  0.84534478  0.33325717  0.86933762  1
  In  In34  1  0.84365326  0.66340929  0.37328323  1
  In  In35  1  0.83592677  0.66388227  0.87650969  1
  In  In36  1  -0.00171575  0.16116618  0.37382636  1
  In  In37  1  -0.00407446  0.16577523  0.87051572  1
  In  In38  1  0.00252627  0.51841306  0.37272695  1
  In  In39  1  -0.00081212  0.50526765  0.87352251  1
  In  In40  1  0.00893275  0.84108170  0.35920250  1
  In  In41  1  0.01385535  0.81254824  0.88624396  1
  In  In42  1  0.33313472  0.16718284  0.35905677  1
  In  In43  1  0.34262113  0.17174956  0.88029389  1
  In  In44  1  0.33450523  0.50267534  0.37212504  1
  In  In45  1  0.34023248  0.50601583  0.88746403  1
  In  In46  1  0.34038363  0.84243378  0.35820469  1
  In  In47  1  0.37043950  0.78248163  0.94722964  1
  In  In48  1  0.66424114  0.16715353  0.37484077  1
  In  In49  1  0.66439551  0.15052880  0.86997929  1
  In  In50  1  0.66058726  0.49082186  0.37439723  1
  In  In51  1  0.66078038  0.51388674  0.87539498  1
  In  In52  1  0.65497371  0.83204633  0.37353906  1
  In  In53  1  0.67469168  0.83368033  0.87631384  1
  In  In54  1  0.19241607  -0.03949016  0.16888097  1
  In  In55  1  0.17056238  -0.00109465  0.62258587  1
  In  In56  1  0.17168281  0.34873834  0.12121033  1
  In  In57  1  0.15258157  0.33985327  0.62572764  1
  In  In58  1  0.17655743  0.66562869  0.12339238  1
  In  In59  1  0.16992149  0.65609975  0.62578003  1
  In  In60  1  0.50182511  0.00191137  0.12280974  1
  In  In61  1  0.51702222  -0.01439620  0.62733771  1
  In  In62  1  0.49917583  0.33050153  0.12502119  1
  In  In63  1  0.48942086  0.33702961  0.62150961  1
  In  In64  1  0.48410602  0.65649263  0.11254565  1
  In  In65  1  0.50395145  0.67322878  0.62325566  1
  In  In66  1  0.84023248  -0.00980022  0.13429816  1
  In  In67  1  0.81773820  -0.00934584  0.62151407  1
  In  In68  1  0.81841549  0.33467586  0.12489166  1
  In  In69  1  0.84116235  0.33741867  0.62227461  1
  In  In70  1  0.84481639  0.67062478  0.11495575  1
  In  In71  1  0.83872669  0.65778559  0.64106334  1
  In  In72  1  0.16795105  0.17142364  0.48008065  1
  In  In73  1  0.66901490  0.33924955  0.74482816  1
  In  In74  1  0.82961233  0.83088269  0.50212582  1
  In  In75  1  0.66337153  0.66595469  0.24240304  1
  In  In76  1  0.16621804  0.16393264  0.01756841  1
  In  In77  1  0.49643105  0.16138071  0.48984451  1
  In  In78  1  0.32769118  0.33678169  0.76358299  1
  In  In79  1  0.33576688  -0.00594452  0.77091981  1
  In  In80  1  0.82866043  0.50098730  0.51168915  1
  In  In81  1  0.82997585  0.17039551  -0.00203959  1
  In  In82  1  0.16754544  0.83402928  0.48281553  1
  In  In83  1  0.34275316  0.66985868  0.76317545  1
  In  In84  1  -0.00903686  -0.00235068  0.74889790  1
  In  In85  1  -0.00734653  0.33955970  0.24466661  1
  Cu  Cu86  1  0.65472128  0.33023040  0.49530171  1
  Cu  Cu87  1  0.50050228  0.16848695  0.74805639  1
  Cu  Cu88  1  0.34024939  -0.00996085  0.48971127  1
  Cu  Cu89  1  0.82180194  0.17034985  0.25141385  1
  Cu  Cu90  1  -0.00206682  0.33442871  -0.00337591  1
  Cu  Cu91  1  0.01046889  0.67009753  0.49644083  1
  Cu  Cu92  1  0.49921963  0.83200096  0.24373479  1
  Cu  Cu93  1  0.66509542  0.33692949  -0.00227379  1
  Cu  Cu94  1  0.82989756  0.83180818  0.24388491  1
  Cu  Cu95  1  0.00164162  0.66292067  -0.00075361  1
  Cu  Cu96  1  0.67290391  0.66972357  -0.00016393  1
  Cu  Cu97  1  0.66726266  0.66436668  0.50562590  1
  Cu  Cu98  1  -0.00185407  0.34525097  0.50073421  1
  Cu  Cu99  1  0.16140016  0.82670792  0.75772347  1
  Cu  Cu100  1  0.49761215  0.49867636  0.24303343  1
  Cu  Cu101  1  0.83680308  0.82487461  0.75629341  1
  Cu  Cu102  1  0.16143899  0.16083703  0.74657713  1
  Cu  Cu103  1  0.83106399  0.50440441  0.24767843  1
  Cu  Cu104  1  0.00148785  0.01223377  0.49182308  1
  Cu  Cu105  1  0.83523191  0.16789610  0.74866361  1
  Cu  Cu106  1  0.15922634  0.50012427  0.75229615  1
  Cu  Cu107  1  0.50542157  0.16209866  0.24975702  1
  Cu  Cu108  1  0.34076331  0.66527211  0.49815425  1
  Cu  Cu109  1  0.34211316  0.33114979  0.00540274  1
  Cu  Cu110  1  0.67165281  0.00344548  0.00157957  1
  Cu  Cu111  1  -0.00522191  -0.00973183  0.00868268  1
  Cu  Cu112  1  0.32566113  0.33858823  0.49719235  1
  Cu  Cu113  1  0.17054921  0.50484228  0.24566884  1
  Cu  Cu114  1  0.50283909  0.83460622  0.76238257  1
  Se  Se115  1  0.07450723  0.06956119  0.06748362  1
  Se  Se116  1  0.08603704  0.08519984  0.55392579  1
  Se  Se117  1  0.08757445  0.41490577  0.04573304  1
  Se  Se118  1  0.08400017  0.42513144  0.55271646  1
  Se  Se119  1  0.07881966  0.74279075  0.06026608  1
  Se  Se120  1  0.08455080  0.75418629  0.55781770  1
  Se  Se121  1  0.41979892  0.08868407  0.05797303  1
  Se  Se122  1  0.41401710  0.06728504  0.55619841  1
  Se  Se123  1  0.42153853  0.41941695  0.05732714  1
  Se  Se124  1  0.41205510  0.41706674  0.55077500  1
  Se  Se125  1  0.43060006  0.76927485  0.05313645  1
  Se  Se126  1  0.42028135  0.75149874  0.55143935  1
  Se  Se127  1  0.75039032  0.08145045  0.06406591  1
  Se  Se128  1  0.75473725  0.08166191  0.55159470  1
  Se  Se129  1  0.74978165  0.41777164  0.05046235  1
  Se  Se130  1  0.73154070  0.40778701  0.56129888  1
  Se  Se131  1  0.75290007  0.75309800  0.05423380  1
  Se  Se132  1  0.75056622  0.73820689  0.56684978  1
  Se  Se133  1  0.26428963  0.25384952  0.06764457  1
  Se  Se134  1  0.24885563  0.25400628  0.55591924  1
  Se  Se135  1  0.24681536  0.57318731  0.05528095  1
  Se  Se136  1  0.25024917  0.58870226  0.54951285  1
  Se  Se137  1  0.24623006  0.93697025  0.06978409  1
  Se  Se138  1  0.25719686  0.91740768  0.55312864  1
  Se  Se139  1  0.58742559  0.25343848  0.05458020  1
  Se  Se140  1  0.58007110  0.24905910  0.55895207  1
  Se  Se141  1  0.58361658  0.58760666  0.04895662  1
  Se  Se142  1  0.57993437  0.58260457  0.55516736  1
  Se  Se143  1  0.58392992  0.92053898  0.05086109  1
  Se  Se144  1  0.58883873  0.90139113  0.55847171  1
  Se  Se145  1  0.92152951  0.25684145  0.05971735  1
  Se  Se146  1  0.91450736  0.25719420  0.54694016  1
  Se  Se147  1  0.91606792  0.57668023  0.04846454  1
  Se  Se148  1  0.92637162  0.59616185  0.55850079  1
  Se  Se149  1  0.91061917  0.90820505  0.05985647  1
  Se  Se150  1  0.92825499  0.92760635  0.55350374  1
  Se  Se151  1  0.07398398  0.26940252  0.43338306  1
  Se  Se152  1  0.07924520  0.24748535  0.94337203  1
  Se  Se153  1  0.09107530  0.58707063  0.44380725  1
  Se  Se154  1  0.08492064  0.57995158  0.94513084  1
  Se  Se155  1  0.08231781  0.93643925  0.43107997  1
  Se  Se156  1  0.07870989  0.91095500  0.95336395  1
  Se  Se157  1  0.40321198  0.25500094  0.43799436  1
  Se  Se158  1  0.42414039  0.25149650  0.94918612  1
  Se  Se159  1  0.42017541  0.58064144  0.44310894  1
  Se  Se160  1  0.40296699  0.61760896  0.94092788  1
  Se  Se161  1  0.42161952  0.90842247  0.43662578  1
  Se  Se162  1  0.38135161  0.92997053  0.92776211  1
  Se  Se163  1  0.74322501  0.25147953  0.44578351  1
  Se  Se164  1  0.74131901  0.25583670  0.93387007  1
  Se  Se165  1  0.74644552  0.58842069  0.44151216  1
  Se  Se166  1  0.75082229  0.58331348  0.94570825  1
  Se  Se167  1  0.74684909  0.91764705  0.43777424  1
  Se  Se168  1  0.75346846  0.91999759  0.94742850  1
  Se  Se169  1  0.25886991  0.07075683  0.43171297  1
  Se  Se170  1  0.24853782  0.08805063  0.94255699  1
  Se  Se171  1  0.24759683  0.42352225  0.44287527  1
  Se  Se172  1  0.26077599  0.40977525  0.94617326  1
  Se  Se173  1  0.26471105  0.74414005  0.43361694  1
  Se  Se174  1  0.22596037  0.76442517  0.95980919  1
  Se  Se175  1  0.58948607  0.06818038  0.44135419  1
  Se  Se176  1  0.58642934  0.08489483  0.94874483  1
  Se  Se177  1  0.57499093  0.41665529  0.44449148  1
  Se  Se178  1  0.58540282  0.42290465  0.94398809  1
  Se  Se179  1  0.58904424  0.74629910  0.44781378  1
  Se  Se180  1  0.59074671  0.75176844  0.94516661  1
  Se  Se181  1  0.91097812  0.09118401  0.44514467  1
  Se  Se182  1  0.92570389  0.07512037  0.94483869  1
  Se  Se183  1  0.91654474  0.42299096  0.43902356  1
  Se  Se184  1  0.91787175  0.41618204  0.94145263  1
  Se  Se185  1  0.92834043  0.75182477  0.44018830  1
  Se  Se186  1  0.91400905  0.74642075  0.94957807  1
  Se  Se187  1  0.25137511  0.25300974  0.29648071  1
  Se  Se188  1  0.23643615  0.23831994  0.81320882  1
  Se  Se189  1  0.25243275  0.58526451  0.30301445  1
  Se  Se190  1  0.24554990  0.57425607  0.81197481  1
  Se  Se191  1  0.23634030  0.89953770  0.29386793  1
  Se  Se192  1  0.24579415  0.89675321  0.81807931  1
  Se  Se193  1  0.58246601  0.24855493  0.30579040  1
  Se  Se194  1  0.57945167  0.24963354  0.80816574  1
  Se  Se195  1  0.57642514  0.57872433  0.30617698  1
  Se  Se196  1  0.58040037  0.58283613  0.79943821  1
  Se  Se197  1  0.58481993  0.91178962  0.29796587  1
  Se  Se198  1  0.58464865  0.92115561  0.81405945  1
  Se  Se199  1  0.90457043  0.25278524  0.30957437  1
  Se  Se200  1  0.92156102  0.24836065  0.79873768  1
  Se  Se201  1  0.91694124  0.58550480  0.29815607  1
  Se  Se202  1  0.92424837  0.59315935  0.80623524  1
  Se  Se203  1  0.90820849  0.91592210  0.30236232  1
  Se  Se204  1  0.91705439  0.90568960  0.81646577  1
  Se  Se205  1  0.08506511  0.10519849  0.29848884  1
  Se  Se206  1  0.09004297  0.07724287  0.80996088  1
  Se  Se207  1  0.08601227  0.42674200  0.30589265  1
  Se  Se208  1  0.07975753  0.41418690  0.80574618  1
  Se  Se209  1  0.06582528  0.73373153  0.30169933  1
  Se  Se210  1  0.08513447  0.73757439  0.80838586  1
  Se  Se211  1  0.41927541  0.07815353  0.30020893  1
  Se  Se212  1  0.43166537  0.08966344  0.81512649  1
  Se  Se213  1  0.41532257  0.41929457  0.30184333  1
  Se  Se214  1  0.42312487  0.43130552  0.80944183  1
  Se  Se215  1  0.42297821  0.74673952  0.30064244  1
  Se  Se216  1  0.41929481  0.76514061  0.82476326  1
  Se  Se217  1  0.74562669  0.08376738  0.30658893  1
  Se  Se218  1  0.75415345  0.08150884  0.79917585  1
  Se  Se219  1  0.74832679  0.42349932  0.30156987  1
  Se  Se220  1  0.75272311  0.42195170  0.81120220  1
  Se  Se221  1  0.75437548  0.75102502  0.30813962  1
  Se  Se222  1  0.74935062  0.74591208  0.80775174  1
  Se  Se223  1  0.23600117  0.09155929  0.20670886  1
  Se  Se224  1  0.25060478  0.08436510  0.69407617  1
  Se  Se225  1  0.25242459  0.41742418  0.19759228  1
  Se  Se226  1  0.24502488  0.42296927  0.69299399  1
  Se  Se227  1  0.25449614  0.75402588  0.18912042  1
  Se  Se228  1  0.24651301  0.75251985  0.69567637  1
  Se  Se229  1  0.58676341  0.07869821  0.19554012  1
  Se  Se230  1  0.58012540  0.08121480  0.69669765  1
  Se  Se231  1  0.58350382  0.41642830  0.19276650  1
  Se  Se232  1  0.56671983  0.42224674  0.69215335  1
  Se  Se233  1  0.57391929  0.75091875  0.18080057  1
  Se  Se234  1  0.57517443  0.74943166  0.70235127  1
  Se  Se235  1  0.90695662  0.08811137  0.20059130  1
  Se  Se236  1  0.91260392  0.09002894  0.68313483  1
  Se  Se237  1  0.91017456  0.43036227  0.18204443  1
  Se  Se238  1  0.90430465  0.42725298  0.69173122  1
  Se  Se239  1  0.91269148  0.74663201  0.19434675  1
  Se  Se240  1  0.92384305  0.74883302  0.70144111  1
  Se  Se241  1  0.08562141  0.25535785  0.18613213  1
  Se  Se242  1  0.08338961  0.24851821  0.69499029  1
  Se  Se243  1  0.08609081  0.58386853  0.19114773  1
  Se  Se244  1  0.08318554  0.58499556  0.69550177  1
  Se  Se245  1  0.05922119  0.92468149  0.20265804  1
  Se  Se246  1  0.09165163  0.90881735  0.69249663  1
  Se  Se247  1  0.42217593  0.24424057  0.19562238  1
  Se  Se248  1  0.41311327  0.24477690  0.69426938  1
  Se  Se249  1  0.41531891  0.58527415  0.19367177  1
  Se  Se250  1  0.41505827  0.58313136  0.68949505  1
  Se  Se251  1  0.41972106  0.91877891  0.19205323  1
  Se  Se252  1  0.41980935  0.90976684  0.69799458  1
  Se  Se253  1  0.74341998  0.25552368  0.19775660  1
  Se  Se254  1  0.75277432  0.24160586  0.68590743  1
  Se  Se255  1  0.75255248  0.57856829  0.18220471  1
  Se  Se256  1  0.74735235  0.57963308  0.70095893  1
  Se  Se257  1  0.74307295  0.91474217  0.19633802  1
  Se  Se258  1  0.75672729  0.91035374  0.70101527  1
