# generated using pymatgen
data_In86Cu29Se144
_symmetry_space_group_name_H-M   'P 1'
_cell_length_a   17.58000979
_cell_length_b   17.57849651
_cell_length_c   23.43226791
_cell_angle_alpha   89.99104030
_cell_angle_beta   89.98102189
_cell_angle_gamma   89.99547486
_symmetry_Int_Tables_number   1
_chemical_formula_structural   In86Cu29Se144
_chemical_formula_sum   'In86 Cu29 Se144'
_cell_volume   7241.27653677
_cell_formula_units_Z   1
loop_
 _symmetry_equiv_pos_site_id
 _symmetry_equiv_pos_as_xyz
  1  'x, y, z'
loop_
 _atom_site_type_symbol
 _atom_site_label
 _atom_site_symmetry_multiplicity
 _atom_site_fract_x
 _atom_site_fract_y
 _atom_site_fract_z
 _atom_site_occupancy
  In  In0  1  -0.00476076  0.16665574  0.13315477  1
  In  In1  1  0.00073961  0.16585888  0.61974650  1
  In  In2  1  0.01362926  0.49802123  0.13853630  1
  In  In3  1  0.00835742  0.49724505  0.63008632  1
  In  In4  1  -0.00050064  0.84156629  0.13100170  1
  In  In5  1  0.00149795  0.84480003  0.62435921  1
  In  In6  1  0.33559343  0.15926657  0.13324135  1
  In  In7  1  0.33100671  0.17725207  0.62638842  1
  In  In8  1  0.31141783  0.50796772  0.14741469  1
  In  In9  1  0.33185631  0.49939796  0.62208023  1
  In  In10  1  0.31809498  0.84389249  0.13783078  1
  In  In11  1  0.31172608  0.83537193  0.62413346  1
  In  In12  1  0.65596169  0.16216656  0.11447678  1
  In  In13  1  0.66651262  0.15020404  0.63068544  1
  In  In14  1  0.67002847  0.49416062  0.12408805  1
  In  In15  1  0.65804758  0.51713748  0.61598916  1
  In  In16  1  0.68175921  0.83551683  0.12210695  1
  In  In17  1  0.68651510  0.83737968  0.62059360  1
  In  In18  1  0.15792130  0.00417984  0.36771261  1
  In  In19  1  0.15123551  -0.00283193  0.87388565  1
  In  In20  1  0.14982155  0.31318630  0.35609636  1
  In  In21  1  0.17135698  0.33138219  0.86612050  1
  In  In22  1  0.17376106  0.67934312  0.36431550  1
  In  In23  1  0.17239244  0.67630771  0.86957379  1
  In  In24  1  0.50027341  -0.00181970  0.36707632  1
  In  In25  1  0.51268504  0.00009782  0.87164231  1
  In  In26  1  0.49183606  0.33953659  0.38490923  1
  In  In27  1  0.49357035  0.33314194  0.87990229  1
  In  In28  1  0.47894848  0.66678885  0.37830170  1
  In  In29  1  0.48734929  0.67031422  0.87196781  1
  In  In30  1  0.83429320  -0.00220344  0.37534798  1
  In  In31  1  0.83734623  0.00014859  0.87881622  1
  In  In32  1  0.83401529  0.32149051  0.37902626  1
  In  In33  1  0.83798761  0.31357354  0.87562534  1
  In  In34  1  0.84999146  0.66530901  0.37680934  1
  In  In35  1  0.85480792  0.66949573  0.87557102  1
  In  In36  1  -0.00294366  0.16235826  0.37223192  1
  In  In37  1  -0.00767502  0.15294878  0.86798417  1
  In  In38  1  0.02162518  0.50653842  0.35590797  1
  In  In39  1  0.00983296  0.50543205  0.86630540  1
  In  In40  1  0.00131119  0.83489832  0.37291159  1
  In  In41  1  0.00168958  0.83149533  0.88003194  1
  In  In42  1  0.31009887  0.14831532  0.35264566  1
  In  In43  1  0.33065079  0.17795848  0.87592052  1
  In  In44  1  0.32828479  0.50360111  0.36998496  1
  In  In45  1  0.33482170  0.49721627  0.87016773  1
  In  In46  1  0.31587415  0.83395903  0.36260315  1
  In  In47  1  0.33147528  0.82460311  0.87302726  1
  In  In48  1  0.68121074  0.16474172  0.37873473  1
  In  In49  1  0.67992645  0.16060755  0.88519719  1
  In  In50  1  0.66075548  0.48926295  0.38076868  1
  In  In51  1  0.65681295  0.49734380  0.87220006  1
  In  In52  1  0.66405729  0.84698891  0.37551432  1
  In  In53  1  0.67181762  0.85046935  0.87170556  1
  In  In54  1  0.17536147  -0.00912001  0.14071420  1
  In  In55  1  0.14761699  -0.01622010  0.61104149  1
  In  In56  1  0.16441662  0.32381223  0.14766347  1
  In  In57  1  0.17187397  0.33093447  0.62564860  1
  In  In58  1  0.13916360  0.69922238  0.16089066  1
  In  In59  1  0.14976633  0.68950710  0.63975476  1
  In  In60  1  0.49443328  0.01427350  0.12979925  1
  In  In61  1  0.50367325  0.01845314  0.63376566  1
  In  In62  1  0.49724870  0.31853685  0.11807952  1
  In  In63  1  0.47958569  0.33409455  0.62722496  1
  In  In64  1  0.48614162  0.65983492  0.12414169  1
  In  In65  1  0.49915551  0.65323473  0.61981792  1
  In  In66  1  0.83228834  -0.00128941  0.12755221  1
  In  In67  1  0.83787123  0.00196613  0.62390368  1
  In  In68  1  0.84576670  0.32621006  0.12159549  1
  In  In69  1  0.85267132  0.33245580  0.62348519  1
  In  In70  1  0.83783800  0.68391715  0.12123945  1
  In  In71  1  0.83520066  0.68886649  0.61880152  1
  In  In72  1  0.66705992  0.32929050  0.75305829  1
  In  In73  1  0.50335509  0.83578451  -0.00832675  1
  In  In74  1  0.16395369  0.15972434  0.00564773  1
  In  In75  1  0.50024148  0.83245388  0.49785821  1
  In  In76  1  0.66662827  0.32907675  0.25171749  1
  In  In77  1  0.67211380  0.67412415  0.73771271  1
  In  In78  1  0.49721692  0.17080658  0.50636424  1
  In  In79  1  0.17343735  0.50340156  0.49177105  1
  In  In80  1  0.49739554  0.49235453  0.00009479  1
  In  In81  1  0.84089714  0.49539009  0.00417275  1
  In  In82  1  0.66638317  0.67445828  0.24728334  1
  In  In83  1  0.83691357  0.49952097  0.49665479  1
  In  In84  1  0.16606579  0.50249612  0.01246964  1
  In  In85  1  0.32539902  0.00152645  0.75092123  1
  Cu  Cu86  1  0.66572200  0.33326506  0.50103201  1
  Cu  Cu87  1  0.84048553  0.49798066  0.74873712  1
  Cu  Cu88  1  0.17428492  0.49968324  0.74783509  1
  Cu  Cu89  1  0.00102241  0.67802805  0.50051605  1
  Cu  Cu90  1  0.32436021  0.66663233  0.49530652  1
  Cu  Cu91  1  0.67574963  0.66442163  -0.00269329  1
  Cu  Cu92  1  0.00179656  0.32337114  0.00046124  1
  Cu  Cu93  1  0.67258146  0.00009404  0.50201753  1
  Cu  Cu94  1  0.32045243  0.00134828  0.49241267  1
  Cu  Cu95  1  0.49664781  0.83768183  0.25002015  1
  Cu  Cu96  1  0.49906283  0.50365335  0.25257816  1
  Cu  Cu97  1  0.84105406  0.84170516  0.75009975  1
  Cu  Cu98  1  0.50587681  0.16670606  0.24791743  1
  Cu  Cu99  1  0.00726064  0.67583493  0.00626410  1
  Cu  Cu100  1  0.49435916  0.49760710  0.74649273  1
  Cu  Cu101  1  0.84161072  0.50140498  0.24835562  1
  Cu  Cu102  1  0.67118601  0.00156281  -0.00006684  1
  Cu  Cu103  1  -0.00403175  -0.00561676  0.00215439  1
  Cu  Cu104  1  0.33356862  0.33397950  0.00461527  1
  Cu  Cu105  1  0.49629044  0.83353784  0.75058648  1
  Cu  Cu106  1  0.84103606  0.16064307  0.75148865  1
  Cu  Cu107  1  0.00074811  0.32913190  0.49210142  1
  Cu  Cu108  1  0.32140368  0.67550386  0.00485778  1
  Cu  Cu109  1  0.83909962  0.83874378  0.24981616  1
  Cu  Cu110  1  0.16348419  0.16764275  0.74478552  1
  Cu  Cu111  1  0.83242053  0.15750932  0.25214489  1
  Cu  Cu112  1  0.33042395  -0.00059313  0.01005179  1
  Cu  Cu113  1  -0.00368387  0.00214769  0.49472513  1
  Cu  Cu114  1  0.32838333  0.32891791  0.49812361  1
  Se  Se115  1  0.07767348  0.06926898  0.06639229  1
  Se  Se116  1  0.08177190  0.08526186  0.54759429  1
  Se  Se117  1  0.08032721  0.39900430  0.06513984  1
  Se  Se118  1  0.07953671  0.41258287  0.55167018  1
  Se  Se119  1  0.08748154  0.75358080  0.06588060  1
  Se  Se120  1  0.08513333  0.75811112  0.55531018  1
  Se  Se121  1  0.41447262  0.08854584  0.05453150  1
  Se  Se122  1  0.40367407  0.07223311  0.55750680  1
  Se  Se123  1  0.40237286  0.42054192  0.06817106  1
  Se  Se124  1  0.41025787  0.41452233  0.55051210  1
  Se  Se125  1  0.41117448  0.75553636  0.05759876  1
  Se  Se126  1  0.40533754  0.74620956  0.55775368  1
  Se  Se127  1  0.75371370  0.08293284  0.05577951  1
  Se  Se128  1  0.75240521  0.08638414  0.55529451  1
  Se  Se129  1  0.74495194  0.40304727  0.05631836  1
  Se  Se130  1  0.74695309  0.41301403  0.56231897  1
  Se  Se131  1  0.75398393  0.75382045  0.04706843  1
  Se  Se132  1  0.73734244  0.74092745  0.54828119  1
  Se  Se133  1  0.24918745  0.25645261  0.06430603  1
  Se  Se134  1  0.24584916  0.24693367  0.55227218  1
  Se  Se135  1  0.24868652  0.59784931  0.07021084  1
  Se  Se136  1  0.24385078  0.59533539  0.56236168  1
  Se  Se137  1  0.24462725  0.91652884  0.05846072  1
  Se  Se138  1  0.24331790  0.91181415  0.54465099  1
  Se  Se139  1  0.58439673  0.25345310  0.04664341  1
  Se  Se140  1  0.59005469  0.25713764  0.56766395  1
  Se  Se141  1  0.59110094  0.59059950  0.05655512  1
  Se  Se142  1  0.57791349  0.58751539  0.54210036  1
  Se  Se143  1  0.58631182  0.92248610  0.05942519  1
  Se  Se144  1  0.58362434  0.92762607  0.56171975  1
  Se  Se145  1  0.92058505  0.23813522  0.05238572  1
  Se  Se146  1  0.91752726  0.24837007  0.54766524  1
  Se  Se147  1  0.93146744  0.58642013  0.06408571  1
  Se  Se148  1  0.92751486  0.58850701  0.55913605  1
  Se  Se149  1  0.91264555  0.91291892  0.05781567  1
  Se  Se150  1  0.91540483  0.91843594  0.55187098  1
  Se  Se151  1  0.08486314  0.24466658  0.44094344  1
  Se  Se152  1  0.08320523  0.24973814  0.93727080  1
  Se  Se153  1  0.07757841  0.59555568  0.43845659  1
  Se  Se154  1  0.08068179  0.58880643  0.94611715  1
  Se  Se155  1  0.08266484  0.92074998  0.44141037  1
  Se  Se156  1  0.08407182  0.91511188  0.95037367  1
  Se  Se157  1  0.40261368  0.24085335  0.43818208  1
  Se  Se158  1  0.41391135  0.24999507  0.95062502  1
  Se  Se159  1  0.40693451  0.57752069  0.44793733  1
  Se  Se160  1  0.40339508  0.59174214  0.94782213  1
  Se  Se161  1  0.40902265  0.92185857  0.43766279  1
  Se  Se162  1  0.40688600  0.92766146  0.93899463  1
  Se  Se163  1  0.75142180  0.24851800  0.45327133  1
  Se  Se164  1  0.75881145  0.24858468  0.95180126  1
  Se  Se165  1  0.74548477  0.58830999  0.43778547  1
  Se  Se166  1  0.75077051  0.58156660  0.93681184  1
  Se  Se167  1  0.75197127  0.91532492  0.44757167  1
  Se  Se168  1  0.75351749  0.91551221  0.94839989  1
  Se  Se169  1  0.24215150  0.08764881  0.43908791  1
  Se  Se170  1  0.25414410  0.07493918  0.94061097  1
  Se  Se171  1  0.24818134  0.40213307  0.43304971  1
  Se  Se172  1  0.25263279  0.41307049  0.94482353  1
  Se  Se173  1  0.24754349  0.75481557  0.44190715  1
  Se  Se174  1  0.24363830  0.75680271  0.94676693  1
  Se  Se175  1  0.58534705  0.07761169  0.44425006  1
  Se  Se176  1  0.58307378  0.08065843  0.94710538  1
  Se  Se177  1  0.57797035  0.41706419  0.45451998  1
  Se  Se178  1  0.59636851  0.40469213  0.94693643  1
  Se  Se179  1  0.58636959  0.74300011  0.43524036  1
  Se  Se180  1  0.59413023  0.73965542  0.93381758  1
  Se  Se181  1  0.91147969  0.08677910  0.44376481  1
  Se  Se182  1  0.91955204  0.08428577  0.94884540  1
  Se  Se183  1  0.92983215  0.41840184  0.43210890  1
  Se  Se184  1  0.93160450  0.41215225  0.93930411  1
  Se  Se185  1  0.91571338  0.75783878  0.44681285  1
  Se  Se186  1  0.91716430  0.75185998  0.95333997  1
  Se  Se187  1  0.27509792  0.27598464  0.30404572  1
  Se  Se188  1  0.25194535  0.24713596  0.79767925  1
  Se  Se189  1  0.23017667  0.56916584  0.30476871  1
  Se  Se190  1  0.25233692  0.58312641  0.80609093  1
  Se  Se191  1  0.25024577  0.93168041  0.29888259  1
  Se  Se192  1  0.23799699  0.90713585  0.80775517  1
  Se  Se193  1  0.57688810  0.24421341  0.31695366  1
  Se  Se194  1  0.58304775  0.24319396  0.81755061  1
  Se  Se195  1  0.58145408  0.58210235  0.31100166  1
  Se  Se196  1  0.57721375  0.58371231  0.80116681  1
  Se  Se197  1  0.58627261  0.91829534  0.29861252  1
  Se  Se198  1  0.58465677  0.91625910  0.79760519  1
  Se  Se199  1  0.91076265  0.24732224  0.30392829  1
  Se  Se200  1  0.92376501  0.25024778  0.80002495  1
  Se  Se201  1  0.92164295  0.58804866  0.30037019  1
  Se  Se202  1  0.92115280  0.58557422  0.80006247  1
  Se  Se203  1  0.92041974  0.92256002  0.30429760  1
  Se  Se204  1  0.92202961  0.91888736  0.81031482  1
  Se  Se205  1  0.09160837  0.10350611  0.29805523  1
  Se  Se206  1  0.08383650  0.08177135  0.79877005  1
  Se  Se207  1  0.06719969  0.39840010  0.29168065  1
  Se  Se208  1  0.08845971  0.41633587  0.80054715  1
  Se  Se209  1  0.08105666  0.75507622  0.30031414  1
  Se  Se210  1  0.06258581  0.73233255  0.81128323  1
  Se  Se211  1  0.42012563  0.08151384  0.29803643  1
  Se  Se212  1  0.41818246  0.08759840  0.81089072  1
  Se  Se213  1  0.42155151  0.41939056  0.30886765  1
  Se  Se214  1  0.41881746  0.41246947  0.80458516  1
  Se  Se215  1  0.41549679  0.75390526  0.30416824  1
  Se  Se216  1  0.41149758  0.74818764  0.79835962  1
  Se  Se217  1  0.74583503  0.07767252  0.30511978  1
  Se  Se218  1  0.75518566  0.08379565  0.80842853  1
  Se  Se219  1  0.75877410  0.42419269  0.30833763  1
  Se  Se220  1  0.76039261  0.42280357  0.81103168  1
  Se  Se221  1  0.75821752  0.75692885  0.31045599  1
  Se  Se222  1  0.75929267  0.75529201  0.80760796  1
  Se  Se223  1  0.24209623  0.09392998  0.20121588  1
  Se  Se224  1  0.23888424  0.08393014  0.68326025  1
  Se  Se225  1  0.25952988  0.39819471  0.20958854  1
  Se  Se226  1  0.25478772  0.41481839  0.69318556  1
  Se  Se227  1  0.27097004  0.73414727  0.20057598  1
  Se  Se228  1  0.25779778  0.74655776  0.70063177  1
  Se  Se229  1  0.59146039  0.08481407  0.19589311  1
  Se  Se230  1  0.58715834  0.08507336  0.70788840  1
  Se  Se231  1  0.57455536  0.42155425  0.19186008  1
  Se  Se232  1  0.58272270  0.42357968  0.68828232  1
  Se  Se233  1  0.57309264  0.75922487  0.18438269  1
  Se  Se234  1  0.57482593  0.76085776  0.68224929  1
  Se  Se235  1  0.91711575  0.07534989  0.19884063  1
  Se  Se236  1  0.92327165  0.08197414  0.69273774  1
  Se  Se237  1  0.91623357  0.41275128  0.19356059  1
  Se  Se238  1  0.92465319  0.41355125  0.69776189  1
  Se  Se239  1  0.91792963  0.74938885  0.19820851  1
  Se  Se240  1  0.91846859  0.75653920  0.69312855  1
  Se  Se241  1  0.09067332  0.22351784  0.20707130  1
  Se  Se242  1  0.08105361  0.25165118  0.69021430  1
  Se  Se243  1  0.09962153  0.57135799  0.20718239  1
  Se  Se244  1  0.08523205  0.58248312  0.69911234  1
  Se  Se245  1  0.09557072  0.89970146  0.20386939  1
  Se  Se246  1  0.08892810  0.91653971  0.69657447  1
  Se  Se247  1  0.42131369  0.24979538  0.19612614  1
  Se  Se248  1  0.42648937  0.23636725  0.69696379  1
  Se  Se249  1  0.41356392  0.58796768  0.20263106  1
  Se  Se250  1  0.41421164  0.58286727  0.69283054  1
  Se  Se251  1  0.41645784  0.92354918  0.19542031  1
  Se  Se252  1  0.41817355  0.91350257  0.68723686  1
  Se  Se253  1  0.75500354  0.24137881  0.19001375  1
  Se  Se254  1  0.76196411  0.24498311  0.69112646  1
  Se  Se255  1  0.75862622  0.57965934  0.18874187  1
  Se  Se256  1  0.76321994  0.57625255  0.68540768  1
  Se  Se257  1  0.74801557  0.91671126  0.19873470  1
  Se  Se258  1  0.75394786  0.92046084  0.69594550  1
