# generated using pymatgen
data_In86Cu29Se144
_symmetry_space_group_name_H-M   'P 1'
_cell_length_a   17.58839175
_cell_length_b   17.59055434
_cell_length_c   23.44454332
_cell_angle_alpha   89.99063028
_cell_angle_beta   90.01160231
_cell_angle_gamma   90.03147413
_symmetry_Int_Tables_number   1
_chemical_formula_structural   In86Cu29Se144
_chemical_formula_sum   'In86 Cu29 Se144'
_cell_volume   7253.49561921
_cell_formula_units_Z   1
loop_
 _symmetry_equiv_pos_site_id
 _symmetry_equiv_pos_as_xyz
  1  'x, y, z'
loop_
 _atom_site_type_symbol
 _atom_site_label
 _atom_site_symmetry_multiplicity
 _atom_site_fract_x
 _atom_site_fract_y
 _atom_site_fract_z
 _atom_site_occupancy
  In  In0  1  -0.00884084  0.16303996  0.11985662  1
  In  In1  1  -0.01163023  0.14346234  0.60482028  1
  In  In2  1  0.00760062  0.50723670  0.11487100  1
  In  In3  1  -0.00533097  0.50015292  0.62866738  1
  In  In4  1  -0.00470474  0.83715244  0.12794577  1
  In  In5  1  -0.00709517  0.84661017  0.62661742  1
  In  In6  1  0.32081914  0.16593217  0.12671016  1
  In  In7  1  0.34180521  0.16775272  0.62210982  1
  In  In8  1  0.34722673  0.52864646  0.09701331  1
  In  In9  1  0.32010264  0.49647503  0.62969839  1
  In  In10  1  0.33572975  0.82994182  0.11958680  1
  In  In11  1  0.33873162  0.81964696  0.62859750  1
  In  In12  1  0.67955567  0.15243181  0.13587207  1
  In  In13  1  0.65546508  0.16103079  0.61948771  1
  In  In14  1  0.66901490  0.50422887  0.13008941  1
  In  In15  1  0.67017718  0.50661888  0.63131125  1
  In  In16  1  0.66533471  0.83122230  0.12611297  1
  In  In17  1  0.67655266  0.82722214  0.63179039  1
  In  In18  1  0.17370492  0.00088790  0.36556650  1
  In  In19  1  0.17155388  -0.00011071  0.88771029  1
  In  In20  1  0.15420276  0.32632520  0.36998297  1
  In  In21  1  0.17408229  0.32408317  0.88042941  1
  In  In22  1  0.16626248  0.66692016  0.35826506  1
  In  In23  1  0.17235738  0.67510346  0.89324183  1
  In  In24  1  0.50583734  0.00633650  0.36481681  1
  In  In25  1  0.50393022  -0.01366901  0.87718006  1
  In  In26  1  0.50706294  0.32115175  0.37683574  1
  In  In27  1  0.49504282  0.35781468  0.87276967  1
  In  In28  1  0.50807236  0.67431671  0.36447189  1
  In  In29  1  0.51152258  0.65517791  0.88782449  1
  In  In30  1  0.83306188  0.00226935  0.37236488  1
  In  In31  1  0.82917835  0.00628030  0.88036823  1
  In  In32  1  0.82016627  0.32649999  0.36749901  1
  In  In33  1  0.83988153  0.32780710  0.89453038  1
  In  In34  1  0.84089413  0.67140011  0.36341518  1
  In  In35  1  0.82071866  0.67576295  0.88776891  1
  In  In36  1  0.00839255  0.15184332  0.38425608  1
  In  In37  1  0.00296003  0.16695316  0.88799761  1
  In  In38  1  -0.00997116  0.50828623  0.36134365  1
  In  In39  1  0.00079951  0.48741574  0.90009834  1
  In  In40  1  -0.00746294  0.82643919  0.36308681  1
  In  In41  1  0.00466951  0.82952697  0.88763608  1
  In  In42  1  0.34318954  0.15825363  0.37773757  1
  In  In43  1  0.31794229  0.16878262  0.87407142  1
  In  In44  1  0.32607491  0.50347553  0.36468446  1
  In  In45  1  0.34957069  0.49840032  0.88883627  1
  In  In46  1  0.33087399  0.82994233  0.36085507  1
  In  In47  1  0.33794877  0.82717900  0.89412908  1
  In  In48  1  0.66796779  0.16476476  0.37241750  1
  In  In49  1  0.67787819  0.16485602  0.87575887  1
  In  In50  1  0.68634622  0.50753107  0.35206405  1
  In  In51  1  0.65557095  0.51294948  0.88755003  1
  In  In52  1  0.67420406  0.83949555  0.36836160  1
  In  In53  1  0.67076569  0.83197108  0.87643358  1
  In  In54  1  0.16421928  -0.00032246  0.12915166  1
  In  In55  1  0.15490973  0.00286293  0.62429683  1
  In  In56  1  0.15842825  0.33579081  0.10855350  1
  In  In57  1  0.17705144  0.32593249  0.63266057  1
  In  In58  1  0.16612694  0.66918836  0.11860897  1
  In  In59  1  0.17767000  0.66611883  0.62759295  1
  In  In60  1  0.51439862  -0.01425330  0.13284584  1
  In  In61  1  0.50004128  0.01250430  0.62494985  1
  In  In62  1  0.50326676  0.35100500  0.12162453  1
  In  In63  1  0.50522216  0.32204187  0.62775271  1
  In  In64  1  0.49887033  0.66963401  0.12112751  1
  In  In65  1  0.51211963  0.67832913  0.62019585  1
  In  In66  1  0.83340979  -0.00022621  0.12765892  1
  In  In67  1  0.82275644  -0.01872359  0.60895295  1
  In  In68  1  0.83149699  0.32541118  0.12034816  1
  In  In69  1  0.84286556  0.32873079  0.62632215  1
  In  In70  1  0.82660580  0.66678368  0.13148831  1
  In  In71  1  0.82183052  0.67169115  0.62770092  1
  In  In72  1  0.16211886  0.83743396  0.50169540  1
  In  In73  1  0.83377414  0.49352089  0.48983653  1
  In  In74  1  0.34478007  0.66092721  0.75948196  1
  In  In75  1  0.16210187  0.49023513  0.49359975  1
  In  In76  1  -0.00236875  0.33752972  0.23955054  1
  In  In77  1  0.66199524  0.34052824  0.75518587  1
  In  In78  1  0.51167480  0.84422964  0.48338715  1
  In  In79  1  0.33522632  -0.00262563  0.75668009  1
  In  In80  1  -0.00092289  0.66585212  0.77242294  1
  In  In81  1  0.00304537  0.32655437  0.75370919  1
  In  In82  1  0.33258712  0.34081065  0.23932498  1
  In  In83  1  -0.00066689  -0.00110823  0.74668581  1
  In  In84  1  0.49788342  0.16852129  0.00397366  1
  In  In85  1  0.50525462  0.49404315  0.50408969  1
  Cu  Cu86  1  -0.00073963  -0.00012158  0.00672813  1
  Cu  Cu87  1  0.83728120  0.16532765  0.25022377  1
  Cu  Cu88  1  0.49241478  0.82624338  0.24511284  1
  Cu  Cu89  1  0.66458662  0.33162620  0.49576751  1
  Cu  Cu90  1  0.32990819  0.32154182  0.50199273  1
  Cu  Cu91  1  0.82770229  0.83614383  0.24650537  1
  Cu  Cu92  1  0.16472128  0.16920687  0.75191864  1
  Cu  Cu93  1  -0.00590682  0.67279918  0.49265917  1
  Cu  Cu94  1  0.34065421  0.66736655  0.48958495  1
  Cu  Cu95  1  0.16739339  0.50182292  0.75740055  1
  Cu  Cu96  1  0.82604890  0.16292363  0.75184009  1
  Cu  Cu97  1  0.51158604  0.83072281  0.75370716  1
  Cu  Cu98  1  0.49844653  0.50284483  0.24097118  1
  Cu  Cu99  1  0.16829978  0.16346525  0.25173463  1
  Cu  Cu100  1  0.00063466  0.32213026  0.49799943  1
  Cu  Cu101  1  0.49796215  0.17174748  0.74905288  1
  Cu  Cu102  1  0.66420561  0.33223790  0.00331877  1
  Cu  Cu103  1  0.83251249  0.83201449  0.75343455  1
  Cu  Cu104  1  0.17300817  0.50662634  0.23396395  1
  Cu  Cu105  1  -0.00873769  0.67723364  0.00787960  1
  Cu  Cu106  1  0.82295736  0.50457211  0.76374309  1
  Cu  Cu107  1  0.16434909  0.83189392  0.24128981  1
  Cu  Cu108  1  0.50319169  0.16797603  0.25037214  1
  Cu  Cu109  1  0.67126320  -0.00431615  0.00632639  1
  Cu  Cu110  1  0.66345114  0.00351999  0.49336265  1
  Cu  Cu111  1  0.66899233  0.66767759  0.00861092  1
  Cu  Cu112  1  0.33352742  0.33511158  0.00078861  1
  Cu  Cu113  1  0.32740837  0.00292521  0.49867496  1
  Cu  Cu114  1  0.33215126  0.00263920  0.00629355  1
  Se  Se115  1  0.08532076  0.08342311  0.05744256  1
  Se  Se116  1  0.08916141  0.07569115  0.54453852  1
  Se  Se117  1  0.07463664  0.41681394  0.04309823  1
  Se  Se118  1  0.07421267  0.40595696  0.56139091  1
  Se  Se119  1  0.07998089  0.75917380  0.05666464  1
  Se  Se120  1  0.07606832  0.73950582  0.56192227  1
  Se  Se121  1  0.41673614  0.07655041  0.06771027  1
  Se  Se122  1  0.41631918  0.08126471  0.55086057  1
  Se  Se123  1  0.42216696  0.41977609  0.04614472  1
  Se  Se124  1  0.40476278  0.40818569  0.56107660  1
  Se  Se125  1  0.40606253  0.73755383  0.05002176  1
  Se  Se126  1  0.41839700  0.75055597  0.54649675  1
  Se  Se127  1  0.75337566  0.08390065  0.05514713  1
  Se  Se128  1  0.74483891  0.08313846  0.55290096  1
  Se  Se129  1  0.74393876  0.41498119  0.05936680  1
  Se  Se130  1  0.74401756  0.41011451  0.56037565  1
  Se  Se131  1  0.75323238  0.75336373  0.05754869  1
  Se  Se132  1  0.75911073  0.76054020  0.55568657  1
  Se  Se133  1  0.25266743  0.24890666  0.05171054  1
  Se  Se134  1  0.24515078  0.24293923  0.55734584  1
  Se  Se135  1  0.22101517  0.56475712  0.05067750  1
  Se  Se136  1  0.25729551  0.58696971  0.54861361  1
  Se  Se137  1  0.24826359  0.92004451  0.05817196  1
  Se  Se138  1  0.26143338  0.91938826  0.56444417  1
  Se  Se139  1  0.59104282  0.24917047  0.06697377  1
  Se  Se140  1  0.57943939  0.25027906  0.55004611  1
  Se  Se141  1  0.58443555  0.58094771  0.05726013  1
  Se  Se142  1  0.59901808  0.59219995  0.55299566  1
  Se  Se143  1  0.58306510  0.91182162  0.05265230  1
  Se  Se144  1  0.58853355  0.92270958  0.56015006  1
  Se  Se145  1  0.92380387  0.25636528  0.05201783  1
  Se  Se146  1  0.90974112  0.24667440  0.55037632  1
  Se  Se147  1  0.90979265  0.58972791  0.05742912  1
  Se  Se148  1  0.92046052  0.58654901  0.55535328  1
  Se  Se149  1  0.91265068  0.91697349  0.05643188  1
  Se  Se150  1  0.93268358  0.92662571  0.54874166  1
  Se  Se151  1  0.09124646  0.24441712  0.44751158  1
  Se  Se152  1  0.08451843  0.25443371  0.94963312  1
  Se  Se153  1  0.07778601  0.59034864  0.43621510  1
  Se  Se154  1  0.07368036  0.59625437  0.95089268  1
  Se  Se155  1  0.08047542  0.91588602  0.43077657  1
  Se  Se156  1  0.08481144  0.91831940  0.95261539  1
  Se  Se157  1  0.41863121  0.24802761  0.44602975  1
  Se  Se158  1  0.41354134  0.25627209  0.93735492  1
  Se  Se159  1  0.41807159  0.58137933  0.43510718  1
  Se  Se160  1  0.40204067  0.60629564  0.95251911  1
  Se  Se161  1  0.40345220  0.92376034  0.43412545  1
  Se  Se162  1  0.41927399  0.92308812  0.95323056  1
  Se  Se163  1  0.74920510  0.24834392  0.44430076  1
  Se  Se164  1  0.74597641  0.24358862  0.95288216  1
  Se  Se165  1  0.74776092  0.58914654  0.43529317  1
  Se  Se166  1  0.75074938  0.58087194  0.95520816  1
  Se  Se167  1  0.74780811  0.91969830  0.44277673  1
  Se  Se168  1  0.75205363  0.91577146  0.94653086  1
  Se  Se169  1  0.24688414  0.08310180  0.44130072  1
  Se  Se170  1  0.25301418  0.08851733  0.95232388  1
  Se  Se171  1  0.25938173  0.40255167  0.43600414  1
  Se  Se172  1  0.25081253  0.41773115  0.94549723  1
  Se  Se173  1  0.25002789  0.74480743  0.43727714  1
  Se  Se174  1  0.24719928  0.75945531  0.96301384  1
  Se  Se175  1  0.57828813  0.08504648  0.44127989  1
  Se  Se176  1  0.58964889  0.07714712  0.94548311  1
  Se  Se177  1  0.59591235  0.41867365  0.43428564  1
  Se  Se178  1  0.58055811  0.41562831  0.95111222  1
  Se  Se179  1  0.59861339  0.73997672  0.43936874  1
  Se  Se180  1  0.59035602  0.75001748  0.94826316  1
  Se  Se181  1  0.89952089  0.09574757  0.44267961  1
  Se  Se182  1  0.91653581  0.08123892  0.94991193  1
  Se  Se183  1  0.92994341  0.40500660  0.43295331  1
  Se  Se184  1  0.90806317  0.41575598  0.96498299  1
  Se  Se185  1  0.91150923  0.75368749  0.43988789  1
  Se  Se186  1  0.90849717  0.75936094  0.95236126  1
  Se  Se187  1  0.25059838  0.24862435  0.30579659  1
  Se  Se188  1  0.24982626  0.25464832  0.79965007  1
  Se  Se189  1  0.25486873  0.58685285  0.29236131  1
  Se  Se190  1  0.24367573  0.58281247  0.81843028  1
  Se  Se191  1  0.24920333  0.91485393  0.29523135  1
  Se  Se192  1  0.25036012  0.90879791  0.81835312  1
  Se  Se193  1  0.58766938  0.25158899  0.30163068  1
  Se  Se194  1  0.57427113  0.24667890  0.81608171  1
  Se  Se195  1  0.58243687  0.58335350  0.29745122  1
  Se  Se196  1  0.57665328  0.57776654  0.80863029  1
  Se  Se197  1  0.57504800  0.90696955  0.30248975  1
  Se  Se198  1  0.59158813  0.91861442  0.80472132  1
  Se  Se199  1  0.92226840  0.24491448  0.30809752  1
  Se  Se200  1  0.90748830  0.24034916  0.81241292  1
  Se  Se201  1  0.91224858  0.58488525  0.29090020  1
  Se  Se202  1  0.90950132  0.57177276  0.82708348  1
  Se  Se203  1  0.91204665  0.91841293  0.30032144  1
  Se  Se204  1  0.91632848  0.90977692  0.81267555  1
  Se  Se205  1  0.08080428  0.08281093  0.30269995  1
  Se  Se206  1  0.08874739  0.08712654  0.81225657  1
  Se  Se207  1  0.09525493  0.42844858  0.29930483  1
  Se  Se208  1  0.08391686  0.42259016  0.81492190  1
  Se  Se209  1  0.07978819  0.74844956  0.29446296  1
  Se  Se210  1  0.09820700  0.76068474  0.81437000  1
  Se  Se211  1  0.41472545  0.08461466  0.29838215  1
  Se  Se212  1  0.42451906  0.09140648  0.81469959  1
  Se  Se213  1  0.42617726  0.41991634  0.30716818  1
  Se  Se214  1  0.41146437  0.43158689  0.80272994  1
  Se  Se215  1  0.41043786  0.73979423  0.29758811  1
  Se  Se216  1  0.42803581  0.75948304  0.81661306  1
  Se  Se217  1  0.74868785  0.08281966  0.30135366  1
  Se  Se218  1  0.74604209  0.07648009  0.80337262  1
  Se  Se219  1  0.76353537  0.41448436  0.29189982  1
  Se  Se220  1  0.75326690  0.41603391  0.82329469  1
  Se  Se221  1  0.74681277  0.74952979  0.29928014  1
  Se  Se222  1  0.75078403  0.74626723  0.80550966  1
  Se  Se223  1  0.25156854  0.08016811  0.19964855  1
  Se  Se224  1  0.24556328  0.08508158  0.69359334  1
  Se  Se225  1  0.24787338  0.42435006  0.17378640  1
  Se  Se226  1  0.24653230  0.41575010  0.70352325  1
  Se  Se227  1  0.24944074  0.74929604  0.18961764  1
  Se  Se228  1  0.24705595  0.75468355  0.70208847  1
  Se  Se229  1  0.58518961  0.07904214  0.20097035  1
  Se  Se230  1  0.58212955  0.08657285  0.69872876  1
  Se  Se231  1  0.58566268  0.41506799  0.19822877  1
  Se  Se232  1  0.57135068  0.42732171  0.69303601  1
  Se  Se233  1  0.58104864  0.74685847  0.19374160  1
  Se  Se234  1  0.58965240  0.74508150  0.69873540  1
  Se  Se235  1  0.91975388  0.08291791  0.19603068  1
  Se  Se236  1  0.90558450  0.08649234  0.68931395  1
  Se  Se237  1  0.91023927  0.42806776  0.18271127  1
  Se  Se238  1  0.90489770  0.42597488  0.70289565  1
  Se  Se239  1  0.91389864  0.75243322  0.19680769  1
  Se  Se240  1  0.91848977  0.75169619  0.69785432  1
  Se  Se241  1  0.09418138  0.24517089  0.18834983  1
  Se  Se242  1  0.07789487  0.23428454  0.68630932  1
  Se  Se243  1  0.08056807  0.58845404  0.19042819  1
  Se  Se244  1  0.08709506  0.58108574  0.69664415  1
  Se  Se245  1  0.07761965  0.92057573  0.19804713  1
  Se  Se246  1  0.09698915  0.90340335  0.69743246  1
  Se  Se247  1  0.42664483  0.24587212  0.18558526  1
  Se  Se248  1  0.41244791  0.25218013  0.69707821  1
  Se  Se249  1  0.41241978  0.58205824  0.18773939  1
  Se  Se250  1  0.42203485  0.58393893  0.68128757  1
  Se  Se251  1  0.41319780  0.91366360  0.19313490  1
  Se  Se252  1  0.42758159  0.90731989  0.69291729  1
  Se  Se253  1  0.75414089  0.25048715  0.19818744  1
  Se  Se254  1  0.75021880  0.24858868  0.69246949  1
  Se  Se255  1  0.73435426  0.59717979  0.20127683  1
  Se  Se256  1  0.75031362  0.58653733  0.70205412  1
  Se  Se257  1  0.74399160  0.92015883  0.19444608  1
  Se  Se258  1  0.75692386  0.91900676  0.69606691  1
