# generated using pymatgen
data_In86Cu29Se144
_symmetry_space_group_name_H-M   'P 1'
_cell_length_a   17.57812714
_cell_length_b   17.58095114
_cell_length_c   23.43560583
_cell_angle_alpha   89.99017825
_cell_angle_beta   89.97256888
_cell_angle_gamma   89.98154094
_symmetry_Int_Tables_number   1
_chemical_formula_structural   In86Cu29Se144
_chemical_formula_sum   'In86 Cu29 Se144'
_cell_volume   7242.54286570
_cell_formula_units_Z   1
loop_
 _symmetry_equiv_pos_site_id
 _symmetry_equiv_pos_as_xyz
  1  'x, y, z'
loop_
 _atom_site_type_symbol
 _atom_site_label
 _atom_site_symmetry_multiplicity
 _atom_site_fract_x
 _atom_site_fract_y
 _atom_site_fract_z
 _atom_site_occupancy
  In  In0  1  0.01480969  0.16857768  0.12784480  1
  In  In1  1  -0.01380891  0.16314090  0.62153399  1
  In  In2  1  0.00790568  0.50457118  0.12545070  1
  In  In3  1  0.01345399  0.50059636  0.62111291  1
  In  In4  1  -0.00605794  0.82335596  0.11321829  1
  In  In5  1  0.00387403  0.83571356  0.63898106  1
  In  In6  1  0.33566594  0.16811497  0.13006918  1
  In  In7  1  0.37530252  0.16322683  0.62799429  1
  In  In8  1  0.30901596  0.49828505  0.12645533  1
  In  In9  1  0.33300517  0.49910909  0.62603431  1
  In  In10  1  0.33321028  0.84647460  0.12330508  1
  In  In11  1  0.32603783  0.81955617  0.62625179  1
  In  In12  1  0.66034601  0.18113843  0.11989569  1
  In  In13  1  0.66168973  0.16270123  0.63278779  1
  In  In14  1  0.68169746  0.50128145  0.12291260  1
  In  In15  1  0.65277065  0.51564989  0.63642723  1
  In  In16  1  0.66518504  0.81729072  0.12197758  1
  In  In17  1  0.63988560  0.85262122  0.65165540  1
  In  In18  1  0.17088393  -0.01521427  0.37513830  1
  In  In19  1  0.15034614  -0.00166161  0.86576746  1
  In  In20  1  0.17817221  0.34297850  0.36513419  1
  In  In21  1  0.17515472  0.33566156  0.87633670  1
  In  In22  1  0.15499258  0.66516715  0.36937371  1
  In  In23  1  0.16218924  0.66849057  0.87208407  1
  In  In24  1  0.48457124  0.01289386  0.39803347  1
  In  In25  1  0.51129607  -0.00388051  0.86504680  1
  In  In26  1  0.49432448  0.33941993  0.38508368  1
  In  In27  1  0.49038473  0.32197400  0.86399531  1
  In  In28  1  0.50283252  0.65811860  0.38329517  1
  In  In29  1  0.50295307  0.68416478  0.85481252  1
  In  In30  1  0.84568739  0.01208901  0.38359197  1
  In  In31  1  0.82360719  -0.01280766  0.87086426  1
  In  In32  1  0.82989287  0.32652383  0.37674753  1
  In  In33  1  0.83225813  0.34839694  0.87869770  1
  In  In34  1  0.83347980  0.66430489  0.36844187  1
  In  In35  1  0.83844160  0.66360264  0.87671041  1
  In  In36  1  -0.01392687  0.16950488  0.37933806  1
  In  In37  1  0.01098957  0.16564743  0.87210727  1
  In  In38  1  0.01365038  0.50661054  0.36470433  1
  In  In39  1  -0.01372706  0.50494818  0.88884352  1
  In  In40  1  0.01002258  0.82821007  0.37338450  1
  In  In41  1  0.00379643  0.82494619  0.87309289  1
  In  In42  1  0.33971482  0.16984651  0.37668011  1
  In  In43  1  0.33219775  0.18065395  0.86935991  1
  In  In44  1  0.33742317  0.49466949  0.37864530  1
  In  In45  1  0.32360733  0.49886446  0.87371015  1
  In  In46  1  0.33543106  0.84304732  0.37628937  1
  In  In47  1  0.33250531  0.82019424  0.86478817  1
  In  In48  1  0.66665872  0.16685392  0.38937670  1
  In  In49  1  0.65235478  0.15568024  0.86271574  1
  In  In50  1  0.65638585  0.49961839  0.37752789  1
  In  In51  1  0.67562964  0.51014307  0.86639203  1
  In  In52  1  0.66401854  0.82226053  0.37781784  1
  In  In53  1  0.67421401  0.83793234  0.86704717  1
  In  In54  1  0.18084676  0.00647535  0.12197571  1
  In  In55  1  0.16651610  -0.01224907  0.62953241  1
  In  In56  1  0.14770416  0.36213802  0.15549469  1
  In  In57  1  0.17117284  0.34915003  0.62031952  1
  In  In58  1  0.14923328  0.64678013  0.10835331  1
  In  In59  1  0.17376650  0.66181935  0.63459381  1
  In  In60  1  0.48375518  0.00359500  0.12454690  1
  In  In61  1  0.50337900  0.00816157  0.61200120  1
  In  In62  1  0.50386481  0.32159502  0.12314152  1
  In  In63  1  0.49698850  0.33633528  0.63099062  1
  In  In64  1  0.50430495  0.67917672  0.12690902  1
  In  In65  1  0.49831565  0.66636479  0.62659098  1
  In  In66  1  0.84598240  -0.00364890  0.12016212  1
  In  In67  1  0.82732368  0.00120693  0.63143745  1
  In  In68  1  0.84270556  0.35245085  0.11547590  1
  In  In69  1  0.82925516  0.31627602  0.62587684  1
  In  In70  1  0.83954947  0.66635537  0.12270005  1
  In  In71  1  0.82756735  0.67601487  0.63396060  1
  In  In72  1  0.66318792  -0.00481271  0.25513385  1
  In  In73  1  0.33744523  0.00320973  0.74237037  1
  In  In74  1  0.00653338  -0.00200049  0.25464822  1
  In  In75  1  -0.00110131  0.33319459  0.75149277  1
  In  In76  1  0.82697348  0.83673179  0.51054760  1
  In  In77  1  0.17103963  0.16754804  0.50265276  1
  In  In78  1  0.49725494  0.49916366  -0.00834735  1
  In  In79  1  0.66829602  0.33957777  0.25207509  1
  In  In80  1  0.16800498  0.82773826  0.49991372  1
  In  In81  1  0.83030389  0.16565677  0.00304956  1
  In  In82  1  0.82734316  0.49466307  0.50135024  1
  In  In83  1  0.50134408  0.83610524  -0.01308282  1
  In  In84  1  0.17093790  0.17314191  0.00014857  1
  In  In85  1  0.32850110  0.66653277  0.24453495  1
  Cu  Cu86  1  0.00189888  0.66631690  -0.00255174  1
  Cu  Cu87  1  0.50185105  0.83298562  0.25040180  1
  Cu  Cu88  1  0.66009813  0.32909448  -0.00660663  1
  Cu  Cu89  1  0.33160122  0.33321843  0.00059680  1
  Cu  Cu90  1  0.33236737  0.65727075  0.50511496  1
  Cu  Cu91  1  0.16795165  0.83047095  0.24539565  1
  Cu  Cu92  1  0.67017509  0.00115708  0.51158263  1
  Cu  Cu93  1  0.83158262  0.82738303  0.24698950  1
  Cu  Cu94  1  0.84242460  0.82534214  0.75601475  1
  Cu  Cu95  1  0.67844044  0.65918278  -0.00210881  1
  Cu  Cu96  1  0.33131577  0.66784502  -0.00808756  1
  Cu  Cu97  1  0.83337115  0.17477791  0.25264899  1
  Cu  Cu98  1  0.65379284  0.66862991  0.50648547  1
  Cu  Cu99  1  0.83952893  0.50077621  0.75250517  1
  Cu  Cu100  1  0.66101193  0.32858742  0.50855685  1
  Cu  Cu101  1  0.84225220  0.50985740  0.24348174  1
  Cu  Cu102  1  0.16624210  0.50572689  0.75060572  1
  Cu  Cu103  1  0.66156409  -0.00358366  -0.00771117  1
  Cu  Cu104  1  0.49168012  0.49940926  0.75050642  1
  Cu  Cu105  1  0.82783028  0.16009180  0.75015621  1
  Cu  Cu106  1  0.17658880  0.16655513  0.25225529  1
  Cu  Cu107  1  0.33112083  0.00622153  -0.00137261  1
  Cu  Cu108  1  0.00388241  0.33502889  0.50000636  1
  Cu  Cu109  1  -0.00272466  -0.01079699  -0.00813507  1
  Cu  Cu110  1  0.33750096  0.33209232  0.50184463  1
  Cu  Cu111  1  -0.00097872  0.66348865  0.49808614  1
  Cu  Cu112  1  0.16803356  0.16881438  0.74563514  1
  Cu  Cu113  1  0.49811907  0.16384629  0.25627352  1
  Cu  Cu114  1  0.49982186  0.50598832  0.25490965  1
  Se  Se115  1  0.07588516  0.07258901  0.05261126  1
  Se  Se116  1  0.08118785  0.07598859  0.56066742  1
  Se  Se117  1  0.09425005  0.41553044  0.06320402  1
  Se  Se118  1  0.08821621  0.42196814  0.54611067  1
  Se  Se119  1  0.08867994  0.75349140  0.04629579  1
  Se  Se120  1  0.07514629  0.74353483  0.56153930  1
  Se  Se121  1  0.41253445  0.08931531  0.05271019  1
  Se  Se122  1  0.41056507  0.07856994  0.54370674  1
  Se  Se123  1  0.41327305  0.41468973  0.06071602  1
  Se  Se124  1  0.41768331  0.41731104  0.55723853  1
  Se  Se125  1  0.41182258  0.74777681  0.05273574  1
  Se  Se126  1  0.41253841  0.74497077  0.55556768  1
  Se  Se127  1  0.73700537  0.07249000  0.06121266  1
  Se  Se128  1  0.75227745  0.08794815  0.56110568  1
  Se  Se129  1  0.74256861  0.41241145  0.04729436  1
  Se  Se130  1  0.73929997  0.41288689  0.56779429  1
  Se  Se131  1  0.75446301  0.74829095  0.05215387  1
  Se  Se132  1  0.73256893  0.74935625  0.56609269  1
  Se  Se133  1  0.25115054  0.26046959  0.06629404  1
  Se  Se134  1  0.26160870  0.25217983  0.56547361  1
  Se  Se135  1  0.25305672  0.58075781  0.04558232  1
  Se  Se136  1  0.24366090  0.58050651  0.55805614  1
  Se  Se137  1  0.24983539  0.91852320  0.04893142  1
  Se  Se138  1  0.25787131  0.92112126  0.55515939  1
  Se  Se139  1  0.57557454  0.24559283  0.04406241  1
  Se  Se140  1  0.57884687  0.24761702  0.56371173  1
  Se  Se141  1  0.58668311  0.58898013  0.05654018  1
  Se  Se142  1  0.57476157  0.57704583  0.55464557  1
  Se  Se143  1  0.58329268  0.92060299  0.06042214  1
  Se  Se144  1  0.58860706  0.90870707  0.55692722  1
  Se  Se145  1  0.92838892  0.25134241  0.05863340  1
  Se  Se146  1  0.91731435  0.25325540  0.55014876  1
  Se  Se147  1  0.92124087  0.58246105  0.05445581  1
  Se  Se148  1  0.91460616  0.58998043  0.55994471  1
  Se  Se149  1  0.91123566  0.91046248  0.04636238  1
  Se  Se150  1  0.92528053  0.92144559  0.56417599  1
  Se  Se151  1  0.08487302  0.25654612  0.43802998  1
  Se  Se152  1  0.07500799  0.26107403  0.94328336  1
  Se  Se153  1  0.08368770  0.58300721  0.44491771  1
  Se  Se154  1  0.08715280  0.58284509  0.94538945  1
  Se  Se155  1  0.07109275  0.92344813  0.44678637  1
  Se  Se156  1  0.08761076  0.91215646  0.94186580  1
  Se  Se157  1  0.42083752  0.24572832  0.45092321  1
  Se  Se158  1  0.41368853  0.25229113  0.94496574  1
  Se  Se159  1  0.41725861  0.57636729  0.44950745  1
  Se  Se160  1  0.41889229  0.59835477  0.93110054  1
  Se  Se161  1  0.42193879  0.90181003  0.45209582  1
  Se  Se162  1  0.40552081  0.92613013  0.93296166  1
  Se  Se163  1  0.75101672  0.25419349  0.45274929  1
  Se  Se164  1  0.74268833  0.24690655  0.93548314  1
  Se  Se165  1  0.74109769  0.59503336  0.44564889  1
  Se  Se166  1  0.75841289  0.57358977  0.94522244  1
  Se  Se167  1  0.74368890  0.92628982  0.44102159  1
  Se  Se168  1  0.74771880  0.91035236  0.94730096  1
  Se  Se169  1  0.25493513  0.07339761  0.44067882  1
  Se  Se170  1  0.25043256  0.08072101  0.93340834  1
  Se  Se171  1  0.25216560  0.41191723  0.44656269  1
  Se  Se172  1  0.24920694  0.41889766  0.94945863  1
  Se  Se173  1  0.25692842  0.73632389  0.43791656  1
  Se  Se174  1  0.24899513  0.75285988  0.94043273  1
  Se  Se175  1  0.58556096  0.08539247  0.45793395  1
  Se  Se176  1  0.57847758  0.08015550  0.94179542  1
  Se  Se177  1  0.58639156  0.41594986  0.45113848  1
  Se  Se178  1  0.58699238  0.41234349  0.93061204  1
  Se  Se179  1  0.57598194  0.75301251  0.44956614  1
  Se  Se180  1  0.59428675  0.73811507  0.93815816  1
  Se  Se181  1  0.92061106  0.08891767  0.45629808  1
  Se  Se182  1  0.91949443  0.07903317  0.93782694  1
  Se  Se183  1  0.92351434  0.41583032  0.43836567  1
  Se  Se184  1  0.91891724  0.40731753  0.95401889  1
  Se  Se185  1  0.91688576  0.74776470  0.44350158  1
  Se  Se186  1  0.91750118  0.75024779  0.94541959  1
  Se  Se187  1  0.26067229  0.24970546  0.30472910  1
  Se  Se188  1  0.24547689  0.25564140  0.79931615  1
  Se  Se189  1  0.24592797  0.57547588  0.30781325  1
  Se  Se190  1  0.25145415  0.58800725  0.80376695  1
  Se  Se191  1  0.25105286  0.91185603  0.29998687  1
  Se  Se192  1  0.24693475  0.91751605  0.80437654  1
  Se  Se193  1  0.58292218  0.24516419  0.31290599  1
  Se  Se194  1  0.58923913  0.25665471  0.79914038  1
  Se  Se195  1  0.58528440  0.58749823  0.30596308  1
  Se  Se196  1  0.58031356  0.58136579  0.80054897  1
  Se  Se197  1  0.57113954  0.91392062  0.31753876  1
  Se  Se198  1  0.57385706  0.89765067  0.79997935  1
  Se  Se199  1  0.91828760  0.25593291  0.30468023  1
  Se  Se200  1  0.90619539  0.24279760  0.81152740  1
  Se  Se201  1  0.92372381  0.59016235  0.30164767  1
  Se  Se202  1  0.92337481  0.58113188  0.80690891  1
  Se  Se203  1  0.90647853  0.90971749  0.31055855  1
  Se  Se204  1  0.92083867  0.91568301  0.80737960  1
  Se  Se205  1  0.09300783  0.09102423  0.31532293  1
  Se  Se206  1  0.07963491  0.08737652  0.79419188  1
  Se  Se207  1  0.07866208  0.40770904  0.30034302  1
  Se  Se208  1  0.08529825  0.42472557  0.81155544  1
  Se  Se209  1  0.08052034  0.74982853  0.29664481  1
  Se  Se210  1  0.08442577  0.74909835  0.79966505  1
  Se  Se211  1  0.42020790  0.07785502  0.31076312  1
  Se  Se212  1  0.42296713  0.09254419  0.80579308  1
  Se  Se213  1  0.42300096  0.41736579  0.30739961  1
  Se  Se214  1  0.40826637  0.41745421  0.80561844  1
  Se  Se215  1  0.41995886  0.74981151  0.30872729  1
  Se  Se216  1  0.41444497  0.75743744  0.78762020  1
  Se  Se217  1  0.75540640  0.09193546  0.31080395  1
  Se  Se218  1  0.74511840  0.07313388  0.80211369  1
  Se  Se219  1  0.76205098  0.43220873  0.30884984  1
  Se  Se220  1  0.75299339  0.41622231  0.80091298  1
  Se  Se221  1  0.74768542  0.74992960  0.30426948  1
  Se  Se222  1  0.75428654  0.74316627  0.80625074  1
  Se  Se223  1  0.25591576  0.08012514  0.19882303  1
  Se  Se224  1  0.24961045  0.09669780  0.68141234  1
  Se  Se225  1  0.27129808  0.40439395  0.20445595  1
  Se  Se226  1  0.24784520  0.41920093  0.69825682  1
  Se  Se227  1  0.24178339  0.75194100  0.17934110  1
  Se  Se228  1  0.22981803  0.76667523  0.69876251  1
  Se  Se229  1  0.58073360  0.09129820  0.19204836  1
  Se  Se230  1  0.57975666  0.07048251  0.69353227  1
  Se  Se231  1  0.57766176  0.42701184  0.18908659  1
  Se  Se232  1  0.58157013  0.41860973  0.70059041  1
  Se  Se233  1  0.58755819  0.74908990  0.20146591  1
  Se  Se234  1  0.59844100  0.72624295  0.69550595  1
  Se  Se235  1  0.91220773  0.09033063  0.19456839  1
  Se  Se236  1  0.91708594  0.08237583  0.69814430  1
  Se  Se237  1  0.92014157  0.41911728  0.19364718  1
  Se  Se238  1  0.91189010  0.42086939  0.68577592  1
  Se  Se239  1  0.92029005  0.75195243  0.19281334  1
  Se  Se240  1  0.92408806  0.74241535  0.70105130  1
  Se  Se241  1  0.08349627  0.24560216  0.20511113  1
  Se  Se242  1  0.08611368  0.24882302  0.68408567  1
  Se  Se243  1  0.09012900  0.58578161  0.19598286  1
  Se  Se244  1  0.07773217  0.58347101  0.69765066  1
  Se  Se245  1  0.08807622  0.91401522  0.18492286  1
  Se  Se246  1  0.08331781  0.92301443  0.70448386  1
  Se  Se247  1  0.42301619  0.24957033  0.19813659  1
  Se  Se248  1  0.40960936  0.26169056  0.70240370  1
  Se  Se249  1  0.42285469  0.57676813  0.18486308  1
  Se  Se250  1  0.41139274  0.58510606  0.69552695  1
  Se  Se251  1  0.41735433  0.91618831  0.19836677  1
  Se  Se252  1  0.42151156  0.91228360  0.68079098  1
  Se  Se253  1  0.75880771  0.25247197  0.18765179  1
  Se  Se254  1  0.74628568  0.24860876  0.70103897  1
  Se  Se255  1  0.75126679  0.58881195  0.19410540  1
  Se  Se256  1  0.75369530  0.58313042  0.69994162  1
  Se  Se257  1  0.75545022  0.91302844  0.18905549  1
  Se  Se258  1  0.75892937  0.90878409  0.70144234  1
