# generated using pymatgen
data_In86Cu29Se144
_symmetry_space_group_name_H-M   'P 1'
_cell_length_a   17.57714369
_cell_length_b   17.57233343
_cell_length_c   23.42367997
_cell_angle_alpha   90.03122793
_cell_angle_beta   90.00790848
_cell_angle_gamma   89.98738041
_symmetry_Int_Tables_number   1
_chemical_formula_structural   In86Cu29Se144
_chemical_formula_sum   'In86 Cu29 Se144'
_cell_volume   7234.90419932
_cell_formula_units_Z   1
loop_
 _symmetry_equiv_pos_site_id
 _symmetry_equiv_pos_as_xyz
  1  'x, y, z'
loop_
 _atom_site_type_symbol
 _atom_site_label
 _atom_site_symmetry_multiplicity
 _atom_site_fract_x
 _atom_site_fract_y
 _atom_site_fract_z
 _atom_site_occupancy
  In  In0  1  0.00635296  0.16494892  0.13422877  1
  In  In1  1  0.01350837  0.16166206  0.62214455  1
  In  In2  1  -0.01518707  0.48350956  0.10770543  1
  In  In3  1  0.00718504  0.50266462  0.61991759  1
  In  In4  1  0.01330886  0.83970464  0.12272130  1
  In  In5  1  -0.01062810  0.82705380  0.62971081  1
  In  In6  1  0.32960771  0.14856275  0.10855595  1
  In  In7  1  0.32128566  0.15433532  0.62312955  1
  In  In8  1  0.33517565  0.50065870  0.11690947  1
  In  In9  1  0.32552573  0.50756348  0.62623016  1
  In  In10  1  0.34845503  0.85519125  0.10552422  1
  In  In11  1  0.35014436  0.83448098  0.62255095  1
  In  In12  1  0.66036489  0.17588879  0.13432671  1
  In  In13  1  0.65759274  0.17194980  0.62675956  1
  In  In14  1  0.66418780  0.49334073  0.13001310  1
  In  In15  1  0.66591284  0.48605118  0.62409148  1
  In  In16  1  0.66232294  0.84708528  0.13937639  1
  In  In17  1  0.66398783  0.84991714  0.62450775  1
  In  In18  1  0.18246325  0.01113596  0.36544302  1
  In  In19  1  0.17584821  -0.00162807  0.88511612  1
  In  In20  1  0.16228389  0.33648410  0.37932764  1
  In  In21  1  0.16301855  0.33057284  0.88913750  1
  In  In22  1  0.15625318  0.65615719  0.37352290  1
  In  In23  1  0.16290959  0.66814031  0.87274899  1
  In  In24  1  0.49972983  0.00292784  0.37391329  1
  In  In25  1  0.49798174  0.00130763  0.87908502  1
  In  In26  1  0.49404235  0.32300047  0.37140281  1
  In  In27  1  0.50862673  0.32056625  0.88227252  1
  In  In28  1  0.51853085  0.67031367  0.37303158  1
  In  In29  1  0.49073795  0.67567247  0.88705370  1
  In  In30  1  0.82776880  -0.00384792  0.35194252  1
  In  In31  1  0.82487062  0.01293645  0.87632029  1
  In  In32  1  0.84619391  0.33458585  0.36156460  1
  In  In33  1  0.83951918  0.34650416  0.87919186  1
  In  In34  1  0.81755699  0.66520028  0.37371738  1
  In  In35  1  0.83340325  0.64823470  0.87933182  1
  In  In36  1  0.00651627  0.17467647  0.36447407  1
  In  In37  1  0.01429755  0.17196228  0.88254927  1
  In  In38  1  0.00313661  0.49080512  0.37803053  1
  In  In39  1  -0.00745239  0.49649531  0.88141833  1
  In  In40  1  -0.01613208  0.83588658  0.36540683  1
  In  In41  1  0.01721829  0.83452627  0.87613982  1
  In  In42  1  0.34518936  0.16263879  0.38109810  1
  In  In43  1  0.33712692  0.15779872  0.88744111  1
  In  In44  1  0.32940158  0.48707109  0.37501292  1
  In  In45  1  0.32911289  0.50637060  0.88237648  1
  In  In46  1  0.33430392  0.85235513  0.37089795  1
  In  In47  1  0.32592620  0.84894586  0.88843156  1
  In  In48  1  0.65716923  0.15657676  0.36476426  1
  In  In49  1  0.65921159  0.15978771  0.87054685  1
  In  In50  1  0.67459632  0.51162619  0.36611315  1
  In  In51  1  0.67724122  0.48899435  0.88276135  1
  In  In52  1  0.66197072  0.82756225  0.36535026  1
  In  In53  1  0.64891691  0.83799726  0.88073802  1
  In  In54  1  0.17298462  0.00305862  0.12182972  1
  In  In55  1  0.17510201  0.01808739  0.62366480  1
  In  In56  1  0.15612314  0.32346864  0.11077946  1
  In  In57  1  0.16288912  0.33048370  0.62312820  1
  In  In58  1  0.16123986  0.66532581  0.11692192  1
  In  In59  1  0.16316461  0.65034603  0.62877941  1
  In  In60  1  0.49704691  0.00241266  0.12081932  1
  In  In61  1  0.49807924  0.00465098  0.62408304  1
  In  In62  1  0.51092062  0.33718711  0.11848213  1
  In  In63  1  0.51469279  0.33131552  0.62800740  1
  In  In64  1  0.50876482  0.66833470  0.12543959  1
  In  In65  1  0.48722323  0.67496705  0.62404416  1
  In  In66  1  0.82880563  0.01509970  0.15209279  1
  In  In67  1  0.82849131  -0.01298499  0.62532514  1
  In  In68  1  0.82310302  0.33699953  0.13672105  1
  In  In69  1  0.81790731  0.33055808  0.62101198  1
  In  In70  1  0.83272353  0.65328617  0.12663474  1
  In  In71  1  0.84840180  0.66532594  0.62740716  1
  In  In72  1  0.83234227  0.16726976  0.48731975  1
  In  In73  1  0.66562788  0.66552201  0.75712270  1
  In  In74  1  0.34123279  0.32974544  0.24496839  1
  In  In75  1  -0.00105059  0.33180185  0.75424214  1
  In  In76  1  0.00048942  0.67062946  0.24442439  1
  In  In77  1  0.83631990  0.83290764  0.01534875  1
  In  In78  1  0.33426356  0.66999973  0.23625195  1
  In  In79  1  0.83085707  0.17281963  0.01331384  1
  In  In80  1  0.49837499  0.49953609  0.50059519  1
  In  In81  1  0.16690032  0.83231377  0.49316246  1
  In  In82  1  0.32906941  0.67238636  0.75439997  1
  In  In83  1  0.82672963  0.83223040  0.49127184  1
  In  In84  1  0.33065714  0.32726991  0.75554525  1
  In  In85  1  -0.00227357  -0.00172052  0.75140696  1
  Cu  Cu86  1  0.00567387  0.00595005  0.00713355  1
  Cu  Cu87  1  0.82547341  0.16776232  0.74888631  1
  Cu  Cu88  1  -0.00111350  0.33024458  0.49523172  1
  Cu  Cu89  1  0.66129291  -0.00280546  0.00491052  1
  Cu  Cu90  1  0.49578181  0.16090973  0.24685898  1
  Cu  Cu91  1  0.49458401  0.83767670  0.24616845  1
  Cu  Cu92  1  0.65850713  0.00695601  0.49739455  1
  Cu  Cu93  1  0.49991413  0.84801791  0.75126160  1
  Cu  Cu94  1  0.66896762  0.33210168  0.00652807  1
  Cu  Cu95  1  0.50129004  0.16344225  0.75309367  1
  Cu  Cu96  1  0.66232612  0.65906332  0.00309693  1
  Cu  Cu97  1  0.33963531  0.33240781  0.00060181  1
  Cu  Cu98  1  0.32850620  0.32977748  0.50131463  1
  Cu  Cu99  1  0.16993793  0.84408470  0.24235362  1
  Cu  Cu100  1  0.50536062  0.49484926  0.75696196  1
  Cu  Cu101  1  0.83393082  0.49559175  0.75427526  1
  Cu  Cu102  1  -0.00018242  0.66776724  -0.00269317  1
  Cu  Cu103  1  0.33955139  0.00432886  0.49764254  1
  Cu  Cu104  1  0.83329556  0.50101822  0.24652884  1
  Cu  Cu105  1  0.33289645  0.66800488  0.50114504  1
  Cu  Cu106  1  0.16308243  0.49147899  0.24758012  1
  Cu  Cu107  1  0.00254124  0.65339158  0.50181876  1
  Cu  Cu108  1  0.00497116  0.00329860  0.49231668  1
  Cu  Cu109  1  0.66717584  0.66920643  0.49606053  1
  Cu  Cu110  1  0.16996629  0.83736462  0.75428750  1
  Cu  Cu111  1  0.82822886  0.83054779  0.75122434  1
  Cu  Cu112  1  0.33276968  0.66725773  0.00074232  1
  Cu  Cu113  1  0.66677051  0.33452583  0.49702147  1
  Cu  Cu114  1  0.17274175  0.17161490  0.24314502  1
  Se  Se115  1  0.08669688  0.09291101  0.05818263  1
  Se  Se116  1  0.08799183  0.08291245  0.54737219  1
  Se  Se117  1  0.10610987  0.44092399  0.05593131  1
  Se  Se118  1  0.08176370  0.41160030  0.55278323  1
  Se  Se119  1  0.08163320  0.75317439  0.04916928  1
  Se  Se120  1  0.07658220  0.74512041  0.55752194  1
  Se  Se121  1  0.41225768  0.06520232  0.04253114  1
  Se  Se122  1  0.41788457  0.08924616  0.55427603  1
  Se  Se123  1  0.42257541  0.41726152  0.05230950  1
  Se  Se124  1  0.40932482  0.40942556  0.56376832  1
  Se  Se125  1  0.41966825  0.74435130  0.05541836  1
  Se  Se126  1  0.42071625  0.75387920  0.54566720  1
  Se  Se127  1  0.74383461  0.07356277  0.06659947  1
  Se  Se128  1  0.74862022  0.07865755  0.55639086  1
  Se  Se129  1  0.75228602  0.41593200  0.05880812  1
  Se  Se130  1  0.75024747  0.41926992  0.54789696  1
  Se  Se131  1  0.73785925  0.74280321  0.06558874  1
  Se  Se132  1  0.74510612  0.74573130  0.56330863  1
  Se  Se133  1  0.25262272  0.24811398  0.04913009  1
  Se  Se134  1  0.24621432  0.24694303  0.55619180  1
  Se  Se135  1  0.24838914  0.58299595  0.05145730  1
  Se  Se136  1  0.24813736  0.58468692  0.55187931  1
  Se  Se137  1  0.23296875  0.90560895  0.05085719  1
  Se  Se138  1  0.25643939  0.92052059  0.55579190  1
  Se  Se139  1  0.58554202  0.24178363  0.05234894  1
  Se  Se140  1  0.58407016  0.25128103  0.55037397  1
  Se  Se141  1  0.58156589  0.57488462  0.05796449  1
  Se  Se142  1  0.58833760  0.59244265  0.56230836  1
  Se  Se143  1  0.58389029  0.91003365  0.05873712  1
  Se  Se144  1  0.57946508  0.92026808  0.55218231  1
  Se  Se145  1  0.92328185  0.26052071  0.06859187  1
  Se  Se146  1  0.92099121  0.24975984  0.55798140  1
  Se  Se147  1  0.91276202  0.58632981  0.04870198  1
  Se  Se148  1  0.91167816  0.57682371  0.55335402  1
  Se  Se149  1  0.91703054  0.93764297  0.06899145  1
  Se  Se150  1  0.92551372  0.92093957  0.55149353  1
  Se  Se151  1  0.08226241  0.24501883  0.44416251  1
  Se  Se152  1  0.06900731  0.26163503  0.95705143  1
  Se  Se153  1  0.08749132  0.57314432  0.44777365  1
  Se  Se154  1  0.08168874  0.58518989  0.94209137  1
  Se  Se155  1  0.07924630  0.91984664  0.43020539  1
  Se  Se156  1  0.08217793  0.91989735  0.95071278  1
  Se  Se157  1  0.41917059  0.25268103  0.45039379  1
  Se  Se158  1  0.42277882  0.24457088  0.95119187  1
  Se  Se159  1  0.41161598  0.58926589  0.43677151  1
  Se  Se160  1  0.41853882  0.58009077  0.95130046  1
  Se  Se161  1  0.42001775  0.91745130  0.44570376  1
  Se  Se162  1  0.43388486  0.90503231  0.94855142  1
  Se  Se163  1  0.74120776  0.25718680  0.43024805  1
  Se  Se164  1  0.74647282  0.25247450  0.94102718  1
  Se  Se165  1  0.74875578  0.58052649  0.44830515  1
  Se  Se166  1  0.75074675  0.57803423  0.95329863  1
  Se  Se167  1  0.74224577  0.93024780  0.43567053  1
  Se  Se168  1  0.74852536  0.92037916  0.94735274  1
  Se  Se169  1  0.25106036  0.08530131  0.44633798  1
  Se  Se170  1  0.24465201  0.08706347  0.95534849  1
  Se  Se171  1  0.24767816  0.41678651  0.44944218  1
  Se  Se172  1  0.25390246  0.41602483  0.94930857  1
  Se  Se173  1  0.25746927  0.74212795  0.43238696  1
  Se  Se174  1  0.24910376  0.74537044  0.94269399  1
  Se  Se175  1  0.57708229  0.09154899  0.44442576  1
  Se  Se176  1  0.58627623  0.08344550  0.94766301  1
  Se  Se177  1  0.58577622  0.41488677  0.43586698  1
  Se  Se178  1  0.58564747  0.41273241  0.94859173  1
  Se  Se179  1  0.58676715  0.75735390  0.44653048  1
  Se  Se180  1  0.58313592  0.75000108  0.95385079  1
  Se  Se181  1  0.91942662  0.07308254  0.42969715  1
  Se  Se182  1  0.92023684  0.08162856  0.94725213  1
  Se  Se183  1  0.91239196  0.41109628  0.44317120  1
  Se  Se184  1  0.91962156  0.41309255  0.95463257  1
  Se  Se185  1  0.92553307  0.73744454  0.44102445  1
  Se  Se186  1  0.91706264  0.75108332  0.94021057  1
  Se  Se187  1  0.25070583  0.24733106  0.31078514  1
  Se  Se188  1  0.24329637  0.24181423  0.81851299  1
  Se  Se189  1  0.24556879  0.57612474  0.30257147  1
  Se  Se190  1  0.24141308  0.57234000  0.80371519  1
  Se  Se191  1  0.25704865  0.92398707  0.29445914  1
  Se  Se192  1  0.25102586  0.91946828  0.80851466  1
  Se  Se193  1  0.57666410  0.24828695  0.29917686  1
  Se  Se194  1  0.58482776  0.25157674  0.80222605  1
  Se  Se195  1  0.58319633  0.58554795  0.29989039  1
  Se  Se196  1  0.57590902  0.57999074  0.81945661  1
  Se  Se197  1  0.57862995  0.91799978  0.30336039  1
  Se  Se198  1  0.58646745  0.92519610  0.80570831  1
  Se  Se199  1  0.90906337  0.23498258  0.29419492  1
  Se  Se200  1  0.90881685  0.23778457  0.81308676  1
  Se  Se201  1  0.91473877  0.58067111  0.30918651  1
  Se  Se202  1  0.91800301  0.57901958  0.80540753  1
  Se  Se203  1  0.92734235  0.92410016  0.29088578  1
  Se  Se204  1  0.90749589  0.91034167  0.81505052  1
  Se  Se205  1  0.09146361  0.08780809  0.29990872  1
  Se  Se206  1  0.08893458  0.08396064  0.81119961  1
  Se  Se207  1  0.08134556  0.41131487  0.30431894  1
  Se  Se208  1  0.08971685  0.41906211  0.81310762  1
  Se  Se209  1  0.09522568  0.76085656  0.30488755  1
  Se  Se210  1  0.08392978  0.75086173  0.80001861  1
  Se  Se211  1  0.41234163  0.08152907  0.30354865  1
  Se  Se212  1  0.41688521  0.08625147  0.80970151  1
  Se  Se213  1  0.42718096  0.42659031  0.30392120  1
  Se  Se214  1  0.42048858  0.41916415  0.81547238  1
  Se  Se215  1  0.41827968  0.75406825  0.30786554  1
  Se  Se216  1  0.42103480  0.76347026  0.81011041  1
  Se  Se217  1  0.74085597  0.08292569  0.29328708  1
  Se  Se218  1  0.74420945  0.07986446  0.79966497  1
  Se  Se219  1  0.75211477  0.41786121  0.30221144  1
  Se  Se220  1  0.74981360  0.41132134  0.80488917  1
  Se  Se221  1  0.76659288  0.76399828  0.30401119  1
  Se  Se222  1  0.75366360  0.75538817  0.81896116  1
  Se  Se223  1  0.25544549  0.08599022  0.19251559  1
  Se  Se224  1  0.25211391  0.08109081  0.70309643  1
  Se  Se225  1  0.24736270  0.41715858  0.18698365  1
  Se  Se226  1  0.24252421  0.42085502  0.69434175  1
  Se  Se227  1  0.24426174  0.76155092  0.18046388  1
  Se  Se228  1  0.24371242  0.75946800  0.68561244  1
  Se  Se229  1  0.58115711  0.07811697  0.19372284  1
  Se  Se230  1  0.58384969  0.08219503  0.69517783  1
  Se  Se231  1  0.59355545  0.39774840  0.19686179  1
  Se  Se232  1  0.58782949  0.41517602  0.70142502  1
  Se  Se233  1  0.58156142  0.75096919  0.19987576  1
  Se  Se234  1  0.57642209  0.75709642  0.69450124  1
  Se  Se235  1  0.91523952  0.10570185  0.20980474  1
  Se  Se236  1  0.90828115  0.09028000  0.68771072  1
  Se  Se237  1  0.92141873  0.42013743  0.19555348  1
  Se  Se238  1  0.90888498  0.41573422  0.68871338  1
  Se  Se239  1  0.91224522  0.75892640  0.18381939  1
  Se  Se240  1  0.91657050  0.74694544  0.70461327  1
  Se  Se241  1  0.08878768  0.25968945  0.19659651  1
  Se  Se242  1  0.09231869  0.23866356  0.69861518  1
  Se  Se243  1  0.08422674  0.57353281  0.18745419  1
  Se  Se244  1  0.07167616  0.58460323  0.69741556  1
  Se  Se245  1  0.08321771  0.92826619  0.19394841  1
  Se  Se246  1  0.08981831  0.91232038  0.68698443  1
  Se  Se247  1  0.42039992  0.23747318  0.18010167  1
  Se  Se248  1  0.42187732  0.24403897  0.69069185  1
  Se  Se249  1  0.42665881  0.57076473  0.19125283  1
  Se  Se250  1  0.42542699  0.57600273  0.69749729  1
  Se  Se251  1  0.41230597  0.92035998  0.19192818  1
  Se  Se252  1  0.41326012  0.92403829  0.69559845  1
  Se  Se253  1  0.75382716  0.24259583  0.20268121  1
  Se  Se254  1  0.74398113  0.25221899  0.69572283  1
  Se  Se255  1  0.74523062  0.58348918  0.19825896  1
  Se  Se256  1  0.75366053  0.57735533  0.69291491  1
  Se  Se257  1  0.75784778  0.91152317  0.20759410  1
  Se  Se258  1  0.74702671  0.91739408  0.70105166  1
