# generated using pymatgen
data_In86Cu29Se144
_symmetry_space_group_name_H-M   'P 1'
_cell_length_a   17.58984710
_cell_length_b   17.58420382
_cell_length_c   23.44994490
_cell_angle_alpha   89.99266297
_cell_angle_beta   90.01486695
_cell_angle_gamma   89.97679481
_symmetry_Int_Tables_number   1
_chemical_formula_structural   In86Cu29Se144
_chemical_formula_sum   'In86 Cu29 Se144'
_cell_volume   7253.14811446
_cell_formula_units_Z   1
loop_
 _symmetry_equiv_pos_site_id
 _symmetry_equiv_pos_as_xyz
  1  'x, y, z'
loop_
 _atom_site_type_symbol
 _atom_site_label
 _atom_site_symmetry_multiplicity
 _atom_site_fract_x
 _atom_site_fract_y
 _atom_site_fract_z
 _atom_site_occupancy
  In  In0  1  -0.00135254  0.16484230  0.12664992  1
  In  In1  1  -0.01180358  0.15034456  0.62065677  1
  In  In2  1  -0.01235384  0.51070876  0.13180213  1
  In  In3  1  0.00152765  0.50425596  0.62267870  1
  In  In4  1  -0.00200570  0.83754008  0.12511268  1
  In  In5  1  0.01278245  0.84186766  0.62357363  1
  In  In6  1  0.33483015  0.16161044  0.11649376  1
  In  In7  1  0.33925717  0.17209481  0.61105581  1
  In  In8  1  0.34287682  0.49192762  0.12145019  1
  In  In9  1  0.34073736  0.48067103  0.62908120  1
  In  In10  1  0.33941962  0.83959683  0.11767453  1
  In  In11  1  0.32375726  0.85414328  0.62419948  1
  In  In12  1  0.67107661  0.16762751  0.12291022  1
  In  In13  1  0.67836066  0.17264954  0.62172698  1
  In  In14  1  0.66872049  0.50096625  0.12760136  1
  In  In15  1  0.64112914  0.49273086  0.61554921  1
  In  In16  1  0.66650732  0.83683026  0.12491641  1
  In  In17  1  0.66025492  0.83463259  0.62266254  1
  In  In18  1  0.15757554  0.00889854  0.38548216  1
  In  In19  1  0.16282685  0.00570002  0.87614120  1
  In  In20  1  0.15677024  0.32776679  0.37420373  1
  In  In21  1  0.16494360  0.31782950  0.87393788  1
  In  In22  1  0.16465142  0.67648104  0.37589405  1
  In  In23  1  0.16955888  0.67927286  0.87863377  1
  In  In24  1  0.51120803  0.00445947  0.37346528  1
  In  In25  1  0.50548606  0.01539877  0.88787049  1
  In  In26  1  0.50946371  0.32379499  0.37851094  1
  In  In27  1  0.50835210  0.32578634  0.87531681  1
  In  In28  1  0.50036843  0.66257114  0.37718878  1
  In  In29  1  0.50331246  0.66197791  0.88329540  1
  In  In30  1  0.83432376  0.00370591  0.36695947  1
  In  In31  1  0.83876081  -0.00337891  0.88810538  1
  In  In32  1  0.82235942  0.32122535  0.36541457  1
  In  In33  1  0.82211987  0.34057740  0.88537564  1
  In  In34  1  0.82939662  0.66507026  0.35959527  1
  In  In35  1  0.82613306  0.67474002  0.88614218  1
  In  In36  1  -0.00329593  0.16291302  0.37173570  1
  In  In37  1  0.00998811  0.15709325  0.88383741  1
  In  In38  1  -0.00760718  0.49168135  0.36210854  1
  In  In39  1  -0.00979973  0.48975984  0.87956152  1
  In  In40  1  0.00144217  0.84053147  0.36319154  1
  In  In41  1  -0.00324556  0.84345163  0.88272423  1
  In  In42  1  0.33784898  0.15669785  0.39054418  1
  In  In43  1  0.33359649  0.17234996  0.87462531  1
  In  In44  1  0.35162042  0.51431847  0.38219403  1
  In  In45  1  0.35021290  0.49313575  0.87464639  1
  In  In46  1  0.32343550  0.81843186  0.38355007  1
  In  In47  1  0.33077761  0.84339804  0.88250458  1
  In  In48  1  0.66495648  0.16678127  0.37251697  1
  In  In49  1  0.65889540  0.17764741  0.89376640  1
  In  In50  1  0.66117923  0.49889507  0.36865534  1
  In  In51  1  0.67543675  0.49151107  0.88263572  1
  In  In52  1  0.66916122  0.84268308  0.36204152  1
  In  In53  1  0.66399978  0.84520051  0.89374479  1
  In  In54  1  0.15920322  -0.00864462  0.11974367  1
  In  In55  1  0.15880301  -0.01040371  0.61718168  1
  In  In56  1  0.16437905  0.31382789  0.12438762  1
  In  In57  1  0.18496921  0.33223923  0.62859071  1
  In  In58  1  0.15296126  0.67306283  0.12648443  1
  In  In59  1  0.16815193  0.67873698  0.61753606  1
  In  In60  1  0.51986285  0.01471959  0.10858327  1
  In  In61  1  0.49701109  0.01632398  0.62169699  1
  In  In62  1  0.51369557  0.34518743  0.11862586  1
  In  In63  1  0.50000165  0.32433598  0.62439981  1
  In  In64  1  0.51516594  0.67977578  0.11911509  1
  In  In65  1  0.50418195  0.65604229  0.61487332  1
  In  In66  1  0.82727061  0.00588317  0.12008322  1
  In  In67  1  0.83049681  0.01595893  0.62882109  1
  In  In68  1  0.83326721  0.33249438  0.12598718  1
  In  In69  1  0.83547816  0.31574217  0.62477930  1
  In  In70  1  0.83172661  0.66843011  0.12536889  1
  In  In71  1  0.83192351  0.67373666  0.62484710  1
  In  In72  1  0.16141852  0.50107833  0.00093704  1
  In  In73  1  0.33337087  -0.00209987  0.25809410  1
  In  In74  1  0.66658752  0.00724791  0.75243778  1
  In  In75  1  0.49583510  0.84171590  0.49988985  1
  In  In76  1  0.33310274  0.66488719  0.25689734  1
  In  In77  1  0.17089947  0.49557991  0.50234410  1
  In  In78  1  0.82595136  0.49275698  0.48260384  1
  In  In79  1  0.82891787  0.83866855  0.48801862  1
  In  In80  1  -0.00359335  0.66780467  0.76385057  1
  In  In81  1  0.33384646  0.00927287  0.75371533  1
  In  In82  1  0.00099318  0.32530005  0.75438666  1
  In  In83  1  0.67358214  0.65982680  0.75225740  1
  In  In84  1  0.33047903  0.66925187  0.74327769  1
  In  In85  1  0.33222876  0.33015652  0.25262281  1
  Cu  Cu86  1  0.83034145  0.16786001  0.75457541  1
  Cu  Cu87  1  0.83384965  0.49974483  0.24392205  1
  Cu  Cu88  1  0.16875574  0.16304858  0.74888832  1
  Cu  Cu89  1  0.82234476  0.48872183  0.75063148  1
  Cu  Cu90  1  0.33500834  0.00392594  -0.00341772  1
  Cu  Cu91  1  0.50653190  0.50387797  0.24817701  1
  Cu  Cu92  1  0.83279014  0.16596785  0.24564155  1
  Cu  Cu93  1  0.83933152  0.84138955  0.75899115  1
  Cu  Cu94  1  0.50064007  0.83138373  0.75514303  1
  Cu  Cu95  1  0.00367869  0.31556244  0.49868726  1
  Cu  Cu96  1  0.51025174  0.17580268  0.24503223  1
  Cu  Cu97  1  0.50450910  0.84047410  0.24332635  1
  Cu  Cu98  1  0.50448848  0.48103929  0.75102352  1
  Cu  Cu99  1  -0.00130106  0.66378274  0.49581073  1
  Cu  Cu100  1  0.33346455  0.66590298  -0.00290268  1
  Cu  Cu101  1  0.33912685  0.32944461  -0.00176064  1
  Cu  Cu102  1  -0.00615018  0.33122108  0.00363957  1
  Cu  Cu103  1  0.66647003  0.33111243  0.49593302  1
  Cu  Cu104  1  -0.00205131  -0.00302187  0.49405795  1
  Cu  Cu105  1  0.16075196  0.15716587  0.25182040  1
  Cu  Cu106  1  0.16057930  0.83281943  0.24874218  1
  Cu  Cu107  1  0.33990308  0.33592196  0.50186663  1
  Cu  Cu108  1  0.17156936  0.50502712  0.74687881  1
  Cu  Cu109  1  0.15987948  0.49549620  0.24916380  1
  Cu  Cu110  1  0.00398706  0.00529944  0.00501328  1
  Cu  Cu111  1  0.66623370  0.66270592  0.00711903  1
  Cu  Cu112  1  0.83408107  0.83545345  0.24048689  1
  Cu  Cu113  1  -0.00365604  0.67499008  0.00701411  1
  Cu  Cu114  1  0.66704686  0.33539838  0.00543521  1
  Se  Se115  1  0.08907556  0.09029144  0.05615238  1
  Se  Se116  1  0.07881672  0.07972056  0.55120823  1
  Se  Se117  1  0.07631761  0.41180747  0.06410164  1
  Se  Se118  1  0.07564940  0.40307528  0.55961446  1
  Se  Se119  1  0.08510935  0.75856348  0.05319988  1
  Se  Se120  1  0.07649923  0.74992705  0.55006127  1
  Se  Se121  1  0.42169012  0.08817613  0.04631491  1
  Se  Se122  1  0.39976938  0.06552633  0.54965996  1
  Se  Se123  1  0.42127889  0.41648562  0.04839474  1
  Se  Se124  1  0.42614505  0.41722010  0.55360035  1
  Se  Se125  1  0.41560006  0.74661978  0.05373623  1
  Se  Se126  1  0.41072910  0.75343570  0.56599218  1
  Se  Se127  1  0.72846873  0.06909125  0.05017386  1
  Se  Se128  1  0.74839115  0.07963463  0.55370127  1
  Se  Se129  1  0.75146125  0.41888650  0.05804761  1
  Se  Se130  1  0.74930301  0.40981616  0.55784777  1
  Se  Se131  1  0.74907328  0.75055612  0.05633611  1
  Se  Se132  1  0.74229315  0.74657325  0.55371602  1
  Se  Se133  1  0.25227883  0.24885851  0.05075783  1
  Se  Se134  1  0.24704828  0.25510319  0.54770216  1
  Se  Se135  1  0.25381215  0.58971303  0.06208392  1
  Se  Se136  1  0.25976863  0.58174171  0.56551362  1
  Se  Se137  1  0.25290071  0.92057727  0.05179871  1
  Se  Se138  1  0.23984878  0.90984221  0.54617463  1
  Se  Se139  1  0.58251850  0.24779555  0.05383253  1
  Se  Se140  1  0.58724135  0.24826724  0.55408698  1
  Se  Se141  1  0.58066608  0.57702121  0.05618169  1
  Se  Se142  1  0.59655375  0.59413405  0.54510196  1
  Se  Se143  1  0.55873686  0.89034409  0.05993246  1
  Se  Se144  1  0.59117866  0.93236298  0.55676554  1
  Se  Se145  1  0.91335679  0.24568900  0.05728237  1
  Se  Se146  1  0.91306891  0.24009367  0.55104336  1
  Se  Se147  1  0.91448478  0.58510870  0.05410893  1
  Se  Se148  1  0.91451179  0.58517596  0.55263648  1
  Se  Se149  1  0.91800256  0.92178494  0.05595334  1
  Se  Se150  1  0.91509626  0.92074199  0.55757675  1
  Se  Se151  1  0.08776485  0.23705818  0.44357764  1
  Se  Se152  1  0.08232592  0.25299350  0.95053084  1
  Se  Se153  1  0.07429567  0.57602308  0.43872911  1
  Se  Se154  1  0.07062028  0.59393934  0.94033286  1
  Se  Se155  1  0.07827493  0.90815797  0.44295045  1
  Se  Se156  1  0.08661902  0.92212640  0.94887975  1
  Se  Se157  1  0.42147499  0.25051842  0.44842790  1
  Se  Se158  1  0.42213563  0.24544570  0.94531520  1
  Se  Se159  1  0.41793184  0.59890918  0.45470661  1
  Se  Se160  1  0.41684200  0.57887196  0.94876432  1
  Se  Se161  1  0.40764763  0.92407773  0.43352776  1
  Se  Se162  1  0.42219025  0.92055450  0.94647427  1
  Se  Se163  1  0.75078046  0.24738573  0.44405626  1
  Se  Se164  1  0.75580064  0.25018358  0.95756942  1
  Se  Se165  1  0.74095010  0.59692284  0.43593463  1
  Se  Se166  1  0.75024122  0.58237832  0.95011020  1
  Se  Se167  1  0.73568891  0.93324110  0.43855286  1
  Se  Se168  1  0.76618642  0.90524422  0.95580036  1
  Se  Se169  1  0.24937624  0.07775403  0.45330302  1
  Se  Se170  1  0.25161730  0.08645868  0.94153375  1
  Se  Se171  1  0.26077108  0.41071010  0.43593617  1
  Se  Se172  1  0.25278912  0.41055246  0.94091214  1
  Se  Se173  1  0.25052922  0.73262455  0.45299150  1
  Se  Se174  1  0.25080432  0.75504684  0.94985632  1
  Se  Se175  1  0.56883753  0.10152831  0.44208234  1
  Se  Se176  1  0.61360752  0.06231744  0.95529119  1
  Se  Se177  1  0.58594732  0.41811776  0.44329549  1
  Se  Se178  1  0.58333510  0.41415735  0.94667736  1
  Se  Se179  1  0.58859058  0.75866200  0.43665285  1
  Se  Se180  1  0.58465785  0.74578618  0.95016898  1
  Se  Se181  1  0.91397371  0.08015485  0.44152550  1
  Se  Se182  1  0.91782901  0.08833945  0.95317169  1
  Se  Se183  1  0.92614303  0.39886947  0.43783114  1
  Se  Se184  1  0.91108670  0.41903995  0.95429141  1
  Se  Se185  1  0.91957494  0.74206856  0.43413810  1
  Se  Se186  1  0.91545246  0.75602492  0.94890764  1
  Se  Se187  1  0.24715409  0.23395613  0.31130836  1
  Se  Se188  1  0.25029959  0.24868628  0.80066035  1
  Se  Se189  1  0.24186096  0.56898915  0.31266427  1
  Se  Se190  1  0.24787230  0.57990565  0.81339110  1
  Se  Se191  1  0.24030732  0.90655048  0.31348116  1
  Se  Se192  1  0.24437642  0.91244699  0.80657372  1
  Se  Se193  1  0.59073027  0.25803786  0.30073823  1
  Se  Se194  1  0.59159099  0.24007715  0.80980944  1
  Se  Se195  1  0.58337378  0.59169897  0.30272103  1
  Se  Se196  1  0.57800029  0.57152882  0.80883043  1
  Se  Se197  1  0.58420963  0.92761869  0.29643247  1
  Se  Se198  1  0.57814854  0.91366125  0.81367300  1
  Se  Se199  1  0.91755394  0.24743278  0.30097733  1
  Se  Se200  1  0.91015554  0.24495058  0.81880609  1
  Se  Se201  1  0.91925545  0.58435871  0.29609068  1
  Se  Se202  1  0.89808090  0.57276786  0.81124458  1
  Se  Se203  1  0.91415051  0.91934789  0.29736100  1
  Se  Se204  1  0.91999782  0.92576920  0.81011540  1
  Se  Se205  1  0.07911828  0.07330948  0.30520626  1
  Se  Se206  1  0.08258478  0.08581591  0.80351495  1
  Se  Se207  1  0.08128909  0.40647674  0.30003896  1
  Se  Se208  1  0.09069910  0.42606591  0.80878464  1
  Se  Se209  1  0.08085912  0.74441328  0.30085538  1
  Se  Se210  1  0.09033161  0.76505388  0.80876720  1
  Se  Se211  1  0.42400967  0.10035090  0.30526358  1
  Se  Se212  1  0.43234965  0.09413396  0.80831844  1
  Se  Se213  1  0.42381108  0.42492669  0.30820716  1
  Se  Se214  1  0.41812387  0.40342108  0.80475348  1
  Se  Se215  1  0.42448607  0.76396494  0.30742516  1
  Se  Se216  1  0.41932581  0.75100840  0.81212599  1
  Se  Se217  1  0.74761321  0.08664006  0.30133303  1
  Se  Se218  1  0.75520884  0.08770969  0.81858389  1
  Se  Se219  1  0.75177418  0.42097559  0.30318831  1
  Se  Se220  1  0.74246278  0.40724699  0.80592224  1
  Se  Se221  1  0.74902948  0.75490460  0.29581559  1
  Se  Se222  1  0.75005009  0.76315143  0.81205959  1
  Se  Se223  1  0.24736596  0.08495119  0.19161584  1
  Se  Se224  1  0.24601206  0.08709837  0.68394277  1
  Se  Se225  1  0.24292754  0.42027602  0.18898814  1
  Se  Se226  1  0.25519144  0.41406857  0.70403927  1
  Se  Se227  1  0.24967186  0.75752546  0.19176700  1
  Se  Se228  1  0.23789395  0.76575915  0.69424102  1
  Se  Se229  1  0.58542891  0.08431039  0.19266230  1
  Se  Se230  1  0.57912294  0.09745573  0.69241445  1
  Se  Se231  1  0.58732117  0.41559562  0.19807217  1
  Se  Se232  1  0.58871793  0.40549846  0.69390541  1
  Se  Se233  1  0.58831628  0.75019219  0.19845349  1
  Se  Se234  1  0.57668839  0.74912238  0.69387203  1
  Se  Se235  1  0.91415036  0.08021768  0.19252828  1
  Se  Se236  1  0.91543434  0.08380489  0.70360826  1
  Se  Se237  1  0.91915340  0.41243280  0.19646459  1
  Se  Se238  1  0.91461567  0.42062853  0.69187483  1
  Se  Se239  1  0.91993283  0.74885578  0.19301453  1
  Se  Se240  1  0.91266937  0.75744427  0.69611282  1
  Se  Se241  1  0.08168621  0.24578017  0.19951174  1
  Se  Se242  1  0.08690977  0.24243096  0.68663493  1
  Se  Se243  1  0.08316252  0.58500113  0.19706764  1
  Se  Se244  1  0.08908202  0.58615362  0.69223646  1
  Se  Se245  1  0.08098145  0.91989317  0.19643181  1
  Se  Se246  1  0.07710654  0.92783317  0.69659282  1
  Se  Se247  1  0.42164004  0.24874411  0.18606947  1
  Se  Se248  1  0.40486310  0.25107064  0.68880988  1
  Se  Se249  1  0.42235718  0.58249829  0.18995196  1
  Se  Se250  1  0.42986084  0.57429393  0.69516937  1
  Se  Se251  1  0.42257813  0.92316054  0.18801834  1
  Se  Se252  1  0.42748616  0.91507212  0.69421417  1
  Se  Se253  1  0.74813989  0.25135118  0.19474051  1
  Se  Se254  1  0.75018054  0.25151904  0.70029167  1
  Se  Se255  1  0.74919404  0.58668188  0.19596515  1
  Se  Se256  1  0.75353123  0.57002046  0.68381224  1
  Se  Se257  1  0.74846496  0.92154997  0.19247865  1
  Se  Se258  1  0.75458314  0.90919999  0.69289330  1
