# generated using pymatgen
data_In86Cu29Se144
_symmetry_space_group_name_H-M   'P 1'
_cell_length_a   17.57502393
_cell_length_b   17.57296733
_cell_length_c   23.43702980
_cell_angle_alpha   89.97070029
_cell_angle_beta   89.97552535
_cell_angle_gamma   89.97691324
_symmetry_Int_Tables_number   1
_chemical_formula_structural   In86Cu29Se144
_chemical_formula_sum   'In86 Cu29 Se144'
_cell_volume   7238.41480772
_cell_formula_units_Z   1
loop_
 _symmetry_equiv_pos_site_id
 _symmetry_equiv_pos_as_xyz
  1  'x, y, z'
loop_
 _atom_site_type_symbol
 _atom_site_label
 _atom_site_symmetry_multiplicity
 _atom_site_fract_x
 _atom_site_fract_y
 _atom_site_fract_z
 _atom_site_occupancy
  In  In0  1  0.02280400  0.14961289  0.14154549  1
  In  In1  1  -0.00750447  0.17390292  0.62040016  1
  In  In2  1  0.00678667  0.49580317  0.13114011  1
  In  In3  1  0.01211715  0.50506824  0.62336010  1
  In  In4  1  -0.00361721  0.83937807  0.13616493  1
  In  In5  1  -0.00715166  0.81902330  0.60800708  1
  In  In6  1  0.32876355  0.16071577  0.12278232  1
  In  In7  1  0.34079645  0.16302614  0.62637490  1
  In  In8  1  0.32984046  0.51794821  0.12186612  1
  In  In9  1  0.33587584  0.49889289  0.63516404  1
  In  In10  1  0.35247848  0.83116866  0.14095971  1
  In  In11  1  0.32433618  0.82286584  0.61516144  1
  In  In12  1  0.65983827  0.16928837  0.12306905  1
  In  In13  1  0.66361495  0.16162218  0.62713570  1
  In  In14  1  0.67412199  0.50460562  0.12482963  1
  In  In15  1  0.65762292  0.50666002  0.63241100  1
  In  In16  1  0.65960297  0.83695842  0.13402198  1
  In  In17  1  0.66396443  0.83652445  0.62213607  1
  In  In18  1  0.15467828  -0.01380745  0.36652596  1
  In  In19  1  0.17586603  0.00270828  0.88128582  1
  In  In20  1  0.16150895  0.34138170  0.37531981  1
  In  In21  1  0.18316863  0.32227031  0.88272205  1
  In  In22  1  0.17113109  0.67099749  0.37140009  1
  In  In23  1  0.15988893  0.66061524  0.87154317  1
  In  In24  1  0.50278242  -0.00618944  0.37156285  1
  In  In25  1  0.50422617  -0.01239833  0.88263644  1
  In  In26  1  0.49370160  0.31172564  0.38037570  1
  In  In27  1  0.48854122  0.32329674  0.86697336  1
  In  In28  1  0.52388709  0.70245068  0.34477470  1
  In  In29  1  0.50905240  0.68065877  0.86944632  1
  In  In30  1  0.82795332  -0.00267392  0.37369428  1
  In  In31  1  0.82604106  0.00994818  0.87666917  1
  In  In32  1  0.82987028  0.31528363  0.37382208  1
  In  In33  1  0.83282193  0.34309670  0.86880159  1
  In  In34  1  0.85116640  0.68800863  0.37093976  1
  In  In35  1  0.82991486  0.66798944  0.86752833  1
  In  In36  1  -0.02890806  0.14446925  0.35035590  1
  In  In37  1  0.00647813  0.17263679  0.88009733  1
  In  In38  1  0.00465158  0.50558310  0.36845968  1
  In  In39  1  -0.00190689  0.51255849  0.87491108  1
  In  In40  1  -0.00191041  0.82812106  0.38075997  1
  In  In41  1  0.01013960  0.82783838  0.87505771  1
  In  In42  1  0.35236503  0.15971449  0.38382034  1
  In  In43  1  0.32518498  0.17664481  0.88090165  1
  In  In44  1  0.32602276  0.50606757  0.37744877  1
  In  In45  1  0.32750213  0.49453729  0.87190496  1
  In  In46  1  0.33548422  0.83045574  0.37185241  1
  In  In47  1  0.34813455  0.84070375  0.87408828  1
  In  In48  1  0.67890040  0.14591010  0.38235680  1
  In  In49  1  0.65507205  0.15474057  0.86610236  1
  In  In50  1  0.65535200  0.51024956  0.37784033  1
  In  In51  1  0.67099047  0.50584740  0.86599199  1
  In  In52  1  0.66483949  0.84451160  0.37173582  1
  In  In53  1  0.65138460  0.82299108  0.86605801  1
  In  In54  1  0.16523668  0.00766068  0.13318520  1
  In  In55  1  0.17820211  -0.01025479  0.62326161  1
  In  In56  1  0.16133913  0.32532985  0.11736298  1
  In  In57  1  0.16582671  0.33800431  0.62951645  1
  In  In58  1  0.17382760  0.66463208  0.12640338  1
  In  In59  1  0.16427595  0.66885823  0.63108233  1
  In  In60  1  0.50024839  -0.00288196  0.13230571  1
  In  In61  1  0.50564384  0.00964257  0.61701510  1
  In  In62  1  0.50932225  0.31842821  0.11860109  1
  In  In63  1  0.50292533  0.32773749  0.63167240  1
  In  In64  1  0.49721645  0.67589757  0.13307976  1
  In  In65  1  0.49329785  0.67312018  0.62740626  1
  In  In66  1  0.84185820  0.00226656  0.13828951  1
  In  In67  1  0.82488828  -0.01198452  0.61561148  1
  In  In68  1  0.83764585  0.34258539  0.12727163  1
  In  In69  1  0.82981994  0.31684184  0.61970297  1
  In  In70  1  0.82790350  0.67571712  0.13618104  1
  In  In71  1  0.82706078  0.67506820  0.62535164  1
  In  In72  1  0.83053864  0.83902061  0.01366042  1
  In  In73  1  0.67184387  0.33500002  0.24622341  1
  In  In74  1  0.16969940  0.50158193  0.49602817  1
  In  In75  1  0.16071136  0.16514394  0.49899860  1
  In  In76  1  0.83134373  0.50494712  -0.00645546  1
  In  In77  1  0.17278835  0.83922301  0.00540817  1
  In  In78  1  0.83809427  0.16844375  0.00427995  1
  In  In79  1  -0.00138195  0.33741264  0.74721280  1
  In  In80  1  0.49550843  0.50280976  0.50498909  1
  In  In81  1  0.33213576  0.33651505  0.25368412  1
  In  In82  1  0.33597436  0.00089723  0.74930968  1
  In  In83  1  0.49689934  0.50082323  -0.00140388  1
  In  In84  1  0.83012248  0.50302380  0.50708929  1
  In  In85  1  0.00063132  -0.00396925  0.75423927  1
  Cu  Cu86  1  0.83054852  0.50399083  0.74637275  1
  Cu  Cu87  1  0.49602811  0.50543384  0.24985585  1
  Cu  Cu88  1  0.49990596  0.16598136  0.74978013  1
  Cu  Cu89  1  0.33478668  0.33342385  -0.00417910  1
  Cu  Cu90  1  0.49823478  0.50294933  0.75419230  1
  Cu  Cu91  1  0.33384039  0.67187094  0.00192022  1
  Cu  Cu92  1  0.83520607  0.83298749  0.25664806  1
  Cu  Cu93  1  0.16683299  0.83551066  0.25209493  1
  Cu  Cu94  1  0.16507621  0.50437263  0.24842353  1
  Cu  Cu95  1  0.66173775  0.32649611  -0.00980624  1
  Cu  Cu96  1  0.82938558  0.83480362  0.74290190  1
  Cu  Cu97  1  -0.00347469  0.00045716  0.49027571  1
  Cu  Cu98  1  0.33347820  -0.00668221  0.49631457  1
  Cu  Cu99  1  0.50675917  0.15821595  0.25171154  1
  Cu  Cu100  1  0.50012943  0.83506956  0.74555714  1
  Cu  Cu101  1  0.66182228  -0.00725820  0.00232816  1
  Cu  Cu102  1  0.34094913  0.00378358  0.00564851  1
  Cu  Cu103  1  0.16450157  0.82214489  0.74545116  1
  Cu  Cu104  1  0.01338785  0.33319954  0.00554675  1
  Cu  Cu105  1  0.83423027  0.50518579  0.25232157  1
  Cu  Cu106  1  -0.00926049  0.32564562  0.49107581  1
  Cu  Cu107  1  0.82373087  0.16192348  0.74545857  1
  Cu  Cu108  1  0.66232063  0.00005315  0.49883377  1
  Cu  Cu109  1  0.16803600  0.50085940  0.75312549  1
  Cu  Cu110  1  -0.00274329  0.66633281  0.00202851  1
  Cu  Cu111  1  0.65745558  0.32057967  0.50300912  1
  Cu  Cu112  1  0.17307606  0.16929493  0.24883917  1
  Cu  Cu113  1  0.33943589  0.66958388  0.49559044  1
  Cu  Cu114  1  0.67103374  0.68200446  0.49383731  1
  Se  Se115  1  0.09204807  0.08729535  0.05802651  1
  Se  Se116  1  0.07373990  0.07097960  0.56092379  1
  Se  Se117  1  0.08946014  0.42634781  0.05509820  1
  Se  Se118  1  0.07330631  0.40344877  0.55146584  1
  Se  Se119  1  0.07445213  0.75045933  0.06115431  1
  Se  Se120  1  0.10281934  0.75335912  0.55472733  1
  Se  Se121  1  0.42518415  0.08507429  0.06038386  1
  Se  Se122  1  0.41007688  0.08149363  0.55050188  1
  Se  Se123  1  0.41028981  0.40945967  0.06298830  1
  Se  Se124  1  0.40889722  0.40918327  0.56241192  1
  Se  Se125  1  0.41478330  0.75105452  0.05915852  1
  Se  Se126  1  0.42285794  0.75248067  0.54994367  1
  Se  Se127  1  0.74745168  0.07201672  0.05982922  1
  Se  Se128  1  0.74587792  0.08317816  0.55424337  1
  Se  Se129  1  0.74068657  0.40637861  0.05116715  1
  Se  Se130  1  0.73384764  0.40948773  0.56048315  1
  Se  Se131  1  0.73788932  0.74203351  0.06133028  1
  Se  Se132  1  0.75324563  0.75911356  0.55233363  1
  Se  Se133  1  0.25478907  0.24964158  0.05344312  1
  Se  Se134  1  0.24959906  0.25278823  0.56111759  1
  Se  Se135  1  0.24521952  0.58697399  0.04744591  1
  Se  Se136  1  0.26219785  0.58661757  0.55797869  1
  Se  Se137  1  0.26355641  0.92226589  0.06860185  1
  Se  Se138  1  0.24669214  0.91083365  0.54632160  1
  Se  Se139  1  0.58359265  0.24014040  0.04365734  1
  Se  Se140  1  0.57464997  0.24152841  0.55881756  1
  Se  Se141  1  0.58462104  0.58844141  0.06033381  1
  Se  Se142  1  0.59387318  0.59739380  0.55452250  1
  Se  Se143  1  0.58018694  0.91344458  0.05974189  1
  Se  Se144  1  0.57899497  0.91535240  0.55153384  1
  Se  Se145  1  0.92820608  0.25691375  0.06411583  1
  Se  Se146  1  0.90918124  0.24217433  0.54488088  1
  Se  Se147  1  0.91475044  0.58928948  0.06279660  1
  Se  Se148  1  0.92662386  0.59283517  0.55892724  1
  Se  Se149  1  0.92935653  0.93160281  0.06054400  1
  Se  Se150  1  0.91622248  0.91639480  0.54747801  1
  Se  Se151  1  0.07205026  0.24672033  0.43196590  1
  Se  Se152  1  0.09113628  0.24700158  0.95034648  1
  Se  Se153  1  0.07616025  0.59278843  0.44358452  1
  Se  Se154  1  0.08164520  0.58551988  0.94823369  1
  Se  Se155  1  0.08492885  0.91423124  0.44693117  1
  Se  Se156  1  0.07683463  0.92434803  0.94520159  1
  Se  Se157  1  0.41272760  0.24933101  0.45733799  1
  Se  Se158  1  0.42107144  0.24821044  0.94778131  1
  Se  Se159  1  0.42092500  0.59215381  0.43545915  1
  Se  Se160  1  0.41108930  0.59286129  0.93729902  1
  Se  Se161  1  0.41801573  0.91276671  0.44175739  1
  Se  Se162  1  0.41801389  0.91312128  0.95411473  1
  Se  Se163  1  0.74652336  0.24549541  0.44843925  1
  Se  Se164  1  0.75044599  0.25014062  0.93414499  1
  Se  Se165  1  0.74902538  0.59305553  0.43961426  1
  Se  Se166  1  0.73692172  0.59812749  0.94249220  1
  Se  Se167  1  0.74803466  0.91729363  0.44656706  1
  Se  Se168  1  0.74400939  0.91676979  0.94098093  1
  Se  Se169  1  0.24834949  0.07340194  0.43770022  1
  Se  Se170  1  0.25519773  0.08321725  0.95106856  1
  Se  Se171  1  0.26264145  0.40331311  0.44648697  1
  Se  Se172  1  0.24983541  0.42132361  0.94910844  1
  Se  Se173  1  0.25090783  0.74965301  0.44396223  1
  Se  Se174  1  0.25423196  0.74973196  0.93799912  1
  Se  Se175  1  0.57594112  0.08126355  0.44487373  1
  Se  Se176  1  0.58536264  0.08024346  0.94617350  1
  Se  Se177  1  0.58507374  0.40744303  0.44310152  1
  Se  Se178  1  0.58620100  0.41418415  0.93388159  1
  Se  Se179  1  0.58047868  0.75546886  0.43869259  1
  Se  Se180  1  0.57517366  0.76043788  0.94694627  1
  Se  Se181  1  0.91200079  0.08575944  0.44115608  1
  Se  Se182  1  0.92668592  0.07542228  0.94424690  1
  Se  Se183  1  0.91559663  0.41797344  0.43771858  1
  Se  Se184  1  0.92830213  0.40715436  0.94370959  1
  Se  Se185  1  0.91620745  0.75257065  0.45487368  1
  Se  Se186  1  0.91635210  0.74762232  0.94402092  1
  Se  Se187  1  0.24994698  0.24278652  0.31624514  1
  Se  Se188  1  0.25245663  0.25048602  0.80304805  1
  Se  Se189  1  0.25074136  0.58311278  0.30262213  1
  Se  Se190  1  0.25194792  0.58635325  0.80453266  1
  Se  Se191  1  0.25426910  0.91758171  0.30283411  1
  Se  Se192  1  0.24036228  0.90691688  0.80645608  1
  Se  Se193  1  0.58640291  0.24283169  0.30918163  1
  Se  Se194  1  0.58502506  0.25207418  0.80102809  1
  Se  Se195  1  0.58852820  0.58434421  0.29751601  1
  Se  Se196  1  0.58398373  0.58897361  0.80193676  1
  Se  Se197  1  0.57000476  0.90529386  0.29756097  1
  Se  Se198  1  0.57979975  0.92062650  0.80117014  1
  Se  Se199  1  0.92651220  0.26756447  0.30086405  1
  Se  Se200  1  0.90867466  0.23888791  0.80568609  1
  Se  Se201  1  0.91853109  0.58946681  0.30412331  1
  Se  Se202  1  0.91509203  0.58429876  0.80124848  1
  Se  Se203  1  0.91970180  0.91440165  0.31038655  1
  Se  Se204  1  0.90591522  0.90656610  0.81272806  1
  Se  Se205  1  0.08781352  0.08461639  0.29975237  1
  Se  Se206  1  0.09241243  0.08892202  0.80965863  1
  Se  Se207  1  0.08443332  0.41835215  0.30101284  1
  Se  Se208  1  0.08729668  0.41939028  0.81363901  1
  Se  Se209  1  0.08303799  0.75273808  0.30638206  1
  Se  Se210  1  0.07803361  0.74385496  0.80097784  1
  Se  Se211  1  0.41754958  0.08169629  0.30467261  1
  Se  Se212  1  0.42190352  0.08682219  0.81465341  1
  Se  Se213  1  0.42813896  0.42141794  0.31440013  1
  Se  Se214  1  0.41300570  0.41647623  0.80254533  1
  Se  Se215  1  0.39283168  0.72863283  0.30273241  1
  Se  Se216  1  0.41597259  0.75391435  0.80068182  1
  Se  Se217  1  0.75189914  0.08250080  0.30195029  1
  Se  Se218  1  0.74472971  0.07547949  0.79943232  1
  Se  Se219  1  0.75334279  0.42572872  0.31411340  1
  Se  Se220  1  0.74886298  0.41722839  0.79794396  1
  Se  Se221  1  0.74773326  0.75130623  0.30770260  1
  Se  Se222  1  0.74776788  0.75174965  0.80034303  1
  Se  Se223  1  0.25844157  0.08307240  0.20052312  1
  Se  Se224  1  0.23959516  0.08937829  0.69324703  1
  Se  Se225  1  0.24640093  0.42337343  0.18812367  1
  Se  Se226  1  0.24839133  0.41513692  0.69983785  1
  Se  Se227  1  0.24810480  0.75382865  0.19490685  1
  Se  Se228  1  0.25809254  0.74568527  0.69619214  1
  Se  Se229  1  0.59249861  0.08165440  0.19565347  1
  Se  Se230  1  0.58027086  0.07893542  0.69721976  1
  Se  Se231  1  0.57251379  0.42258676  0.18824819  1
  Se  Se232  1  0.57963160  0.41852033  0.69857829  1
  Se  Se233  1  0.58805384  0.74477762  0.20255428  1
  Se  Se234  1  0.58471391  0.75086321  0.69287288  1
  Se  Se235  1  0.91700803  0.09226303  0.20364066  1
  Se  Se236  1  0.91118566  0.08370104  0.68946149  1
  Se  Se237  1  0.91635198  0.42065189  0.19949007  1
  Se  Se238  1  0.90740715  0.42356410  0.68288775  1
  Se  Se239  1  0.91967562  0.74951924  0.20244604  1
  Se  Se240  1  0.91812369  0.75486016  0.69155407  1
  Se  Se241  1  0.09000118  0.25767892  0.19974276  1
  Se  Se242  1  0.08670773  0.23909439  0.69349374  1
  Se  Se243  1  0.08303952  0.59003297  0.19513914  1
  Se  Se244  1  0.08329655  0.58262210  0.69970740  1
  Se  Se245  1  0.08349799  0.92170717  0.20041038  1
  Se  Se246  1  0.08508847  0.90718483  0.68847695  1
  Se  Se247  1  0.42588846  0.24535000  0.19540200  1
  Se  Se248  1  0.41307534  0.24805406  0.69903627  1
  Se  Se249  1  0.41181949  0.58660505  0.19678671  1
  Se  Se250  1  0.41750671  0.58730689  0.69845875  1
  Se  Se251  1  0.43553488  0.91169845  0.21013371  1
  Se  Se252  1  0.41802749  0.91194531  0.68368997  1
  Se  Se253  1  0.76077166  0.24199015  0.18950807  1
  Se  Se254  1  0.74466516  0.25167875  0.69501586  1
  Se  Se255  1  0.74682580  0.58382943  0.19953299  1
  Se  Se256  1  0.74774353  0.58930012  0.69440182  1
  Se  Se257  1  0.75518298  0.91339824  0.19769163  1
  Se  Se258  1  0.74537784  0.92006191  0.69375408  1
