# generated using pymatgen
data_In86Cu29Se144
_symmetry_space_group_name_H-M   'P 1'
_cell_length_a   17.57898946
_cell_length_b   17.58059795
_cell_length_c   23.43539221
_cell_angle_alpha   89.96968305
_cell_angle_beta   90.02759925
_cell_angle_gamma   90.01067643
_symmetry_Int_Tables_number   1
_chemical_formula_structural   In86Cu29Se144
_chemical_formula_sum   'In86 Cu29 Se144'
_cell_volume   7242.68596998
_cell_formula_units_Z   1
loop_
 _symmetry_equiv_pos_site_id
 _symmetry_equiv_pos_as_xyz
  1  'x, y, z'
loop_
 _atom_site_type_symbol
 _atom_site_label
 _atom_site_symmetry_multiplicity
 _atom_site_fract_x
 _atom_site_fract_y
 _atom_site_fract_z
 _atom_site_occupancy
  In  In0  1  -0.00047372  0.19087311  0.12782019  1
  In  In1  1  0.00671759  0.15701923  0.62424353  1
  In  In2  1  0.00124265  0.51124980  0.12313281  1
  In  In3  1  0.01095307  0.51338644  0.61989119  1
  In  In4  1  -0.01747167  0.81536668  0.13200100  1
  In  In5  1  -0.00249677  0.82336114  0.61614007  1
  In  In6  1  0.33403892  0.16265449  0.13433721  1
  In  In7  1  0.33671309  0.16067261  0.61063990  1
  In  In8  1  0.34949356  0.50972370  0.11227212  1
  In  In9  1  0.34709120  0.50398338  0.61447804  1
  In  In10  1  0.34593693  0.82041325  0.13705733  1
  In  In11  1  0.32611125  0.83807876  0.62757084  1
  In  In12  1  0.66519591  0.15631448  0.13567402  1
  In  In13  1  0.66297083  0.18705265  0.62034171  1
  In  In14  1  0.66399787  0.50242925  0.12660228  1
  In  In15  1  0.66384970  0.48383643  0.60685035  1
  In  In16  1  0.66090688  0.84244089  0.13838052  1
  In  In17  1  0.67113781  0.81612071  0.61658051  1
  In  In18  1  0.18805834  -0.01112553  0.39298404  1
  In  In19  1  0.17235250  -0.00783840  0.87120808  1
  In  In20  1  0.18299551  0.32747067  0.39748007  1
  In  In21  1  0.17724444  0.34641105  0.87418524  1
  In  In22  1  0.17062650  0.66361102  0.37563913  1
  In  In23  1  0.15889485  0.66287577  0.86625243  1
  In  In24  1  0.49913871  0.00433451  0.36924757  1
  In  In25  1  0.48942721  0.00227854  0.87165645  1
  In  In26  1  0.51917796  0.32638714  0.39882565  1
  In  In27  1  0.50593773  0.32959379  0.87347861  1
  In  In28  1  0.49570199  0.65718111  0.36940260  1
  In  In29  1  0.49509155  0.67436439  0.88543202  1
  In  In30  1  0.81682919  0.00071831  0.37171976  1
  In  In31  1  0.84165873  0.00318775  0.88195801  1
  In  In32  1  0.82375521  0.34673706  0.37896296  1
  In  In33  1  0.81903430  0.34785376  0.88041821  1
  In  In34  1  0.83492532  0.66582331  0.36463626  1
  In  In35  1  0.83183435  0.65053538  0.87472974  1
  In  In36  1  0.00712661  0.17127824  0.37337119  1
  In  In37  1  -0.00502813  0.15851041  0.87800273  1
  In  In38  1  0.00021492  0.50639602  0.37906797  1
  In  In39  1  -0.00822676  0.50912969  0.87699935  1
  In  In40  1  0.00864791  0.82387225  0.37672452  1
  In  In41  1  0.01308187  0.83595996  0.87151157  1
  In  In42  1  0.35752458  0.15778927  0.40341141  1
  In  In43  1  0.34340021  0.15956363  0.86890178  1
  In  In44  1  0.33171540  0.50187493  0.38545844  1
  In  In45  1  0.31765836  0.50402618  0.88743894  1
  In  In46  1  0.33121443  0.82712689  0.37193737  1
  In  In47  1  0.33690121  0.83730407  0.87017411  1
  In  In48  1  0.64901820  0.16103473  0.35689800  1
  In  In49  1  0.65792202  0.18475852  0.87569273  1
  In  In50  1  0.66541028  0.50045418  0.37082191  1
  In  In51  1  0.67160534  0.50225083  0.88288835  1
  In  In52  1  0.67845778  0.83819075  0.36369269  1
  In  In53  1  0.66311872  0.80894641  0.88472009  1
  In  In54  1  0.17565027  0.00495337  0.13240666  1
  In  In55  1  0.18787832  0.00612563  0.60670307  1
  In  In56  1  0.16225538  0.34075732  0.12717135  1
  In  In57  1  0.19012893  0.34111816  0.60215415  1
  In  In58  1  0.17310448  0.65814037  0.13713420  1
  In  In59  1  0.16928076  0.67057745  0.62632739  1
  In  In60  1  0.51106466  -0.00921451  0.13894219  1
  In  In61  1  0.47574998  -0.00376653  0.61604927  1
  In  In62  1  0.49599015  0.35217423  0.12582354  1
  In  In63  1  0.51167380  0.34368783  0.60265651  1
  In  In64  1  0.49664969  0.66445790  0.12629516  1
  In  In65  1  0.50419727  0.65245409  0.62392935  1
  In  In66  1  0.81322827  -0.00595582  0.13036965  1
  In  In67  1  0.84357000  -0.00296773  0.61961138  1
  In  In68  1  0.82055383  0.32848387  0.11904532  1
  In  In69  1  0.81286994  0.33723265  0.62295717  1
  In  In70  1  0.84228285  0.66602993  0.13715380  1
  In  In71  1  0.84063441  0.66593208  0.61708721  1
  In  In72  1  0.00805515  -0.00564625  0.73745025  1
  In  In73  1  0.50500923  0.83185942  0.49053966  1
  In  In74  1  0.34309236  0.33614480  0.25857048  1
  In  In75  1  0.66704386  0.65688277  0.75191139  1
  In  In76  1  0.82530426  0.82825211  0.00499428  1
  In  In77  1  0.49852169  0.17176495  0.00147432  1
  In  In78  1  0.33786343  0.33179693  0.74419499  1
  In  In79  1  0.16570992  0.83567193  -0.00105340  1
  In  In80  1  0.66137227  0.00032971  0.74881508  1
  In  In81  1  -0.00034595  -0.00309365  0.24910483  1
  In  In82  1  0.83505478  0.16387904  0.49822891  1
  In  In83  1  -0.00062055  0.33128212  0.74123044  1
  In  In84  1  0.16491632  0.18009222  -0.00235926  1
  In  In85  1  0.00249288  0.34329980  0.26036274  1
  Cu  Cu86  1  0.83900464  0.82884955  0.74095558  1
  Cu  Cu87  1  0.49859830  0.16517087  0.74291077  1
  Cu  Cu88  1  0.17472007  0.83120662  0.74727288  1
  Cu  Cu89  1  0.49511808  0.83185742  0.75323028  1
  Cu  Cu90  1  -0.00103970  0.66576446  -0.00068918  1
  Cu  Cu91  1  0.17569377  0.49969328  0.25586319  1
  Cu  Cu92  1  -0.00015141  0.66197614  0.49653126  1
  Cu  Cu93  1  0.67917267  0.65860454  0.49265016  1
  Cu  Cu94  1  0.49892210  0.50408644  0.24975038  1
  Cu  Cu95  1  0.82876194  0.16680441  0.24743217  1
  Cu  Cu96  1  0.00078450  -0.01268582  0.49831130  1
  Cu  Cu97  1  0.49487509  0.83012594  0.25326389  1
  Cu  Cu98  1  0.16806405  0.50706159  0.74822234  1
  Cu  Cu99  1  -0.00986146  0.01568249  0.00954401  1
  Cu  Cu100  1  0.33086424  0.66782161  0.00759926  1
  Cu  Cu101  1  0.83072812  0.49628500  0.25010214  1
  Cu  Cu102  1  0.33294101  0.67261355  0.49930321  1
  Cu  Cu103  1  0.82884074  0.49952021  0.75005732  1
  Cu  Cu104  1  0.16811158  0.83374723  0.25782744  1
  Cu  Cu105  1  0.66954057  0.33623894  0.00095156  1
  Cu  Cu106  1  0.17292157  0.16195181  0.73637061  1
  Cu  Cu107  1  0.66421607  -0.00223037  0.49252635  1
  Cu  Cu108  1  0.17934140  0.15961988  0.26025083  1
  Cu  Cu109  1  0.82340198  0.17778400  0.75556262  1
  Cu  Cu110  1  0.34049403  -0.00540004  0.00095651  1
  Cu  Cu111  1  -0.00308040  0.33550332  0.50019132  1
  Cu  Cu112  1  0.49884290  0.49375860  0.74493429  1
  Cu  Cu113  1  -0.00826699  0.34664110  0.00206044  1
  Cu  Cu114  1  0.66497133  0.00219451  0.01004485  1
  Se  Se115  1  0.08052870  0.08749497  0.06521726  1
  Se  Se116  1  0.07881726  0.07583769  0.55126306  1
  Se  Se117  1  0.08055737  0.42017770  0.05746103  1
  Se  Se118  1  0.08162840  0.41687983  0.55388252  1
  Se  Se119  1  0.07827428  0.74526779  0.06151538  1
  Se  Se120  1  0.08543212  0.74386673  0.55070623  1
  Se  Se121  1  0.41564838  0.07590384  0.06285151  1
  Se  Se122  1  0.42783019  0.08972738  0.54080133  1
  Se  Se123  1  0.41165089  0.40859153  0.04771176  1
  Se  Se124  1  0.39173673  0.39264184  0.54941744  1
  Se  Se125  1  0.41651311  0.75294152  0.05548732  1
  Se  Se126  1  0.42003371  0.74698543  0.56001844  1
  Se  Se127  1  0.74936140  0.08736544  0.05869847  1
  Se  Se128  1  0.74149517  0.07541000  0.56014730  1
  Se  Se129  1  0.74933547  0.42421893  0.05360847  1
  Se  Se130  1  0.75283789  0.40818728  0.53956181  1
  Se  Se131  1  0.74240491  0.74591383  0.07219716  1
  Se  Se132  1  0.75801036  0.74695274  0.54569322  1
  Se  Se133  1  0.25736022  0.25529612  0.06419920  1
  Se  Se134  1  0.23069362  0.22200544  0.54748869  1
  Se  Se135  1  0.24330829  0.58469317  0.05698921  1
  Se  Se136  1  0.25371340  0.58891290  0.55703957  1
  Se  Se137  1  0.25735696  0.91870490  0.06287017  1
  Se  Se138  1  0.25890790  0.90785190  0.54532807  1
  Se  Se139  1  0.58975205  0.25637366  0.06294583  1
  Se  Se140  1  0.58548476  0.24755255  0.54027614  1
  Se  Se141  1  0.55535430  0.55770615  0.06314950  1
  Se  Se142  1  0.58888719  0.58622987  0.54887738  1
  Se  Se143  1  0.58234107  0.91616451  0.06006707  1
  Se  Se144  1  0.59023593  0.92045256  0.56032046  1
  Se  Se145  1  0.91515221  0.25441173  0.05190511  1
  Se  Se146  1  0.92134207  0.25388983  0.56352663  1
  Se  Se147  1  0.91243490  0.58964672  0.05572969  1
  Se  Se148  1  0.91620696  0.57651526  0.54877920  1
  Se  Se149  1  0.91882796  0.92162859  0.06384282  1
  Se  Se150  1  0.91218228  0.90862087  0.54941781  1
  Se  Se151  1  0.07768627  0.24825712  0.44989814  1
  Se  Se152  1  0.06943218  0.26621983  0.93686403  1
  Se  Se153  1  0.08968817  0.58128588  0.44717222  1
  Se  Se154  1  0.08327226  0.58663069  0.94322808  1
  Se  Se155  1  0.08820165  0.90734474  0.44735188  1
  Se  Se156  1  0.07109499  0.93646782  0.94709892  1
  Se  Se157  1  0.39312605  0.28718106  0.44883974  1
  Se  Se158  1  0.40412486  0.25658140  0.94054210  1
  Se  Se159  1  0.41990140  0.58865174  0.44988807  1
  Se  Se160  1  0.41057579  0.58539023  0.94896104  1
  Se  Se161  1  0.40993371  0.92275404  0.43968715  1
  Se  Se162  1  0.41972639  0.91422527  0.94375218  1
  Se  Se163  1  0.74530882  0.24041395  0.43173680  1
  Se  Se164  1  0.74964015  0.25005052  0.94669654  1
  Se  Se165  1  0.76013499  0.57835352  0.43618764  1
  Se  Se166  1  0.73096057  0.60804907  0.94575562  1
  Se  Se167  1  0.74959605  0.91244891  0.44519136  1
  Se  Se168  1  0.73894084  0.92311142  0.94165539  1
  Se  Se169  1  0.23629292  0.10390184  0.45194978  1
  Se  Se170  1  0.25614935  0.07702322  0.94379031  1
  Se  Se171  1  0.23718247  0.43727388  0.45620431  1
  Se  Se172  1  0.24514796  0.41277645  0.95543309  1
  Se  Se173  1  0.24893425  0.75212609  0.44540399  1
  Se  Se174  1  0.25328288  0.74426984  0.93982107  1
  Se  Se175  1  0.58560318  0.08289922  0.43943429  1
  Se  Se176  1  0.58878738  0.07746925  0.94071687  1
  Se  Se177  1  0.58177776  0.43833161  0.45062878  1
  Se  Se178  1  0.58385841  0.41282239  0.94371976  1
  Se  Se179  1  0.59586176  0.74083316  0.43397621  1
  Se  Se180  1  0.57995553  0.74580335  0.95901242  1
  Se  Se181  1  0.92484304  0.07249683  0.43703477  1
  Se  Se182  1  0.90769525  0.09434964  0.95373432  1
  Se  Se183  1  0.91778949  0.41723124  0.44409375  1
  Se  Se184  1  0.90893977  0.42684445  0.94530795  1
  Se  Se185  1  0.91772868  0.74248319  0.43987610  1
  Se  Se186  1  0.92351167  0.75128057  0.93841008  1
  Se  Se187  1  0.25258207  0.24683650  0.31811849  1
  Se  Se188  1  0.24316201  0.24160028  0.80518691  1
  Se  Se189  1  0.25920273  0.58257643  0.30839131  1
  Se  Se190  1  0.25441671  0.58209407  0.80569020  1
  Se  Se191  1  0.25109903  0.92017026  0.30684796  1
  Se  Se192  1  0.25457414  0.91939304  0.79927876  1
  Se  Se193  1  0.57332498  0.26680542  0.30755718  1
  Se  Se194  1  0.57835850  0.25047337  0.79686184  1
  Se  Se195  1  0.58730825  0.58710159  0.29961307  1
  Se  Se196  1  0.57069005  0.57495140  0.81078251  1
  Se  Se197  1  0.57910315  0.91497191  0.30446105  1
  Se  Se198  1  0.58211623  0.90386792  0.81379039  1
  Se  Se199  1  0.90670457  0.24526750  0.30993112  1
  Se  Se200  1  0.91204680  0.25179706  0.81224309  1
  Se  Se201  1  0.92112774  0.57507487  0.30098552  1
  Se  Se202  1  0.91579486  0.58338649  0.79885477  1
  Se  Se203  1  0.91384016  0.91328881  0.31406352  1
  Se  Se204  1  0.91171653  0.91417417  0.80417336  1
  Se  Se205  1  0.09301292  0.07807473  0.31336924  1
  Se  Se206  1  0.09074995  0.09018796  0.80319204  1
  Se  Se207  1  0.10326175  0.41781198  0.31965125  1
  Se  Se208  1  0.08665376  0.42299993  0.80432428  1
  Se  Se209  1  0.08628072  0.74372732  0.30383192  1
  Se  Se210  1  0.08292771  0.75369431  0.79786643  1
  Se  Se211  1  0.41489312  0.10056938  0.31327298  1
  Se  Se212  1  0.41629222  0.07975742  0.79416320  1
  Se  Se213  1  0.43032245  0.42595183  0.31898243  1
  Se  Se214  1  0.41732430  0.42199789  0.81052118  1
  Se  Se215  1  0.41205403  0.74382680  0.30366042  1
  Se  Se216  1  0.41700993  0.74449164  0.80691129  1
  Se  Se217  1  0.74486854  0.08000974  0.29665977  1
  Se  Se218  1  0.75184916  0.08730213  0.81306514  1
  Se  Se219  1  0.74539772  0.41258694  0.30010041  1
  Se  Se220  1  0.74176245  0.42247329  0.80417203  1
  Se  Se221  1  0.74392208  0.74171452  0.29766609  1
  Se  Se222  1  0.75876669  0.75536572  0.80588402  1
  Se  Se223  1  0.25963191  0.07660657  0.20549433  1
  Se  Se224  1  0.25922528  0.08016863  0.68659223  1
  Se  Se225  1  0.25322490  0.42214929  0.19265163  1
  Se  Se226  1  0.24611386  0.42465347  0.68800461  1
  Se  Se227  1  0.24968126  0.74950740  0.20176348  1
  Se  Se228  1  0.25826031  0.74490519  0.69758204  1
  Se  Se229  1  0.57651282  0.08727634  0.20507670  1
  Se  Se230  1  0.57796342  0.08520015  0.68105526  1
  Se  Se231  1  0.58348865  0.41871654  0.19919320  1
  Se  Se232  1  0.57959948  0.41701098  0.68444863  1
  Se  Se233  1  0.57579028  0.74874962  0.19697706  1
  Se  Se234  1  0.57728606  0.75424555  0.69346926  1
  Se  Se235  1  0.91521230  0.09336738  0.18782695  1
  Se  Se236  1  0.90430334  0.09436088  0.69659422  1
  Se  Se237  1  0.91361967  0.41629578  0.18904552  1
  Se  Se238  1  0.90839490  0.42453192  0.68537959  1
  Se  Se239  1  0.91145363  0.75119996  0.21251232  1
  Se  Se240  1  0.92113769  0.74399806  0.69120899  1
  Se  Se241  1  0.09762468  0.24532183  0.20434221  1
  Se  Se242  1  0.09833652  0.25038651  0.68108975  1
  Se  Se243  1  0.08480642  0.57540981  0.20191315  1
  Se  Se244  1  0.08280156  0.58985825  0.69713693  1
  Se  Se245  1  0.08949538  0.90450678  0.18828721  1
  Se  Se246  1  0.09958278  0.90842954  0.67883821  1
  Se  Se247  1  0.42821785  0.24744258  0.19321058  1
  Se  Se248  1  0.42500875  0.24751200  0.67929994  1
  Se  Se249  1  0.40961433  0.58293655  0.19661826  1
  Se  Se250  1  0.41658388  0.58041222  0.69470742  1
  Se  Se251  1  0.41204618  0.91948868  0.20269692  1
  Se  Se252  1  0.41660977  0.91493826  0.69646252  1
  Se  Se253  1  0.74724348  0.25217236  0.19555888  1
  Se  Se254  1  0.74093744  0.25709043  0.69931448  1
  Se  Se255  1  0.74996472  0.58121767  0.19697970  1
  Se  Se256  1  0.75011950  0.57415586  0.68251588  1
  Se  Se257  1  0.75393530  0.91200120  0.20744058  1
  Se  Se258  1  0.75353590  0.90925278  0.68732577  1
