# generated using pymatgen
data_In86Cu29Se144
_symmetry_space_group_name_H-M   'P 1'
_cell_length_a   17.58291602
_cell_length_b   17.58074520
_cell_length_c   23.44195324
_cell_angle_alpha   89.99896197
_cell_angle_beta   89.99989909
_cell_angle_gamma   89.97920222
_symmetry_Int_Tables_number   1
_chemical_formula_structural   In86Cu29Se144
_chemical_formula_sum   'In86 Cu29 Se144'
_cell_volume   7246.39407469
_cell_formula_units_Z   1
loop_
 _symmetry_equiv_pos_site_id
 _symmetry_equiv_pos_as_xyz
  1  'x, y, z'
loop_
 _atom_site_type_symbol
 _atom_site_label
 _atom_site_symmetry_multiplicity
 _atom_site_fract_x
 _atom_site_fract_y
 _atom_site_fract_z
 _atom_site_occupancy
  In  In0  1  0.01345288  0.15888091  0.13037672  1
  In  In1  1  -0.00806317  0.18055606  0.63077697  1
  In  In2  1  -0.00528976  0.50082000  0.13331240  1
  In  In3  1  -0.00214203  0.50314438  0.62444074  1
  In  In4  1  0.00286990  0.83133003  0.13612692  1
  In  In5  1  -0.00228855  0.83405632  0.63209443  1
  In  In6  1  0.32924702  0.16970053  0.12546133  1
  In  In7  1  0.34204336  0.16100846  0.62799331  1
  In  In8  1  0.32209385  0.47958728  0.12677581  1
  In  In9  1  0.31704523  0.49488193  0.62491700  1
  In  In10  1  0.34162115  0.84138645  0.13041062  1
  In  In11  1  0.34600331  0.83842610  0.61914109  1
  In  In12  1  0.66620148  0.17729740  0.11547036  1
  In  In13  1  0.66621830  0.16784512  0.62443793  1
  In  In14  1  0.68345664  0.50064253  0.12279796  1
  In  In15  1  0.68186470  0.48740042  0.63244151  1
  In  In16  1  0.65685840  0.82868803  0.12635645  1
  In  In17  1  0.65958911  0.84595527  0.63481963  1
  In  In18  1  0.17421753  -0.00015369  0.36608799  1
  In  In19  1  0.17940910  0.01070273  0.86579024  1
  In  In20  1  0.17068392  0.34375321  0.36714050  1
  In  In21  1  0.15822411  0.32581876  0.87094153  1
  In  In22  1  0.14911267  0.66366015  0.37001556  1
  In  In23  1  0.15525428  0.65868885  0.86964695  1
  In  In24  1  0.48335086  0.01258982  0.39328103  1
  In  In25  1  0.51132302  0.01951300  0.86972038  1
  In  In26  1  0.48641250  0.32641361  0.37614335  1
  In  In27  1  0.48887139  0.31573190  0.86352677  1
  In  In28  1  0.51364568  0.66650844  0.37800620  1
  In  In29  1  0.50348027  0.65456765  0.87168838  1
  In  In30  1  0.84524583  0.00319676  0.37794675  1
  In  In31  1  0.82975585  -0.00143701  0.86708592  1
  In  In32  1  0.84308178  0.32498507  0.38371057  1
  In  In33  1  0.84426064  0.34454672  0.86694624  1
  In  In34  1  0.83163625  0.66294703  0.37645108  1
  In  In35  1  0.83254423  0.66258369  0.87158327  1
  In  In36  1  -0.00025805  0.16454434  0.37405935  1
  In  In37  1  0.00902856  0.17573517  0.86749895  1
  In  In38  1  -0.00112565  0.49716680  0.37661659  1
  In  In39  1  -0.00301180  0.48999429  0.87305786  1
  In  In40  1  0.01370643  0.83682660  0.35906943  1
  In  In41  1  -0.00230194  0.83177600  0.86834450  1
  In  In42  1  0.33300215  0.16764764  0.37503949  1
  In  In43  1  0.33623227  0.17033877  0.87554568  1
  In  In44  1  0.33301515  0.48033766  0.37288573  1
  In  In45  1  0.32744510  0.48767248  0.86729007  1
  In  In46  1  0.33167277  0.85229767  0.37522324  1
  In  In47  1  0.31799260  0.83975562  0.87531655  1
  In  In48  1  0.66644999  0.16307674  0.38469251  1
  In  In49  1  0.65316655  0.15758122  0.86771658  1
  In  In50  1  0.66945194  0.51420154  0.37659326  1
  In  In51  1  0.67689085  0.50780482  0.86455535  1
  In  In52  1  0.66399736  0.82413047  0.37842091  1
  In  In53  1  0.66966702  0.83842732  0.86762124  1
  In  In54  1  0.15777259  0.00731609  0.13260949  1
  In  In55  1  0.17026127  -0.00308133  0.63017875  1
  In  In56  1  0.17599365  0.32652333  0.13820521  1
  In  In57  1  0.15717766  0.34975704  0.63936665  1
  In  In58  1  0.14706534  0.65537510  0.13157436  1
  In  In59  1  0.16398880  0.64832993  0.62389691  1
  In  In60  1  0.48716348  -0.00078182  0.12626042  1
  In  In61  1  0.49613614  0.00592210  0.62193954  1
  In  In62  1  0.49445470  0.31936204  0.12050255  1
  In  In63  1  0.50794740  0.32337185  0.63204088  1
  In  In64  1  0.50204267  0.68059147  0.13214869  1
  In  In65  1  0.50334485  0.68148061  0.62345894  1
  In  In66  1  0.84423031  0.01139745  0.12430558  1
  In  In67  1  0.82415249  0.01043971  0.63313114  1
  In  In68  1  0.83282007  0.35019382  0.11769914  1
  In  In69  1  0.83383784  0.33396784  0.62204678  1
  In  In70  1  0.84620480  0.65149578  0.13349582  1
  In  In71  1  0.84443803  0.65884648  0.62969833  1
  In  In72  1  0.16050352  0.48739823  -0.00512162  1
  In  In73  1  0.50396057  0.49603815  0.00077542  1
  In  In74  1  0.50288485  0.49582290  0.49983388  1
  In  In75  1  0.83109168  0.83441467  -0.00744545  1
  In  In76  1  0.83263396  0.16976268  -0.00834021  1
  In  In77  1  0.16843709  0.83198021  0.49432207  1
  In  In78  1  0.33727989  0.67350862  0.74289871  1
  In  In79  1  0.50109421  0.84172491  0.00167737  1
  In  In80  1  0.66773778  -0.00388946  0.24702589  1
  In  In81  1  0.66853623  0.33490965  0.24397344  1
  In  In82  1  0.16785426  0.17049349  0.50002784  1
  In  In83  1  0.83138215  0.83226347  0.49838122  1
  In  In84  1  0.16181720  0.83641548  0.01115309  1
  In  In85  1  0.32940511  0.66474631  0.24850308  1
  Cu  Cu86  1  0.66218029  0.00249996  0.51003392  1
  Cu  Cu87  1  0.33706123  0.01351367  -0.00202102  1
  Cu  Cu88  1  0.49294645  0.16477381  0.25126070  1
  Cu  Cu89  1  0.66795167  0.33180107  0.50546784  1
  Cu  Cu90  1  -0.00154351  0.34027456  0.50569996  1
  Cu  Cu91  1  0.84518387  0.16693353  0.25099408  1
  Cu  Cu92  1  0.00058156  0.33012931  -0.00341733  1
  Cu  Cu93  1  0.66267839  0.33633055  -0.00904913  1
  Cu  Cu94  1  0.83729708  0.49963408  0.74705890  1
  Cu  Cu95  1  0.50547967  0.50018788  0.74810915  1
  Cu  Cu96  1  0.16910764  0.16895209  0.25203559  1
  Cu  Cu97  1  0.83266787  0.82899933  0.25585654  1
  Cu  Cu98  1  0.49896548  0.84048405  0.74792317  1
  Cu  Cu99  1  0.67127674  0.66648020  0.50384045  1
  Cu  Cu100  1  0.83271844  0.17042385  0.74855861  1
  Cu  Cu101  1  0.50129639  0.49890313  0.25336711  1
  Cu  Cu102  1  0.16841063  0.16546367  0.74846081  1
  Cu  Cu103  1  0.32357549  0.65964575  0.00101188  1
  Cu  Cu104  1  0.49821109  0.16336252  0.74647075  1
  Cu  Cu105  1  0.16448284  0.83636584  0.74836108  1
  Cu  Cu106  1  -0.00367438  0.00787689  0.50066653  1
  Cu  Cu107  1  0.67377516  0.66666382  -0.00260238  1
  Cu  Cu108  1  0.83341798  0.83038239  0.75006665  1
  Cu  Cu109  1  0.50177921  0.83799336  0.25461411  1
  Cu  Cu110  1  0.32940383  0.66225220  0.50117941  1
  Cu  Cu111  1  -0.00223351  0.66233453  0.49833485  1
  Cu  Cu112  1  0.32984183  0.32689122  0.50087532  1
  Cu  Cu113  1  0.00916284  0.00255596  -0.00035103  1
  Cu  Cu114  1  0.83449245  0.50150499  0.25259027  1
  Se  Se115  1  0.09055190  0.08606291  0.05295896  1
  Se  Se116  1  0.07836859  0.08179155  0.56277571  1
  Se  Se117  1  0.07661225  0.40525656  0.06413191  1
  Se  Se118  1  0.08598027  0.41978929  0.55758217  1
  Se  Se119  1  0.06753365  0.73922958  0.05799950  1
  Se  Se120  1  0.07664985  0.74661325  0.55740812  1
  Se  Se121  1  0.41972238  0.09030440  0.05655636  1
  Se  Se122  1  0.41371232  0.08515679  0.55120700  1
  Se  Se123  1  0.40678229  0.40562163  0.05189459  1
  Se  Se124  1  0.41221645  0.40847695  0.56079474  1
  Se  Se125  1  0.40700533  0.74338163  0.05553051  1
  Se  Se126  1  0.41535074  0.74655682  0.54914794  1
  Se  Se127  1  0.74657174  0.07708422  0.05474665  1
  Se  Se128  1  0.75258373  0.08592709  0.55487463  1
  Se  Se129  1  0.74665366  0.41914725  0.04389124  1
  Se  Se130  1  0.75315943  0.41904912  0.55086143  1
  Se  Se131  1  0.74925019  0.74565298  0.06167171  1
  Se  Se132  1  0.74639028  0.74918682  0.56640946  1
  Se  Se133  1  0.24411783  0.25279383  0.05937125  1
  Se  Se134  1  0.24859527  0.25784068  0.56810288  1
  Se  Se135  1  0.24651006  0.58139558  0.06155407  1
  Se  Se136  1  0.24587441  0.57644362  0.54900965  1
  Se  Se137  1  0.26163995  0.92835487  0.05936510  1
  Se  Se138  1  0.25580648  0.92462771  0.55306974  1
  Se  Se139  1  0.58224606  0.25349425  0.04557328  1
  Se  Se140  1  0.58084613  0.24888467  0.55381606  1
  Se  Se141  1  0.58731385  0.59586490  0.06030738  1
  Se  Se142  1  0.59077123  0.58348152  0.56337878  1
  Se  Se143  1  0.59299920  0.93114003  0.05988831  1
  Se  Se144  1  0.58001868  0.91377314  0.55735688  1
  Se  Se145  1  0.92106731  0.25034484  0.06022128  1
  Se  Se146  1  0.91571700  0.24959731  0.55167347  1
  Se  Se147  1  0.91171228  0.57000594  0.05773543  1
  Se  Se148  1  0.91319308  0.58113746  0.55129469  1
  Se  Se149  1  0.92648521  0.92074034  0.05605272  1
  Se  Se150  1  0.91891175  0.92330701  0.55975755  1
  Se  Se151  1  0.07803661  0.26182641  0.44205650  1
  Se  Se152  1  0.08465469  0.24535859  0.94720771  1
  Se  Se153  1  0.08377256  0.58029553  0.44661140  1
  Se  Se154  1  0.07217838  0.58776414  0.94532789  1
  Se  Se155  1  0.07507354  0.92774177  0.44032495  1
  Se  Se156  1  0.08474470  0.92030766  0.93713801  1
  Se  Se157  1  0.41486164  0.24388640  0.44992704  1
  Se  Se158  1  0.42515698  0.24473220  0.94516650  1
  Se  Se159  1  0.41103366  0.58369875  0.43819994  1
  Se  Se160  1  0.40510560  0.58389317  0.94053788  1
  Se  Se161  1  0.42706483  0.89959236  0.44929541  1
  Se  Se162  1  0.41015250  0.92568884  0.93826453  1
  Se  Se163  1  0.75025907  0.24876100  0.44891223  1
  Se  Se164  1  0.74449308  0.25796513  0.93001655  1
  Se  Se165  1  0.75381255  0.58348311  0.45104271  1
  Se  Se166  1  0.75193724  0.58129815  0.94342220  1
  Se  Se167  1  0.74037784  0.92809202  0.44197039  1
  Se  Se168  1  0.73761022  0.92998453  0.94294731  1
  Se  Se169  1  0.25450805  0.07357787  0.44433158  1
  Se  Se170  1  0.24747801  0.08842380  0.94417484  1
  Se  Se171  1  0.24870532  0.41207993  0.44794623  1
  Se  Se172  1  0.25856780  0.40052070  0.94173107  1
  Se  Se173  1  0.25580013  0.73973929  0.43392772  1
  Se  Se174  1  0.24527398  0.74187964  0.94324968  1
  Se  Se175  1  0.58102450  0.08720801  0.45424814  1
  Se  Se176  1  0.58258322  0.08914154  0.94927286  1
  Se  Se177  1  0.59141841  0.40677608  0.43663477  1
  Se  Se178  1  0.58516094  0.41645081  0.92862600  1
  Se  Se179  1  0.58447996  0.74884998  0.45353194  1
  Se  Se180  1  0.58731025  0.74451254  0.94099193  1
  Se  Se181  1  0.91426113  0.09254639  0.44888734  1
  Se  Se182  1  0.92555173  0.07572616  0.93687599  1
  Se  Se183  1  0.91388437  0.42068821  0.44951209  1
  Se  Se184  1  0.91565409  0.41567948  0.94823089  1
  Se  Se185  1  0.92989075  0.75266389  0.43760232  1
  Se  Se186  1  0.92568618  0.74213468  0.94225006  1
  Se  Se187  1  0.25338957  0.25106169  0.30604394  1
  Se  Se188  1  0.24958701  0.24770441  0.80523241  1
  Se  Se189  1  0.24653244  0.57432237  0.31125682  1
  Se  Se190  1  0.24798676  0.58204774  0.80159108  1
  Se  Se191  1  0.23870116  0.90148615  0.30020469  1
  Se  Se192  1  0.25334484  0.91851121  0.79687315  1
  Se  Se193  1  0.58192415  0.24276831  0.30758738  1
  Se  Se194  1  0.58562393  0.24890665  0.79584132  1
  Se  Se195  1  0.58455015  0.58418790  0.30234249  1
  Se  Se196  1  0.58738579  0.58826877  0.79714638  1
  Se  Se197  1  0.57877439  0.91981913  0.31613182  1
  Se  Se198  1  0.58204140  0.92166845  0.80422709  1
  Se  Se199  1  0.92080657  0.25387228  0.30600722  1
  Se  Se200  1  0.91933932  0.25259014  0.80066276  1
  Se  Se201  1  0.91659770  0.58436346  0.30789312  1
  Se  Se202  1  0.91839079  0.58000172  0.80541733  1
  Se  Se203  1  0.91400746  0.91880143  0.30407391  1
  Se  Se204  1  0.91678210  0.91723608  0.80162265  1
  Se  Se205  1  0.08539255  0.08527815  0.30551357  1
  Se  Se206  1  0.08223257  0.08169636  0.80103903  1
  Se  Se207  1  0.07092788  0.40997301  0.30490348  1
  Se  Se208  1  0.09218602  0.42456110  0.80614072  1
  Se  Se209  1  0.08403552  0.74452660  0.29312699  1
  Se  Se210  1  0.08446542  0.75041417  0.80153970  1
  Se  Se211  1  0.41633287  0.08010350  0.30835772  1
  Se  Se212  1  0.41297614  0.08383917  0.80282853  1
  Se  Se213  1  0.41937047  0.40983853  0.29989113  1
  Se  Se214  1  0.42054414  0.41789570  0.80029280  1
  Se  Se215  1  0.42186754  0.75150981  0.31135929  1
  Se  Se216  1  0.42221134  0.75959380  0.81238412  1
  Se  Se217  1  0.75586441  0.09021974  0.30708730  1
  Se  Se218  1  0.74909786  0.08581291  0.80136101  1
  Se  Se219  1  0.75340609  0.41911946  0.31179067  1
  Se  Se220  1  0.75133229  0.41526718  0.79800430  1
  Se  Se221  1  0.74824890  0.74786245  0.30852315  1
  Se  Se222  1  0.74972758  0.74837144  0.80459735  1
  Se  Se223  1  0.25117861  0.08476007  0.19668806  1
  Se  Se224  1  0.25265192  0.08259028  0.69575712  1
  Se  Se225  1  0.24234838  0.42288433  0.20622899  1
  Se  Se226  1  0.25725926  0.41559887  0.70423303  1
  Se  Se227  1  0.24374276  0.75262678  0.18394862  1
  Se  Se228  1  0.24235507  0.75908549  0.68238318  1
  Se  Se229  1  0.58115185  0.09464063  0.18967992  1
  Se  Se230  1  0.58357040  0.08224805  0.69208086  1
  Se  Se231  1  0.57632275  0.42383894  0.18358974  1
  Se  Se232  1  0.58768115  0.41324012  0.69714098  1
  Se  Se233  1  0.58661830  0.75229657  0.20511627  1
  Se  Se234  1  0.58262616  0.75180687  0.70027044  1
  Se  Se235  1  0.92563049  0.07911364  0.19964998  1
  Se  Se236  1  0.91868688  0.08596295  0.69723284  1
  Se  Se237  1  0.91041781  0.41184248  0.19868885  1
  Se  Se238  1  0.91756672  0.41462173  0.69203995  1
  Se  Se239  1  0.91580506  0.74694093  0.19979574  1
  Se  Se240  1  0.91906208  0.74737554  0.69924285  1
  Se  Se241  1  0.08020894  0.25011458  0.20153737  1
  Se  Se242  1  0.08191403  0.25180855  0.70049112  1
  Se  Se243  1  0.08739855  0.56625011  0.20436659  1
  Se  Se244  1  0.07378361  0.58915538  0.69576549  1
  Se  Se245  1  0.08635258  0.91537228  0.19901330  1
  Se  Se246  1  0.07990399  0.92099180  0.69707554  1
  Se  Se247  1  0.41412644  0.25135272  0.19726300  1
  Se  Se248  1  0.41346857  0.25144489  0.69847591  1
  Se  Se249  1  0.42151898  0.57433240  0.18686026  1
  Se  Se250  1  0.42490482  0.57719577  0.68454568  1
  Se  Se251  1  0.41671625  0.92193832  0.20424680  1
  Se  Se252  1  0.41498430  0.92127651  0.69408259  1
  Se  Se253  1  0.76320537  0.24213590  0.18803045  1
  Se  Se254  1  0.75038418  0.25204396  0.69179526  1
  Se  Se255  1  0.74691962  0.58358417  0.20039638  1
  Se  Se256  1  0.75132463  0.58569641  0.69722176  1
  Se  Se257  1  0.76190219  0.90804546  0.18717040  1
  Se  Se258  1  0.75071188  0.91988345  0.70160064  1
