# generated using pymatgen
data_In86Cu29Se144
_symmetry_space_group_name_H-M   'P 1'
_cell_length_a   17.58397064
_cell_length_b   17.58585874
_cell_length_c   23.44727306
_cell_angle_alpha   89.98012327
_cell_angle_beta   89.99671734
_cell_angle_gamma   90.01838296
_symmetry_Int_Tables_number   1
_chemical_formula_structural   In86Cu29Se144
_chemical_formula_sum   'In86 Cu29 Se144'
_cell_volume   7250.58122511
_cell_formula_units_Z   1
loop_
 _symmetry_equiv_pos_site_id
 _symmetry_equiv_pos_as_xyz
  1  'x, y, z'
loop_
 _atom_site_type_symbol
 _atom_site_label
 _atom_site_symmetry_multiplicity
 _atom_site_fract_x
 _atom_site_fract_y
 _atom_site_fract_z
 _atom_site_occupancy
  In  In0  1  -0.02154246  0.19267670  0.14447739  1
  In  In1  1  -0.00159055  0.18454801  0.62594252  1
  In  In2  1  -0.00467171  0.48842566  0.11921695  1
  In  In3  1  -0.01155414  0.48918526  0.61876772  1
  In  In4  1  -0.00946690  0.84660970  0.13293480  1
  In  In5  1  -0.00007710  0.83112797  0.61336763  1
  In  In6  1  0.34272067  0.18208099  0.12655110  1
  In  In7  1  0.34567582  0.16744198  0.62031254  1
  In  In8  1  0.31957031  0.48961597  0.12339497  1
  In  In9  1  0.33217763  0.49945606  0.61936695  1
  In  In10  1  0.33372856  0.83447868  0.12873145  1
  In  In11  1  0.33280435  0.82556397  0.61671852  1
  In  In12  1  0.68681468  0.15187169  0.13922207  1
  In  In13  1  0.66015113  0.15591813  0.62080415  1
  In  In14  1  0.66992802  0.48671436  0.13120895  1
  In  In15  1  0.67407781  0.51158865  0.61177402  1
  In  In16  1  0.67735259  0.83444299  0.12965404  1
  In  In17  1  0.66576877  0.82968319  0.62230669  1
  In  In18  1  0.15364744  0.00561916  0.37139218  1
  In  In19  1  0.16755476  0.00710687  0.87845601  1
  In  In20  1  0.17095004  0.34040263  0.35597998  1
  In  In21  1  0.17502761  0.34708022  0.86896640  1
  In  In22  1  0.17212986  0.65506231  0.38246081  1
  In  In23  1  0.16120028  0.65362362  0.86965779  1
  In  In24  1  0.51972400  -0.01277267  0.38386848  1
  In  In25  1  0.52011178  -0.00659716  0.87150619  1
  In  In26  1  0.49911431  0.33170751  0.38072912  1
  In  In27  1  0.49672926  0.34770559  0.86736707  1
  In  In28  1  0.50473556  0.67010233  0.39281388  1
  In  In29  1  0.51282192  0.68632507  0.84588753  1
  In  In30  1  0.83475943  0.01019111  0.37315100  1
  In  In31  1  0.81691150  -0.00196361  0.88050765  1
  In  In32  1  0.82967300  0.33261464  0.37587952  1
  In  In33  1  0.84373161  0.32793569  0.88224890  1
  In  In34  1  0.82169580  0.66782522  0.39465173  1
  In  In35  1  0.82769102  0.67044333  0.88006865  1
  In  In36  1  -0.00143021  0.16193138  0.36084238  1
  In  In37  1  -0.01753737  0.16793519  0.87723435  1
  In  In38  1  0.00478736  0.48820553  0.37545354  1
  In  In39  1  0.00933895  0.49291519  0.88429953  1
  In  In40  1  -0.01162940  0.84440308  0.38275322  1
  In  In41  1  -0.01159102  0.81796205  0.87443134  1
  In  In42  1  0.33078817  0.18095418  0.37344378  1
  In  In43  1  0.32140529  0.17227253  0.87218448  1
  In  In44  1  0.32944902  0.49420851  0.37834931  1
  In  In45  1  0.33429368  0.50194644  0.86178423  1
  In  In46  1  0.34298245  0.82424403  0.38603204  1
  In  In47  1  0.35320041  0.83019278  0.86605046  1
  In  In48  1  0.66811792  0.16877593  0.37774634  1
  In  In49  1  0.68193029  0.16377701  0.87515317  1
  In  In50  1  0.67311389  0.49262959  0.38953710  1
  In  In51  1  0.66512858  0.50756558  0.87307593  1
  In  In52  1  0.66146200  0.84684201  0.38548981  1
  In  In53  1  0.67513587  0.84134856  0.85360923  1
  In  In54  1  0.15532673  -0.00823617  0.13215368  1
  In  In55  1  0.17818974  -0.00271315  0.61659134  1
  In  In56  1  0.13794020  0.35697739  0.16278404  1
  In  In57  1  0.15757380  0.34562602  0.62745099  1
  In  In58  1  0.17902947  0.65758329  0.12112691  1
  In  In59  1  0.17655953  0.67088978  0.61574260  1
  In  In60  1  0.50681491  -0.00045887  0.13452610  1
  In  In61  1  0.51005975  0.00656052  0.61936102  1
  In  In62  1  0.50059921  0.33311429  0.13988793  1
  In  In63  1  0.49078539  0.32569151  0.61673976  1
  In  In64  1  0.50251829  0.67046810  0.12909579  1
  In  In65  1  0.50579661  0.66586865  0.61634615  1
  In  In66  1  0.82868048  0.00441221  0.12630944  1
  In  In67  1  0.81778883  -0.01497715  0.61696200  1
  In  In68  1  0.83727630  0.33248229  0.12753751  1
  In  In69  1  0.84174490  0.34025684  0.62093036  1
  In  In70  1  0.83680842  0.66451335  0.12097304  1
  In  In71  1  0.82370259  0.66157513  0.61400314  1
  In  In72  1  0.50245056  0.50423369  -0.00913693  1
  In  In73  1  0.33828268  0.65910460  0.26717341  1
  In  In74  1  0.50927820  0.16892930  -0.00112480  1
  In  In75  1  0.50617128  0.83028734  0.00441079  1
  In  In76  1  0.66279723  0.33565041  0.74507731  1
  In  In77  1  0.00112238  0.65830320  0.25515314  1
  In  In78  1  0.15430977  0.82501774  -0.00404568  1
  In  In79  1  0.66454090  0.67054455  0.26634037  1
  In  In80  1  0.33635968  0.00139934  0.25641464  1
  In  In81  1  0.16323655  0.16851104  0.49035933  1
  In  In82  1  0.14818824  0.18355147  0.01962967  1
  In  In83  1  -0.00529451  0.00606292  0.75337839  1
  In  In84  1  -0.00114356  0.65967757  0.74840126  1
  In  In85  1  0.33903851  0.00466285  0.74139519  1
  Cu  Cu86  1  0.66972082  0.66576838  -0.00118121  1
  Cu  Cu87  1  0.17137983  0.84032928  0.74052584  1
  Cu  Cu88  1  0.83134796  0.16353290  0.74975655  1
  Cu  Cu89  1  0.49309484  0.49631426  0.25768123  1
  Cu  Cu90  1  0.50538358  0.16973580  0.25775271  1
  Cu  Cu91  1  0.66656139  0.32791076  0.50285983  1
  Cu  Cu92  1  0.82972303  0.49967811  0.25531555  1
  Cu  Cu93  1  0.83336673  0.84882943  0.25501496  1
  Cu  Cu94  1  -0.00484394  0.33285205  0.49512236  1
  Cu  Cu95  1  0.82471660  0.82875885  0.74384788  1
  Cu  Cu96  1  0.16537676  0.82651106  0.25804746  1
  Cu  Cu97  1  0.67552547  0.00490612  0.49968949  1
  Cu  Cu98  1  0.33013712  0.65678465  -0.01020593  1
  Cu  Cu99  1  -0.00271152  0.66278678  0.00003849  1
  Cu  Cu100  1  0.33167064  0.00116138  0.00242275  1
  Cu  Cu101  1  0.32993327  0.66100724  0.50155314  1
  Cu  Cu102  1  0.82638744  0.17128997  0.25265425  1
  Cu  Cu103  1  0.32495343  0.33463281  0.49654392  1
  Cu  Cu104  1  0.34084088  -0.00613909  0.50037729  1
  Cu  Cu105  1  0.16984438  0.50204456  0.74523776  1
  Cu  Cu106  1  0.49994692  0.16641950  0.74501482  1
  Cu  Cu107  1  -0.00146777  0.00520937  0.49397469  1
  Cu  Cu108  1  0.33275812  0.34404558  -0.00452507  1
  Cu  Cu109  1  0.16693762  0.18633629  0.74823547  1
  Cu  Cu110  1  0.83294988  0.49951243  0.74566381  1
  Cu  Cu111  1  0.67667256  0.32668080  0.00766327  1
  Cu  Cu112  1  0.00356238  0.66421427  0.49941013  1
  Cu  Cu113  1  0.49677876  0.50477100  0.73819619  1
  Cu  Cu114  1  -0.01734630  -0.00199318  0.00360270  1
  Se  Se115  1  0.06792092  0.07174662  0.06354924  1
  Se  Se116  1  0.07705552  0.08251808  0.55944774  1
  Se  Se117  1  0.09587955  0.40819306  0.06577478  1
  Se  Se118  1  0.07909023  0.41461406  0.54956839  1
  Se  Se119  1  0.07236472  0.74234545  0.06761217  1
  Se  Se120  1  0.08823713  0.75086025  0.54895792  1
  Se  Se121  1  0.41596922  0.07770946  0.06064183  1
  Se  Se122  1  0.42044597  0.08333428  0.55041276  1
  Se  Se123  1  0.42181747  0.41328727  0.05763905  1
  Se  Se124  1  0.41230612  0.41390013  0.54961616  1
  Se  Se125  1  0.40357561  0.73699201  0.05591158  1
  Se  Se126  1  0.41774067  0.74766141  0.54740772  1
  Se  Se127  1  0.75207145  0.08901054  0.05485115  1
  Se  Se128  1  0.75785029  0.09057003  0.55296050  1
  Se  Se129  1  0.75363516  0.41849064  0.05753208  1
  Se  Se130  1  0.75236041  0.41373407  0.55216413  1
  Se  Se131  1  0.74751602  0.74748541  0.05767093  1
  Se  Se132  1  0.77165199  0.77376971  0.55628440  1
  Se  Se133  1  0.25787492  0.26777886  0.06100912  1
  Se  Se134  1  0.24790115  0.25300478  0.55937785  1
  Se  Se135  1  0.25119320  0.57564956  0.04758658  1
  Se  Se136  1  0.24320411  0.57427856  0.54816291  1
  Se  Se137  1  0.24883753  0.91645835  0.05652792  1
  Se  Se138  1  0.25102941  0.91130713  0.54734117  1
  Se  Se139  1  0.58900998  0.25550595  0.06724332  1
  Se  Se140  1  0.58081625  0.24395162  0.55365444  1
  Se  Se141  1  0.58971979  0.58757577  0.06066542  1
  Se  Se142  1  0.58061930  0.57945603  0.54472202  1
  Se  Se143  1  0.59355545  0.92560680  0.06032594  1
  Se  Se144  1  0.59055851  0.92070048  0.55225277  1
  Se  Se145  1  0.92733142  0.25965731  0.05707090  1
  Se  Se146  1  0.91447858  0.24923481  0.54993391  1
  Se  Se147  1  0.91536271  0.57873308  0.05405031  1
  Se  Se148  1  0.91712753  0.58215882  0.55149741  1
  Se  Se149  1  0.90535935  0.91050199  0.05761182  1
  Se  Se150  1  0.91956125  0.92215458  0.55106867  1
  Se  Se151  1  0.07654218  0.25953536  0.43140890  1
  Se  Se152  1  0.08399863  0.25384616  0.93315376  1
  Se  Se153  1  0.08076587  0.57586025  0.44562473  1
  Se  Se154  1  0.08819639  0.58536074  0.95012607  1
  Se  Se155  1  0.08580100  0.92044229  0.44582049  1
  Se  Se156  1  0.06655090  0.92516284  0.93926631  1
  Se  Se157  1  0.41216780  0.24893296  0.44972675  1
  Se  Se158  1  0.41266096  0.25923947  0.93940448  1
  Se  Se159  1  0.41188074  0.57899647  0.44582513  1
  Se  Se160  1  0.42142379  0.59581451  0.92711733  1
  Se  Se161  1  0.42725812  0.91060963  0.45014281  1
  Se  Se162  1  0.41465822  0.92463524  0.94305361  1
  Se  Se163  1  0.75234846  0.24831082  0.44801996  1
  Se  Se164  1  0.75444232  0.24650183  0.94774046  1
  Se  Se165  1  0.73515780  0.58871057  0.45940101  1
  Se  Se166  1  0.74955620  0.57840239  0.94635310  1
  Se  Se167  1  0.76000786  0.92388914  0.44552095  1
  Se  Se168  1  0.74340386  0.89844369  0.93970466  1
  Se  Se169  1  0.25917632  0.07354684  0.43860583  1
  Se  Se170  1  0.24886461  0.08981688  0.95168340  1
  Se  Se171  1  0.23751008  0.41007937  0.44063398  1
  Se  Se172  1  0.25595158  0.42885844  0.93974002  1
  Se  Se173  1  0.24811890  0.74718393  0.44775442  1
  Se  Se174  1  0.25520988  0.74884408  0.93418266  1
  Se  Se175  1  0.58621905  0.08621746  0.44911498  1
  Se  Se176  1  0.59933731  0.07284758  0.94575559  1
  Se  Se177  1  0.58070502  0.41165626  0.45219096  1
  Se  Se178  1  0.59640337  0.40234096  0.94279648  1
  Se  Se179  1  0.60564419  0.74161190  0.45022988  1
  Se  Se180  1  0.58552078  0.74062986  0.93751849  1
  Se  Se181  1  0.92188171  0.09340000  0.44080925  1
  Se  Se182  1  0.90635901  0.08047564  0.94454053  1
  Se  Se183  1  0.91110615  0.41952048  0.44474782  1
  Se  Se184  1  0.91309963  0.42316025  0.94697687  1
  Se  Se185  1  0.91874815  0.75066747  0.45059428  1
  Se  Se186  1  0.91227889  0.74860453  0.95210002  1
  Se  Se187  1  0.23669006  0.23185063  0.29987018  1
  Se  Se188  1  0.25782715  0.26217763  0.80002833  1
  Se  Se189  1  0.23406471  0.56605330  0.30390896  1
  Se  Se190  1  0.25034309  0.58981718  0.79647939  1
  Se  Se191  1  0.24922602  0.90500075  0.31612603  1
  Se  Se192  1  0.24625937  0.91843556  0.80663754  1
  Se  Se193  1  0.58583776  0.25535140  0.31015718  1
  Se  Se194  1  0.57855865  0.24295155  0.81097752  1
  Se  Se195  1  0.57338018  0.57347503  0.31819642  1
  Se  Se196  1  0.58504982  0.57641560  0.79616279  1
  Se  Se197  1  0.58942489  0.91403191  0.30453442  1
  Se  Se198  1  0.55865398  0.89265061  0.79910667  1
  Se  Se199  1  0.91281071  0.25515268  0.30253709  1
  Se  Se200  1  0.91213821  0.24962504  0.80170084  1
  Se  Se201  1  0.90249324  0.58285981  0.31767167  1
  Se  Se202  1  0.91094851  0.57476534  0.81203467  1
  Se  Se203  1  0.92301772  0.92718903  0.30521451  1
  Se  Se204  1  0.90762315  0.90613947  0.80623018  1
  Se  Se205  1  0.09188122  0.08785942  0.29464649  1
  Se  Se206  1  0.09284109  0.09862272  0.80795459  1
  Se  Se207  1  0.07304954  0.41582919  0.29454639  1
  Se  Se208  1  0.08462476  0.42613876  0.80305994  1
  Se  Se209  1  0.08416823  0.75039652  0.31867843  1
  Se  Se210  1  0.09118087  0.76016870  0.80279552  1
  Se  Se211  1  0.42699130  0.08642812  0.31859452  1
  Se  Se212  1  0.42389563  0.08860821  0.81328606  1
  Se  Se213  1  0.41196247  0.41106474  0.31014268  1
  Se  Se214  1  0.41715894  0.41863242  0.79244968  1
  Se  Se215  1  0.43468848  0.75549719  0.31221799  1
  Se  Se216  1  0.40230049  0.74251861  0.78801735  1
  Se  Se217  1  0.74475659  0.08501780  0.30440110  1
  Se  Se218  1  0.74916976  0.07758244  0.80067897  1
  Se  Se219  1  0.74425246  0.41948933  0.30930838  1
  Se  Se220  1  0.75501346  0.41819650  0.80835597  1
  Se  Se221  1  0.76264919  0.76170341  0.31613299  1
  Se  Se222  1  0.75134478  0.73713203  0.79896741  1
  Se  Se223  1  0.25567415  0.08124607  0.18335329  1
  Se  Se224  1  0.24001578  0.09825235  0.68879288  1
  Se  Se225  1  0.26661531  0.40464956  0.20218975  1
  Se  Se226  1  0.25292995  0.41741969  0.69286799  1
  Se  Se227  1  0.24748876  0.74975330  0.19828316  1
  Se  Se228  1  0.25019018  0.75158219  0.69104446  1
  Se  Se229  1  0.58430137  0.08471605  0.20235128  1
  Se  Se230  1  0.58523707  0.08014594  0.69843952  1
  Se  Se231  1  0.58383487  0.41953290  0.20480840  1
  Se  Se232  1  0.57856837  0.42210328  0.67977461  1
  Se  Se233  1  0.58004641  0.75752703  0.19756049  1
  Se  Se234  1  0.59567914  0.73434044  0.68835180  1
  Se  Se235  1  0.90946104  0.08506614  0.19893793  1
  Se  Se236  1  0.90949627  0.08663157  0.68444813  1
  Se  Se237  1  0.91314269  0.42241288  0.19787422  1
  Se  Se238  1  0.91879976  0.41367623  0.69889018  1
  Se  Se239  1  0.90668091  0.75382615  0.19952673  1
  Se  Se240  1  0.91518988  0.75454716  0.68850891  1
  Se  Se241  1  0.09993330  0.22572243  0.20072774  1
  Se  Se242  1  0.07629900  0.26334921  0.69848130  1
  Se  Se243  1  0.08844848  0.57832553  0.18765390  1
  Se  Se244  1  0.08756013  0.57833820  0.68285593  1
  Se  Se245  1  0.08164855  0.91043748  0.20617052  1
  Se  Se246  1  0.08499117  0.91926587  0.68760325  1
  Se  Se247  1  0.41675940  0.25032080  0.20709227  1
  Se  Se248  1  0.41572283  0.25010378  0.69580727  1
  Se  Se249  1  0.42028162  0.57633398  0.19242993  1
  Se  Se250  1  0.41479709  0.58707655  0.68464992  1
  Se  Se251  1  0.42558430  0.90340709  0.19940627  1
  Se  Se252  1  0.42286983  0.91224340  0.68266765  1
  Se  Se253  1  0.74715772  0.25978058  0.19900521  1
  Se  Se254  1  0.75370765  0.24458626  0.68725033  1
  Se  Se255  1  0.75188092  0.58473130  0.19709799  1
  Se  Se256  1  0.75199387  0.58166039  0.69102908  1
  Se  Se257  1  0.74649908  0.92434523  0.19995965  1
  Se  Se258  1  0.74216222  0.91754165  0.69675436  1
