# generated using pymatgen
data_In86Cu29Se144
_symmetry_space_group_name_H-M   'P 1'
_cell_length_a   17.57251891
_cell_length_b   17.57196894
_cell_length_c   23.42285147
_cell_angle_alpha   90.01827585
_cell_angle_beta   90.00691167
_cell_angle_gamma   89.98905541
_symmetry_Int_Tables_number   1
_chemical_formula_structural   In86Cu29Se144
_chemical_formula_sum   'In86 Cu29 Se144'
_cell_volume   7232.59551240
_cell_formula_units_Z   1
loop_
 _symmetry_equiv_pos_site_id
 _symmetry_equiv_pos_as_xyz
  1  'x, y, z'
loop_
 _atom_site_type_symbol
 _atom_site_label
 _atom_site_symmetry_multiplicity
 _atom_site_fract_x
 _atom_site_fract_y
 _atom_site_fract_z
 _atom_site_occupancy
  In  In0  1  -0.00235844  0.16632893  0.11347240  1
  In  In1  1  0.01580287  0.15838923  0.63788324  1
  In  In2  1  0.01192006  0.50584771  0.12842912  1
  In  In3  1  -0.00878696  0.50784218  0.62976984  1
  In  In4  1  0.00849996  0.81483285  0.12476869  1
  In  In5  1  -0.00325613  0.83337465  0.63120003  1
  In  In6  1  0.32656815  0.17361753  0.12670791  1
  In  In7  1  0.33901752  0.16510868  0.62866880  1
  In  In8  1  0.33712331  0.49514812  0.13296585  1
  In  In9  1  0.34451673  0.48944179  0.62876462  1
  In  In10  1  0.33005044  0.83512978  0.12141071  1
  In  In11  1  0.33545203  0.84148236  0.64314870  1
  In  In12  1  0.67330282  0.16599268  0.12196421  1
  In  In13  1  0.65491459  0.18506523  0.62731445  1
  In  In14  1  0.65417414  0.49796943  0.13057483  1
  In  In15  1  0.66395816  0.48691523  0.60734743  1
  In  In16  1  0.66969476  0.84591697  0.11700370  1
  In  In17  1  0.67780159  0.82357665  0.62980474  1
  In  In18  1  0.18241329  -0.00410228  0.37674666  1
  In  In19  1  0.15772029  0.00145612  0.87346839  1
  In  In20  1  0.16512678  0.31924614  0.38102695  1
  In  In21  1  0.14683539  0.31054567  0.85194789  1
  In  In22  1  0.16783977  0.66697141  0.36959350  1
  In  In23  1  0.17010386  0.66908400  0.87281978  1
  In  In24  1  0.49664440  0.01140835  0.37718020  1
  In  In25  1  0.47983704  -0.02599368  0.85132014  1
  In  In26  1  0.49876529  0.33445675  0.37823454  1
  In  In27  1  0.49353314  0.32502641  0.86498618  1
  In  In28  1  0.48425455  0.66403235  0.37611150  1
  In  In29  1  0.49706435  0.69425147  0.87703004  1
  In  In30  1  0.82640510  -0.00107999  0.38438492  1
  In  In31  1  0.84519306  0.00588670  0.86472542  1
  In  In32  1  0.83741406  0.34508730  0.37809940  1
  In  In33  1  0.82028708  0.32422919  0.86395707  1
  In  In34  1  0.83896988  0.66906096  0.37861679  1
  In  In35  1  0.83505274  0.65839144  0.87447627  1
  In  In36  1  0.00409786  0.18258840  0.38415922  1
  In  In37  1  -0.00147538  0.16036588  0.87183829  1
  In  In38  1  -0.01013377  0.50732831  0.38270213  1
  In  In39  1  0.00575768  0.50385265  0.86276273  1
  In  In40  1  -0.00574225  0.82359036  0.37390969  1
  In  In41  1  0.00399340  0.83485450  0.87240744  1
  In  In42  1  0.33178049  0.16865194  0.37573338  1
  In  In43  1  0.30152622  0.14236344  0.84663938  1
  In  In44  1  0.34173005  0.50464886  0.37589475  1
  In  In45  1  0.32907786  0.49585074  0.86677699  1
  In  In46  1  0.32963761  0.83276351  0.36483626  1
  In  In47  1  0.32628120  0.83015620  0.87555718  1
  In  In48  1  0.64663776  0.16911351  0.38350514  1
  In  In49  1  0.67061488  0.16717357  0.86739041  1
  In  In50  1  0.67604426  0.48405561  0.38800992  1
  In  In51  1  0.67257673  0.49700088  0.87115128  1
  In  In52  1  0.67436994  0.84301943  0.37975106  1
  In  In53  1  0.64123078  0.83301132  0.87522298  1
  In  In54  1  0.17691127  0.01130083  0.11403587  1
  In  In55  1  0.16976570  0.01179866  0.64052125  1
  In  In56  1  0.17307917  0.33369637  0.12286291  1
  In  In57  1  0.18046979  0.31385588  0.63967713  1
  In  In58  1  0.15754769  0.67775162  0.12910080  1
  In  In59  1  0.16258627  0.67360311  0.63351243  1
  In  In60  1  0.49835634  -0.01205676  0.11905931  1
  In  In61  1  0.48887393  0.01097088  0.63968837  1
  In  In62  1  0.49696523  0.33586773  0.13225817  1
  In  In63  1  0.50758410  0.33205389  0.61756829  1
  In  In64  1  0.48689757  0.66511559  0.12329457  1
  In  In65  1  0.50600992  0.65780942  0.62614939  1
  In  In66  1  0.82139838  0.00472268  0.11865172  1
  In  In67  1  0.84181078  -0.00718574  0.63330090  1
  In  In68  1  0.83427759  0.32186132  0.12503619  1
  In  In69  1  0.82462625  0.34690649  0.62726458  1
  In  In70  1  0.85070822  0.68109851  0.12842528  1
  In  In71  1  0.84390226  0.66489257  0.61324229  1
  In  In72  1  0.50369532  0.83210292  0.50471374  1
  In  In73  1  0.83436666  0.49799848  -0.00192538  1
  In  In74  1  0.00215863  -0.00082210  0.25143074  1
  In  In75  1  0.00441073  0.34203142  0.25563310  1
  In  In76  1  0.49541642  0.50211826  0.00425009  1
  In  In77  1  0.49721000  0.16205836  -0.01179374  1
  In  In78  1  0.83411154  0.16954774  0.50759053  1
  In  In79  1  0.66006380  0.00059151  0.24417133  1
  In  In80  1  0.16195806  0.84072619  0.51202717  1
  In  In81  1  0.66801568  0.66296850  0.74951819  1
  In  In82  1  0.83568353  0.83866024  -0.00137397  1
  In  In83  1  0.66296389  0.66448481  0.25156855  1
  In  In84  1  0.16790260  0.49931117  -0.00225963  1
  In  In85  1  0.16358063  0.49669008  0.50260771  1
  Cu  Cu86  1  0.83723529  0.16735974  0.74475336  1
  Cu  Cu87  1  0.00490263  -0.00154508  0.51346421  1
  Cu  Cu88  1  0.16520475  0.83339568  0.75506757  1
  Cu  Cu89  1  -0.00501249  0.32588163  -0.01111699  1
  Cu  Cu90  1  0.82205509  0.16639772  0.24860232  1
  Cu  Cu91  1  0.31991828  0.32220792  -0.00586471  1
  Cu  Cu92  1  0.16549480  0.49995492  0.74470367  1
  Cu  Cu93  1  0.49264676  0.83158966  0.24538151  1
  Cu  Cu94  1  0.33200260  -0.00273935  -0.01138151  1
  Cu  Cu95  1  0.83303686  0.49956013  0.74605879  1
  Cu  Cu96  1  0.66696350  -0.00134241  0.50795774  1
  Cu  Cu97  1  0.83490865  0.83134218  0.74981590  1
  Cu  Cu98  1  0.32734034  0.66874423  0.50218827  1
  Cu  Cu99  1  0.83131138  0.50474846  0.25795696  1
  Cu  Cu100  1  0.00913847  0.33048576  0.51122904  1
  Cu  Cu101  1  0.50015431  0.49342528  0.25561481  1
  Cu  Cu102  1  0.16998461  0.16626699  0.25086512  1
  Cu  Cu103  1  0.66495928  0.00399618  -0.00800351  1
  Cu  Cu104  1  0.50283261  0.50269479  0.74310101  1
  Cu  Cu105  1  0.51020915  0.17999513  0.74575842  1
  Cu  Cu106  1  0.66642200  0.32832055  -0.00598041  1
  Cu  Cu107  1  0.33847048  0.00958624  0.50292704  1
  Cu  Cu108  1  0.17537681  0.50494602  0.25165560  1
  Cu  Cu109  1  0.00059875  0.00105387  -0.00685464  1
  Cu  Cu110  1  0.34019841  0.32633731  0.50554716  1
  Cu  Cu111  1  0.17171145  0.83550875  0.24709252  1
  Cu  Cu112  1  0.67195460  0.66138890  0.49947939  1
  Cu  Cu113  1  0.33011182  0.67142219  -0.00001829  1
  Cu  Cu114  1  0.49064497  0.17118643  0.25526451  1
  Se  Se115  1  0.08348078  0.08585110  0.04790239  1
  Se  Se116  1  0.09209534  0.08166482  0.56096741  1
  Se  Se117  1  0.07078540  0.40541080  0.05444579  1
  Se  Se118  1  0.08840924  0.40782488  0.57298047  1
  Se  Se119  1  0.08688375  0.74655163  0.04830302  1
  Se  Se120  1  0.07181548  0.73998532  0.55785818  1
  Se  Se121  1  0.40857446  0.07730872  0.05456050  1
  Se  Se122  1  0.42573912  0.08658746  0.55689961  1
  Se  Se123  1  0.40242634  0.40152685  0.05434959  1
  Se  Se124  1  0.42087386  0.41844131  0.55099078  1
  Se  Se125  1  0.41686301  0.75305806  0.05231020  1
  Se  Se126  1  0.40649459  0.74926104  0.56418754  1
  Se  Se127  1  0.74722104  0.08744091  0.04579986  1
  Se  Se128  1  0.74690173  0.07905496  0.56822134  1
  Se  Se129  1  0.73951825  0.41024152  0.05893638  1
  Se  Se130  1  0.76136336  0.41679637  0.54371831  1
  Se  Se131  1  0.74933527  0.74278674  0.05916598  1
  Se  Se132  1  0.75074954  0.74883123  0.55232236  1
  Se  Se133  1  0.23990921  0.24209319  0.05173812  1
  Se  Se134  1  0.25398102  0.24582168  0.55785904  1
  Se  Se135  1  0.25779586  0.58449090  0.06218189  1
  Se  Se136  1  0.25172497  0.58782256  0.56431653  1
  Se  Se137  1  0.25083665  0.91710882  0.04885057  1
  Se  Se138  1  0.26179984  0.92711783  0.56475760  1
  Se  Se139  1  0.58115661  0.25442397  0.05579756  1
  Se  Se140  1  0.59174380  0.25648284  0.54528214  1
  Se  Se141  1  0.59099951  0.59304251  0.05852794  1
  Se  Se142  1  0.58096336  0.58421115  0.54956187  1
  Se  Se143  1  0.58389604  0.91847211  0.04519694  1
  Se  Se144  1  0.58664936  0.92010019  0.56971203  1
  Se  Se145  1  0.91076676  0.24955797  0.04803440  1
  Se  Se146  1  0.92756078  0.25053733  0.57105555  1
  Se  Se147  1  0.92636910  0.58739527  0.05723837  1
  Se  Se148  1  0.91539878  0.56933764  0.54822909  1
  Se  Se149  1  0.92695346  0.92496068  0.06280021  1
  Se  Se150  1  0.91718634  0.91360679  0.55778869  1
  Se  Se151  1  0.09135415  0.24502324  0.45954021  1
  Se  Se152  1  0.08482048  0.24585107  0.93979547  1
  Se  Se153  1  0.08001560  0.59624305  0.44576283  1
  Se  Se154  1  0.07417649  0.58723521  0.94130309  1
  Se  Se155  1  0.07763841  0.92462679  0.44126233  1
  Se  Se156  1  0.08357447  0.91374076  0.94530116  1
  Se  Se157  1  0.41913405  0.24428741  0.44569080  1
  Se  Se158  1  0.40152428  0.24786512  0.93224195  1
  Se  Se159  1  0.41344759  0.58489045  0.45296802  1
  Se  Se160  1  0.40727416  0.58746730  0.93969168  1
  Se  Se161  1  0.40795684  0.91745099  0.44284307  1
  Se  Se162  1  0.41854300  0.91254813  0.94072190  1
  Se  Se163  1  0.74888388  0.25316748  0.44044796  1
  Se  Se164  1  0.75035944  0.24588559  0.94253223  1
  Se  Se165  1  0.75704478  0.58174407  0.44485005  1
  Se  Se166  1  0.73777831  0.59041340  0.94542753  1
  Se  Se167  1  0.75178888  0.91572116  0.45674653  1
  Se  Se168  1  0.74745768  0.92211233  0.93295473  1
  Se  Se169  1  0.24987749  0.08546000  0.44782153  1
  Se  Se170  1  0.24815180  0.08466286  0.94012152  1
  Se  Se171  1  0.25842554  0.40761033  0.44464264  1
  Se  Se172  1  0.24480464  0.40549355  0.93325630  1
  Se  Se173  1  0.25109987  0.75287014  0.44428519  1
  Se  Se174  1  0.24304869  0.75098286  0.94783382  1
  Se  Se175  1  0.58052970  0.07677441  0.45393932  1
  Se  Se176  1  0.58138099  0.07138481  0.92654628  1
  Se  Se177  1  0.57129500  0.42345279  0.44847617  1
  Se  Se178  1  0.58317550  0.41153245  0.94015287  1
  Se  Se179  1  0.59005326  0.74216446  0.43901570  1
  Se  Se180  1  0.58952513  0.74416432  0.95303926  1
  Se  Se181  1  0.92808222  0.07817685  0.44703616  1
  Se  Se182  1  0.91306392  0.08374507  0.94444474  1
  Se  Se183  1  0.92886888  0.40818536  0.45110554  1
  Se  Se184  1  0.91958927  0.41191716  0.93132656  1
  Se  Se185  1  0.91133741  0.75837064  0.44861744  1
  Se  Se186  1  0.92184731  0.74260162  0.94200310  1
  Se  Se187  1  0.24890376  0.25296359  0.30511309  1
  Se  Se188  1  0.27367006  0.27434309  0.80438787  1
  Se  Se189  1  0.25854251  0.58722992  0.30634496  1
  Se  Se190  1  0.24620317  0.58249920  0.80228089  1
  Se  Se191  1  0.25388233  0.92307722  0.29731093  1
  Se  Se192  1  0.24682577  0.91863350  0.80777960  1
  Se  Se193  1  0.58011860  0.24986706  0.30618612  1
  Se  Se194  1  0.59512971  0.26052287  0.80085340  1
  Se  Se195  1  0.57932822  0.57531815  0.31595400  1
  Se  Se196  1  0.57248154  0.58090023  0.81316123  1
  Se  Se197  1  0.57273951  0.90928114  0.30868707  1
  Se  Se198  1  0.59730329  0.92352743  0.79676041  1
  Se  Se199  1  0.90909674  0.24324150  0.30732663  1
  Se  Se200  1  0.91734885  0.24869146  0.80310446  1
  Se  Se201  1  0.91909268  0.58704611  0.30590429  1
  Se  Se202  1  0.91367517  0.58553743  0.79938201  1
  Se  Se203  1  0.90520645  0.91676972  0.30987071  1
  Se  Se204  1  0.92285119  0.91402121  0.80021425  1
  Se  Se205  1  0.08691725  0.09332733  0.31384040  1
  Se  Se206  1  0.09159691  0.09341030  0.80142896  1
  Se  Se207  1  0.09504172  0.42957241  0.31729662  1
  Se  Se208  1  0.07805483  0.41532330  0.79332966  1
  Se  Se209  1  0.08822495  0.75702632  0.30442521  1
  Se  Se210  1  0.08081365  0.74582047  0.80390362  1
  Se  Se211  1  0.41099100  0.08132099  0.30476804  1
  Se  Se212  1  0.43114586  0.09863792  0.80516100  1
  Se  Se213  1  0.41214703  0.41235298  0.30668313  1
  Se  Se214  1  0.42128867  0.42112528  0.80044328  1
  Se  Se215  1  0.41421190  0.74629364  0.30053345  1
  Se  Se216  1  0.40407106  0.74551263  0.80393285  1
  Se  Se217  1  0.74667884  0.08769675  0.31216799  1
  Se  Se218  1  0.75396685  0.08385359  0.79907566  1
  Se  Se219  1  0.75034132  0.41561908  0.30557650  1
  Se  Se220  1  0.74548029  0.41751823  0.79690823  1
  Se  Se221  1  0.75274013  0.75769841  0.30777036  1
  Se  Se222  1  0.75305410  0.75615542  0.81298577  1
  Se  Se223  1  0.24970641  0.08322566  0.19461822  1
  Se  Se224  1  0.27100637  0.07756370  0.70313321  1
  Se  Se225  1  0.24731786  0.41357277  0.19716379  1
  Se  Se226  1  0.25448738  0.41675363  0.69749947  1
  Se  Se227  1  0.25401736  0.74907316  0.19398441  1
  Se  Se228  1  0.24956960  0.75032787  0.70187445  1
  Se  Se229  1  0.56818765  0.09435328  0.18761168  1
  Se  Se230  1  0.58998040  0.08877440  0.69664849  1
  Se  Se231  1  0.58479570  0.41135725  0.20221141  1
  Se  Se232  1  0.58628842  0.42138537  0.68800327  1
  Se  Se233  1  0.58090163  0.75944397  0.18668901  1
  Se  Se234  1  0.57386422  0.75619106  0.69576546  1
  Se  Se235  1  0.90779588  0.09043027  0.19040399  1
  Se  Se236  1  0.92289278  0.07812927  0.70031820  1
  Se  Se237  1  0.90990732  0.42546249  0.19172960  1
  Se  Se238  1  0.91914655  0.41363508  0.69725627  1
  Se  Se239  1  0.92440707  0.75624623  0.20300430  1
  Se  Se240  1  0.91118824  0.74388949  0.69377152  1
  Se  Se241  1  0.08308711  0.24372622  0.19208279  1
  Se  Se242  1  0.09593353  0.23737701  0.71019930  1
  Se  Se243  1  0.08695075  0.58620878  0.20093778  1
  Se  Se244  1  0.07909549  0.58654004  0.69768948  1
  Se  Se245  1  0.09249290  0.91726646  0.18639119  1
  Se  Se246  1  0.08517567  0.91503073  0.69653409  1
  Se  Se247  1  0.41017312  0.25329953  0.19661498  1
  Se  Se248  1  0.42339581  0.25729718  0.69061947  1
  Se  Se249  1  0.42199407  0.57936854  0.19894054  1
  Se  Se250  1  0.41493652  0.58689321  0.69515948  1
  Se  Se251  1  0.41330705  0.91890800  0.19233715  1
  Se  Se252  1  0.42382358  0.91720218  0.70925724  1
  Se  Se253  1  0.74267434  0.25285098  0.19581586  1
  Se  Se254  1  0.75257507  0.25296997  0.69433856  1
  Se  Se255  1  0.75826274  0.58007131  0.18870679  1
  Se  Se256  1  0.75161011  0.57697130  0.68289082  1
  Se  Se257  1  0.76059564  0.90944878  0.19430615  1
  Se  Se258  1  0.74986024  0.91429398  0.69879912  1
