# generated using pymatgen
data_In86Cu29Se144
_symmetry_space_group_name_H-M   'P 1'
_cell_length_a   17.59891164
_cell_length_b   17.59751634
_cell_length_c   23.44987052
_cell_angle_alpha   89.99888964
_cell_angle_beta   89.96141686
_cell_angle_gamma   89.98771646
_symmetry_Int_Tables_number   1
_chemical_formula_structural   In86Cu29Se144
_chemical_formula_sum   'In86 Cu29 Se144'
_cell_volume   7262.35590108
_cell_formula_units_Z   1
loop_
 _symmetry_equiv_pos_site_id
 _symmetry_equiv_pos_as_xyz
  1  'x, y, z'
loop_
 _atom_site_type_symbol
 _atom_site_label
 _atom_site_symmetry_multiplicity
 _atom_site_fract_x
 _atom_site_fract_y
 _atom_site_fract_z
 _atom_site_occupancy
  In  In0  1  0.01013157  0.16211172  0.14031417  1
  In  In1  1  -0.01344182  0.15338459  0.61688655  1
  In  In2  1  0.00005353  0.49670267  0.12415625  1
  In  In3  1  -0.00997046  0.50648336  0.62522423  1
  In  In4  1  0.01081766  0.84097108  0.12186674  1
  In  In5  1  0.01080586  0.84934144  0.61763020  1
  In  In6  1  0.34950960  0.15525994  0.14427868  1
  In  In7  1  0.34038438  0.16994196  0.60469786  1
  In  In8  1  0.32433727  0.50920409  0.13005236  1
  In  In9  1  0.31983533  0.49510221  0.62655871  1
  In  In10  1  0.33502477  0.83672150  0.12442755  1
  In  In11  1  0.32927309  0.84847017  0.60262632  1
  In  In12  1  0.65961949  0.17195186  0.12694356  1
  In  In13  1  0.65431839  0.15608438  0.61276723  1
  In  In14  1  0.68133488  0.50608103  0.12329494  1
  In  In15  1  0.67154685  0.48815756  0.62250354  1
  In  In16  1  0.65618636  0.82598265  0.12195724  1
  In  In17  1  0.67885284  0.84167269  0.61953449  1
  In  In18  1  0.16687182  0.00313835  0.37719150  1
  In  In19  1  0.15838445  -0.00812369  0.86849628  1
  In  In20  1  0.16374800  0.33174420  0.37406003  1
  In  In21  1  0.17797358  0.32407885  0.87551414  1
  In  In22  1  0.17959468  0.66889064  0.36947945  1
  In  In23  1  0.16114175  0.67324141  0.88930229  1
  In  In24  1  0.46921590  0.02054812  0.39924382  1
  In  In25  1  0.50632580  -0.00779833  0.88124084  1
  In  In26  1  0.48542480  0.32167370  0.37606178  1
  In  In27  1  0.48438053  0.32777430  0.87714987  1
  In  In28  1  0.50104621  0.67342197  0.36396834  1
  In  In29  1  0.50591478  0.67212102  0.87981319  1
  In  In30  1  0.83541329  -0.00266918  0.37969208  1
  In  In31  1  0.82789363  -0.00742267  0.86430381  1
  In  In32  1  0.84220457  0.32238515  0.38838198  1
  In  In33  1  0.83941570  0.33851359  0.87660465  1
  In  In34  1  0.82465789  0.67936880  0.37882097  1
  In  In35  1  0.83812427  0.66376812  0.88358031  1
  In  In36  1  0.00192758  0.16780161  0.37765683  1
  In  In37  1  0.01350524  0.15857723  0.86837393  1
  In  In38  1  -0.00017784  0.48964269  0.37186791  1
  In  In39  1  -0.00498733  0.50477120  0.88548838  1
  In  In40  1  -0.01025910  0.84312140  0.37675982  1
  In  In41  1  0.00108733  0.83152675  0.87777756  1
  In  In42  1  0.32802907  0.15960013  0.38387736  1
  In  In43  1  0.33331739  0.17446826  0.87344026  1
  In  In44  1  0.33082199  0.49688632  0.36301808  1
  In  In45  1  0.33623656  0.48809202  0.88040054  1
  In  In46  1  0.33190125  0.83811438  0.37453831  1
  In  In47  1  0.33021084  0.83471267  0.88857827  1
  In  In48  1  0.66329606  0.17573060  0.38909565  1
  In  In49  1  0.66823054  0.14973810  0.87292501  1
  In  In50  1  0.66495873  0.51382658  0.37296227  1
  In  In51  1  0.67090947  0.50794846  0.87857162  1
  In  In52  1  0.66342969  0.83102768  0.37539848  1
  In  In53  1  0.66507698  0.84082697  0.87934897  1
  In  In54  1  0.17616220  -0.00325953  0.13363420  1
  In  In55  1  0.15680985  -0.00876020  0.60960249  1
  In  In56  1  0.16682634  0.33478830  0.13266368  1
  In  In57  1  0.18324383  0.32735933  0.62299217  1
  In  In58  1  0.19035204  0.68077149  0.10757681  1
  In  In59  1  0.15539195  0.67528611  0.62468396  1
  In  In60  1  0.49677014  -0.00696109  0.12343260  1
  In  In61  1  0.50616322  0.00520647  0.61512913  1
  In  In62  1  0.49662086  0.31847106  0.12694258  1
  In  In63  1  0.49280954  0.31457461  0.61410196  1
  In  In64  1  0.48132908  0.68977751  0.13942536  1
  In  In65  1  0.48405094  0.67429827  0.62176039  1
  In  In66  1  0.84953668  -0.00076099  0.12953672  1
  In  In67  1  0.83318172  -0.00339181  0.62588528  1
  In  In68  1  0.83574209  0.34732555  0.12840736  1
  In  In69  1  0.82489743  0.33570210  0.60959103  1
  In  In70  1  0.82762040  0.66493327  0.12398673  1
  In  In71  1  0.82829329  0.66377932  0.61967314  1
  In  In72  1  0.16366059  0.50150111  0.49151302  1
  In  In73  1  0.66123638  0.00025979  0.25752042  1
  In  In74  1  0.66436381  0.32436516  0.74755640  1
  In  In75  1  0.50553595  0.49911937  0.49627076  1
  In  In76  1  0.66675288  0.66788897  0.74851018  1
  In  In77  1  0.83284637  0.16553515  -0.00059029  1
  In  In78  1  -0.00129072  0.32937247  0.74406096  1
  In  In79  1  0.49998314  0.50806212  0.00355693  1
  In  In80  1  0.33050857  0.00025206  0.74141750  1
  In  In81  1  0.17036746  0.16360284  0.00078906  1
  In  In82  1  0.00610739  0.66771559  0.24016097  1
  In  In83  1  0.32536155  0.67060704  0.75080714  1
  In  In84  1  0.66480497  0.33773915  0.26005906  1
  In  In85  1  -0.00224531  0.66738523  0.75865041  1
  Cu  Cu86  1  0.83905578  0.17272388  0.25751631  1
  Cu  Cu87  1  0.16843950  0.83877304  0.24723266  1
  Cu  Cu88  1  0.00511088  0.33390204  0.49940802  1
  Cu  Cu89  1  0.00020445  -0.00698530  -0.00152971  1
  Cu  Cu90  1  -0.00205327  0.66514970  0.00665068  1
  Cu  Cu91  1  0.83214373  0.15865422  0.74294865  1
  Cu  Cu92  1  0.17174001  0.50145145  0.24720844  1
  Cu  Cu93  1  0.66806008  0.66691500  0.49716304  1
  Cu  Cu94  1  -0.00479217  0.00274669  0.49652820  1
  Cu  Cu95  1  0.50338928  0.84056771  0.75187399  1
  Cu  Cu96  1  0.16894853  0.49168389  0.75588561  1
  Cu  Cu97  1  0.50377666  0.49873994  0.24971664  1
  Cu  Cu98  1  0.82884043  0.83746122  0.25534710  1
  Cu  Cu99  1  0.49104902  0.84098096  0.25317494  1
  Cu  Cu100  1  0.49603392  0.16002367  0.73926473  1
  Cu  Cu101  1  -0.00455375  0.33696772  0.00619523  1
  Cu  Cu102  1  0.33391103  0.00134784  0.00775999  1
  Cu  Cu103  1  0.66280547  0.33408306  0.00610987  1
  Cu  Cu104  1  0.33213661  0.67232022  0.49281515  1
  Cu  Cu105  1  0.67105128  -0.00810673  0.49889598  1
  Cu  Cu106  1  0.16802256  0.17000904  0.25959314  1
  Cu  Cu107  1  0.49227565  0.48626087  0.75289921  1
  Cu  Cu108  1  0.84158970  0.83175284  0.74773213  1
  Cu  Cu109  1  0.17009547  0.15887357  0.74463371  1
  Cu  Cu110  1  -0.00368054  0.67447788  0.50154326  1
  Cu  Cu111  1  0.33117398  0.32792434  0.00287387  1
  Cu  Cu112  1  0.83827160  0.50326081  0.24849238  1
  Cu  Cu113  1  0.66841356  0.67274410  0.00185897  1
  Cu  Cu114  1  0.66771191  -0.00218587  -0.00104623  1
  Se  Se115  1  0.07673882  0.07628430  0.05981748  1
  Se  Se116  1  0.08040008  0.08735416  0.54736748  1
  Se  Se117  1  0.08622294  0.41178162  0.05867612  1
  Se  Se118  1  0.08052322  0.41621884  0.56264550  1
  Se  Se119  1  0.08401986  0.75254218  0.05240442  1
  Se  Se120  1  0.08535568  0.75575566  0.54977516  1
  Se  Se121  1  0.41579063  0.08643938  0.05947115  1
  Se  Se122  1  0.42289921  0.07936013  0.54456552  1
  Se  Se123  1  0.41333211  0.41128760  0.06038664  1
  Se  Se124  1  0.40859901  0.41702438  0.55681081  1
  Se  Se125  1  0.41835016  0.75479240  0.05536224  1
  Se  Se126  1  0.41571618  0.75462581  0.54623610  1
  Se  Se127  1  0.74558844  0.07612675  0.06317453  1
  Se  Se128  1  0.75191386  0.07688092  0.55428924  1
  Se  Se129  1  0.75214039  0.41596610  0.05270231  1
  Se  Se130  1  0.75306456  0.42975163  0.54443061  1
  Se  Se131  1  0.75249080  0.75538057  0.05562341  1
  Se  Se132  1  0.75161517  0.75007527  0.55118654  1
  Se  Se133  1  0.25729813  0.24603610  0.06652308  1
  Se  Se134  1  0.25027754  0.25475632  0.54370398  1
  Se  Se135  1  0.25114798  0.57284501  0.04852747  1
  Se  Se136  1  0.25249015  0.59357161  0.55577759  1
  Se  Se137  1  0.24632760  0.91867309  0.05633585  1
  Se  Se138  1  0.26001015  0.94348889  0.53749158  1
  Se  Se139  1  0.58010985  0.24629946  0.05237409  1
  Se  Se140  1  0.59921139  0.26416778  0.55076431  1
  Se  Se141  1  0.58699398  0.59658441  0.06538213  1
  Se  Se142  1  0.58778685  0.59295439  0.56283079  1
  Se  Se143  1  0.58296176  0.91682109  0.05343883  1
  Se  Se144  1  0.58459203  0.91035103  0.55214682  1
  Se  Se145  1  0.92236458  0.24910546  0.06535463  1
  Se  Se146  1  0.91834394  0.25199030  0.55163823  1
  Se  Se147  1  0.91444483  0.58128272  0.05889730  1
  Se  Se148  1  0.91585771  0.58514477  0.55108098  1
  Se  Se149  1  0.91567699  0.91431557  0.05412660  1
  Se  Se150  1  0.91409943  0.91759358  0.55227880  1
  Se  Se151  1  0.08741366  0.25012582  0.44685550  1
  Se  Se152  1  0.07302312  0.25531519  0.94427409  1
  Se  Se153  1  0.07333630  0.59649771  0.43566749  1
  Se  Se154  1  0.08197784  0.58136681  0.95261916  1
  Se  Se155  1  0.07911665  0.91890556  0.44373441  1
  Se  Se156  1  0.08802754  0.91369635  0.94568787  1
  Se  Se157  1  0.41581122  0.24225120  0.45068421  1
  Se  Se158  1  0.41463790  0.24285252  0.95098002  1
  Se  Se159  1  0.41062778  0.58634814  0.43674808  1
  Se  Se160  1  0.40778190  0.59325121  0.94191341  1
  Se  Se161  1  0.43347908  0.89239685  0.44431248  1
  Se  Se162  1  0.41739810  0.91967660  0.95078208  1
  Se  Se163  1  0.75056389  0.25207753  0.45522408  1
  Se  Se164  1  0.74025779  0.25614110  0.93957674  1
  Se  Se165  1  0.75215276  0.58401065  0.44519873  1
  Se  Se166  1  0.74995452  0.58400868  0.95107644  1
  Se  Se167  1  0.75172518  0.90938375  0.44333999  1
  Se  Se168  1  0.75577981  0.92025104  0.94470704  1
  Se  Se169  1  0.25886988  0.06303823  0.45209692  1
  Se  Se170  1  0.25634852  0.07228773  0.93761466  1
  Se  Se171  1  0.26117200  0.41290150  0.44100346  1
  Se  Se172  1  0.24839039  0.40970342  0.94849418  1
  Se  Se173  1  0.24446514  0.75502799  0.44400904  1
  Se  Se174  1  0.25280784  0.74723217  0.95332827  1
  Se  Se175  1  0.58722535  0.07918976  0.45039175  1
  Se  Se176  1  0.58406060  0.08375331  0.94831522  1
  Se  Se177  1  0.58799880  0.40965407  0.43236207  1
  Se  Se178  1  0.58479883  0.41121878  0.94020288  1
  Se  Se179  1  0.58108585  0.74255454  0.44185121  1
  Se  Se180  1  0.58495613  0.75508995  0.94779923  1
  Se  Se181  1  0.91254169  0.08875670  0.44528081  1
  Se  Se182  1  0.92463667  0.07770545  0.93818592  1
  Se  Se183  1  0.92145337  0.42029962  0.44901365  1
  Se  Se184  1  0.91157000  0.41776141  0.95136904  1
  Se  Se185  1  0.91293924  0.75624225  0.44623841  1
  Se  Se186  1  0.91981388  0.74964204  0.94816631  1
  Se  Se187  1  0.25411553  0.24933618  0.31248595  1
  Se  Se188  1  0.24872275  0.24446732  0.79911918  1
  Se  Se189  1  0.25500864  0.58832323  0.29655892  1
  Se  Se190  1  0.24271234  0.57773444  0.81551113  1
  Se  Se191  1  0.24755191  0.91973733  0.30581927  1
  Se  Se192  1  0.25203215  0.90568152  0.80631593  1
  Se  Se193  1  0.57660092  0.23707058  0.30804531  1
  Se  Se194  1  0.57133442  0.23745175  0.80779074  1
  Se  Se195  1  0.58547841  0.58685715  0.29832467  1
  Se  Se196  1  0.57163233  0.57317747  0.80661117  1
  Se  Se197  1  0.56709237  0.91861948  0.31765677  1
  Se  Se198  1  0.58775856  0.92083194  0.80511840  1
  Se  Se199  1  0.92195390  0.25749253  0.30889261  1
  Se  Se200  1  0.90807763  0.23779141  0.80720166  1
  Se  Se201  1  0.91651555  0.58756810  0.30873966  1
  Se  Se202  1  0.90490363  0.57015864  0.80793149  1
  Se  Se203  1  0.91382511  0.92310486  0.30242113  1
  Se  Se204  1  0.92387810  0.91276109  0.80428809  1
  Se  Se205  1  0.08215261  0.08391888  0.30792161  1
  Se  Se206  1  0.08498710  0.07607070  0.79517450  1
  Se  Se207  1  0.08943389  0.41995061  0.30239849  1
  Se  Se208  1  0.08205198  0.41609483  0.81390106  1
  Se  Se209  1  0.08643119  0.75805631  0.30709254  1
  Se  Se210  1  0.09777442  0.75590587  0.80679845  1
  Se  Se211  1  0.40813934  0.07876087  0.31096805  1
  Se  Se212  1  0.42044549  0.08354091  0.80731771  1
  Se  Se213  1  0.42290194  0.41406935  0.30259098  1
  Se  Se214  1  0.40640596  0.40602659  0.80381914  1
  Se  Se215  1  0.40710320  0.75065977  0.30101726  1
  Se  Se216  1  0.42277282  0.75820238  0.80905317  1
  Se  Se217  1  0.75237861  0.09546875  0.31370893  1
  Se  Se218  1  0.74636266  0.07846390  0.79695574  1
  Se  Se219  1  0.76317259  0.42391069  0.31425959  1
  Se  Se220  1  0.75107659  0.41960538  0.80713367  1
  Se  Se221  1  0.74482480  0.75074682  0.30241699  1
  Se  Se222  1  0.75996372  0.75347782  0.80982479  1
  Se  Se223  1  0.24759088  0.08502209  0.20383951  1
  Se  Se224  1  0.24633833  0.08740122  0.67675666  1
  Se  Se225  1  0.25669212  0.41383683  0.19856239  1
  Se  Se226  1  0.25034766  0.41072488  0.70052872  1
  Se  Se227  1  0.24914943  0.75360073  0.19316203  1
  Se  Se228  1  0.25242584  0.76161883  0.68110602  1
  Se  Se229  1  0.57449999  0.08940917  0.19448592  1
  Se  Se230  1  0.58484810  0.07824421  0.69201489  1
  Se  Se231  1  0.58428561  0.42127780  0.18678174  1
  Se  Se232  1  0.57185127  0.41439419  0.68821034  1
  Se  Se233  1  0.58149134  0.75863869  0.20332456  1
  Se  Se234  1  0.57603168  0.75649741  0.68907414  1
  Se  Se235  1  0.91724097  0.08424368  0.20395100  1
  Se  Se236  1  0.92074631  0.07501692  0.69636222  1
  Se  Se237  1  0.92299595  0.41776673  0.20011365  1
  Se  Se238  1  0.90341467  0.41788508  0.69000609  1
  Se  Se239  1  0.90979020  0.76209891  0.19019469  1
  Se  Se240  1  0.91774485  0.75123099  0.68644326  1
  Se  Se241  1  0.08566883  0.25394648  0.20400247  1
  Se  Se242  1  0.08770077  0.23956620  0.68479984  1
  Se  Se243  1  0.10012237  0.58285688  0.18196644  1
  Se  Se244  1  0.09099651  0.57395419  0.69630671  1
  Se  Se245  1  0.08002509  0.92197040  0.19843763  1
  Se  Se246  1  0.09711127  0.91418989  0.69148952  1
  Se  Se247  1  0.41523015  0.25869719  0.20517556  1
  Se  Se248  1  0.41112913  0.24209669  0.68810480  1
  Se  Se249  1  0.41809700  0.58124970  0.19721426  1
  Se  Se250  1  0.41853745  0.57484420  0.69371005  1
  Se  Se251  1  0.41063231  0.92297267  0.19669347  1
  Se  Se252  1  0.42174735  0.90835864  0.68441272  1
  Se  Se253  1  0.75693733  0.24792480  0.19463770  1
  Se  Se254  1  0.75508375  0.24103373  0.68405369  1
  Se  Se255  1  0.75136690  0.58655054  0.19999547  1
  Se  Se256  1  0.75575403  0.57306099  0.69418762  1
  Se  Se257  1  0.74993462  0.91577444  0.19109658  1
  Se  Se258  1  0.75241322  0.91361441  0.69815046  1
