# generated using pymatgen
data_In86Cu29Se144
_symmetry_space_group_name_H-M   'P 1'
_cell_length_a   17.57611972
_cell_length_b   17.57485480
_cell_length_c   23.43741052
_cell_angle_alpha   89.96328367
_cell_angle_beta   89.96451566
_cell_angle_gamma   89.98887944
_symmetry_Int_Tables_number   1
_chemical_formula_structural   In86Cu29Se144
_chemical_formula_sum   'In86 Cu29 Se144'
_cell_volume   7239.76041259
_cell_formula_units_Z   1
loop_
 _symmetry_equiv_pos_site_id
 _symmetry_equiv_pos_as_xyz
  1  'x, y, z'
loop_
 _atom_site_type_symbol
 _atom_site_label
 _atom_site_symmetry_multiplicity
 _atom_site_fract_x
 _atom_site_fract_y
 _atom_site_fract_z
 _atom_site_occupancy
  In  In0  1  0.01498035  0.15626927  0.12839913  1
  In  In1  1  -0.01568970  0.17075340  0.64431936  1
  In  In2  1  -0.01882297  0.49484338  0.12095635  1
  In  In3  1  0.00045422  0.49617578  0.63371909  1
  In  In4  1  0.01159135  0.84157267  0.12706919  1
  In  In5  1  -0.00201661  0.83804893  0.62595048  1
  In  In6  1  0.33039405  0.16610417  0.12155407  1
  In  In7  1  0.32926573  0.16692901  0.63268757  1
  In  In8  1  0.33581229  0.50062498  0.12921450  1
  In  In9  1  0.34314126  0.48781571  0.62480353  1
  In  In10  1  0.34304763  0.82658884  0.13304276  1
  In  In11  1  0.34299312  0.83921107  0.61877595  1
  In  In12  1  0.66337255  0.18017083  0.11812440  1
  In  In13  1  0.68049909  0.15835567  0.63983789  1
  In  In14  1  0.67791124  0.50198007  0.12524792  1
  In  In15  1  0.65174832  0.50177574  0.62215831  1
  In  In16  1  0.65184380  0.83418467  0.12622637  1
  In  In17  1  0.67434420  0.83638912  0.61043393  1
  In  In18  1  0.16130849  -0.00690933  0.37307786  1
  In  In19  1  0.17597302  0.00231827  0.87277133  1
  In  In20  1  0.16524929  0.32975548  0.36654534  1
  In  In21  1  0.16019384  0.32405862  0.87447563  1
  In  In22  1  0.17946288  0.67042019  0.37210857  1
  In  In23  1  0.16316553  0.67867624  0.87632135  1
  In  In24  1  0.48611216  0.00002587  0.37471547  1
  In  In25  1  0.49759682  0.00329121  0.87446337  1
  In  In26  1  0.50071052  0.34457255  0.37357580  1
  In  In27  1  0.48208006  0.31965047  0.86553474  1
  In  In28  1  0.50153623  0.66805758  0.37506357  1
  In  In29  1  0.51529239  0.67392005  0.88656681  1
  In  In30  1  0.83645241  -0.00396051  0.38292610  1
  In  In31  1  0.84114628  0.01806424  0.85327055  1
  In  In32  1  0.82485079  0.31790318  0.38065788  1
  In  In33  1  0.84196428  0.33529326  0.86361425  1
  In  In34  1  0.83294037  0.68044892  0.37419813  1
  In  In35  1  0.82825684  0.65316984  0.87367518  1
  In  In36  1  -0.00503744  0.15942013  0.37355469  1
  In  In37  1  0.00317359  0.17008055  0.87051994  1
  In  In38  1  0.01193081  0.49615307  0.37396146  1
  In  In39  1  -0.01028465  0.48971292  0.86997286  1
  In  In40  1  -0.00936833  0.84946713  0.38358791  1
  In  In41  1  0.00802554  0.83708237  0.86360347  1
  In  In42  1  0.33034337  0.16244922  0.36392203  1
  In  In43  1  0.33295411  0.16799691  0.87943997  1
  In  In44  1  0.34132274  0.51118206  0.36147226  1
  In  In45  1  0.34393451  0.49253639  0.87828912  1
  In  In46  1  0.33580645  0.83216083  0.37775534  1
  In  In47  1  0.33380735  0.84519836  0.87853595  1
  In  In48  1  0.67668343  0.18444837  0.38352166  1
  In  In49  1  0.65637611  0.15846141  0.86109125  1
  In  In50  1  0.64115801  0.49879709  0.38529692  1
  In  In51  1  0.68099714  0.50339272  0.87844843  1
  In  In52  1  0.67498294  0.81986321  0.38757023  1
  In  In53  1  0.65383932  0.83971325  0.87517295  1
  In  In54  1  0.15843477  0.01485065  0.12807742  1
  In  In55  1  0.17157650  -0.00572121  0.63160028  1
  In  In56  1  0.17922700  0.31608725  0.12716000  1
  In  In57  1  0.16823334  0.32757329  0.63407792  1
  In  In58  1  0.17477853  0.67694169  0.12759814  1
  In  In59  1  0.15418571  0.66697451  0.62467228  1
  In  In60  1  0.48975600  -0.01313495  0.11779862  1
  In  In61  1  0.50680576  -0.00675829  0.63166226  1
  In  In62  1  0.49254956  0.32096928  0.11657390  1
  In  In63  1  0.49677268  0.33556568  0.62951440  1
  In  In64  1  0.49169636  0.67575662  0.13082629  1
  In  In65  1  0.51600526  0.66823896  0.60591027  1
  In  In66  1  0.84601919  0.01086800  0.12360589  1
  In  In67  1  0.83309153  -0.00113435  0.62861404  1
  In  In68  1  0.82957140  0.34380469  0.12265347  1
  In  In69  1  0.83664342  0.32325585  0.63508333  1
  In  In70  1  0.83485044  0.65525206  0.12545745  1
  In  In71  1  0.82763407  0.68563866  0.61990686  1
  In  In72  1  0.83087747  0.49953529  0.50530335  1
  In  In73  1  0.16680540  0.49642104  0.00744462  1
  In  In74  1  0.66770074  0.66785927  0.74603064  1
  In  In75  1  0.33436919  0.66248351  0.75459259  1
  In  In76  1  0.82740781  0.83594210  -0.00377100  1
  In  In77  1  0.00595379  0.67009390  0.24848950  1
  In  In78  1  0.66534936  -0.00105232  0.25044919  1
  In  In79  1  0.50044030  0.50221613  0.00480130  1
  In  In80  1  0.83161581  0.17211881  -0.01333751  1
  In  In81  1  0.16397966  0.16327782  0.50916659  1
  In  In82  1  0.66640623  0.33829048  0.25226994  1
  In  In83  1  0.17447489  0.50538833  0.49651783  1
  In  In84  1  0.50814714  0.16303487  0.50380629  1
  In  In85  1  0.17210217  0.83874627  -0.00096246  1
  Cu  Cu86  1  0.16705266  0.16254572  0.75394526  1
  Cu  Cu87  1  0.66428592  0.00362243  -0.00847295  1
  Cu  Cu88  1  -0.00612543  0.32881653  -0.00556515  1
  Cu  Cu89  1  0.49800779  0.49782720  0.74873165  1
  Cu  Cu90  1  -0.00726488  0.66182594  -0.00354536  1
  Cu  Cu91  1  0.17297763  0.84166625  0.25141095  1
  Cu  Cu92  1  0.66649041  -0.00196945  0.50681748  1
  Cu  Cu93  1  0.49583777  0.16346786  0.24353986  1
  Cu  Cu94  1  0.17009849  0.17026056  0.24811094  1
  Cu  Cu95  1  0.49906293  0.50189890  0.24924464  1
  Cu  Cu96  1  0.83393759  0.83997182  0.25646826  1
  Cu  Cu97  1  0.33081738  -0.00608805  0.50203690  1
  Cu  Cu98  1  0.49135705  0.16791847  0.75028287  1
  Cu  Cu99  1  0.33718845  0.00191198  0.00055828  1
  Cu  Cu100  1  0.16407070  0.49220771  0.24560996  1
  Cu  Cu101  1  0.49791946  0.84021411  0.74915114  1
  Cu  Cu102  1  0.16529827  0.82991410  0.74893474  1
  Cu  Cu103  1  0.49866319  0.83041243  0.25396983  1
  Cu  Cu104  1  0.65981898  0.33825857  -0.00527452  1
  Cu  Cu105  1  0.16412887  0.49261105  0.75212090  1
  Cu  Cu106  1  0.83301334  0.83383526  0.74272645  1
  Cu  Cu107  1  -0.00166936  0.33092057  0.50789875  1
  Cu  Cu108  1  0.83662992  0.49887764  0.74954963  1
  Cu  Cu109  1  0.33794674  0.66611696  0.49310111  1
  Cu  Cu110  1  0.84434699  0.16595167  0.25348103  1
  Cu  Cu111  1  -0.00218664  0.68163506  0.50230282  1
  Cu  Cu112  1  0.83183099  0.49859249  0.24977308  1
  Cu  Cu113  1  0.34497108  0.33981245  0.49612247  1
  Cu  Cu114  1  -0.00748498  0.00180226  0.50439185  1
  Se  Se115  1  0.07959003  0.07973219  0.04918329  1
  Se  Se116  1  0.07141283  0.07858720  0.56866838  1
  Se  Se117  1  0.07217089  0.40425593  0.06107237  1
  Se  Se118  1  0.08552823  0.41363650  0.55884010  1
  Se  Se119  1  0.07517607  0.74131817  0.05494499  1
  Se  Se120  1  0.08598779  0.75851645  0.55532855  1
  Se  Se121  1  0.42081532  0.08589244  0.05411377  1
  Se  Se122  1  0.40927866  0.07817847  0.56081147  1
  Se  Se123  1  0.40212241  0.40897010  0.05317733  1
  Se  Se124  1  0.42862877  0.41910204  0.55046524  1
  Se  Se125  1  0.42306507  0.76006898  0.05633895  1
  Se  Se126  1  0.41755798  0.74979973  0.55026683  1
  Se  Se127  1  0.74466801  0.08012410  0.05515628  1
  Se  Se128  1  0.74894726  0.08181999  0.55923676  1
  Se  Se129  1  0.74565117  0.41660447  0.04970238  1
  Se  Se130  1  0.74761205  0.40827270  0.56658720  1
  Se  Se131  1  0.74718122  0.74842089  0.06360114  1
  Se  Se132  1  0.73251529  0.73262823  0.54577083  1
  Se  Se133  1  0.24354753  0.23882779  0.04918419  1
  Se  Se134  1  0.26172681  0.26200742  0.55602428  1
  Se  Se135  1  0.25920932  0.59428401  0.05763582  1
  Se  Se136  1  0.26207954  0.59103568  0.56187656  1
  Se  Se137  1  0.25731642  0.92393609  0.06504454  1
  Se  Se138  1  0.24495718  0.91402481  0.55562509  1
  Se  Se139  1  0.57948448  0.24942968  0.04423151  1
  Se  Se140  1  0.59098920  0.24643863  0.57038314  1
  Se  Se141  1  0.58806895  0.59168781  0.06439764  1
  Se  Se142  1  0.58510335  0.57294157  0.54107021  1
  Se  Se143  1  0.58757037  0.92004920  0.05037633  1
  Se  Se144  1  0.57491777  0.91626419  0.55220825  1
  Se  Se145  1  0.91593571  0.25014413  0.06020787  1
  Se  Se146  1  0.91951406  0.24647700  0.56168891  1
  Se  Se147  1  0.90856212  0.57889551  0.04790776  1
  Se  Se148  1  0.92747246  0.59045237  0.56110741  1
  Se  Se149  1  0.92561929  0.92148120  0.05457482  1
  Se  Se150  1  0.91028509  0.91385435  0.55564798  1
  Se  Se151  1  0.08051394  0.25527718  0.44494536  1
  Se  Se152  1  0.08064994  0.24450741  0.94747917  1
  Se  Se153  1  0.07647723  0.59843484  0.44259335  1
  Se  Se154  1  0.07877947  0.58305059  0.93993634  1
  Se  Se155  1  0.08214888  0.92342713  0.45130503  1
  Se  Se156  1  0.07759211  0.92230179  0.94042123  1
  Se  Se157  1  0.41388036  0.24685963  0.43829516  1
  Se  Se158  1  0.41633527  0.25114344  0.94747525  1
  Se  Se159  1  0.41732915  0.57768346  0.44140079  1
  Se  Se160  1  0.41040194  0.59453628  0.94389540  1
  Se  Se161  1  0.41789840  0.91502200  0.44886098  1
  Se  Se162  1  0.42119506  0.91791536  0.94823192  1
  Se  Se163  1  0.75803732  0.24619800  0.46153574  1
  Se  Se164  1  0.73694226  0.25955291  0.93039422  1
  Se  Se165  1  0.74858398  0.58372045  0.43620589  1
  Se  Se166  1  0.74119488  0.59608181  0.94992839  1
  Se  Se167  1  0.75049089  0.91626941  0.45019125  1
  Se  Se168  1  0.75155587  0.93325803  0.93111433  1
  Se  Se169  1  0.25518852  0.08056380  0.44370902  1
  Se  Se170  1  0.24997621  0.08136301  0.94775152  1
  Se  Se171  1  0.25859486  0.41224964  0.43492052  1
  Se  Se172  1  0.25175893  0.40913098  0.94233980  1
  Se  Se173  1  0.24900896  0.75106412  0.44769639  1
  Se  Se174  1  0.26254547  0.74230811  0.94493968  1
  Se  Se175  1  0.59396777  0.07470190  0.43723267  1
  Se  Se176  1  0.58107682  0.08994604  0.94171932  1
  Se  Se177  1  0.60527289  0.38090045  0.44430960  1
  Se  Se178  1  0.57905734  0.41634136  0.93339902  1
  Se  Se179  1  0.57253765  0.75407038  0.44762950  1
  Se  Se180  1  0.59442435  0.75678826  0.95329088  1
  Se  Se181  1  0.91386018  0.08789892  0.44920570  1
  Se  Se182  1  0.92208779  0.07314716  0.93927134  1
  Se  Se183  1  0.92551960  0.41278030  0.44366798  1
  Se  Se184  1  0.90971239  0.41358195  0.94436582  1
  Se  Se185  1  0.91079450  0.75785650  0.44758192  1
  Se  Se186  1  0.92278747  0.74897058  0.93558193  1
  Se  Se187  1  0.25506629  0.25498382  0.29896876  1
  Se  Se188  1  0.24995699  0.24812028  0.80657183  1
  Se  Se189  1  0.24258518  0.58175418  0.29777035  1
  Se  Se190  1  0.24127176  0.57308812  0.81492303  1
  Se  Se191  1  0.25678416  0.92055323  0.30820143  1
  Se  Se192  1  0.25014280  0.91117546  0.80299555  1
  Se  Se193  1  0.57681305  0.23942506  0.30697304  1
  Se  Se194  1  0.57874428  0.25404608  0.79811726  1
  Se  Se195  1  0.58304843  0.58113011  0.30495284  1
  Se  Se196  1  0.57690613  0.57994364  0.80919296  1
  Se  Se197  1  0.58041556  0.91019881  0.31422943  1
  Se  Se198  1  0.58208512  0.92322921  0.80200225  1
  Se  Se199  1  0.91826119  0.25507575  0.30908211  1
  Se  Se200  1  0.90890963  0.23548865  0.80151645  1
  Se  Se201  1  0.91439656  0.57941651  0.30959071  1
  Se  Se202  1  0.91778340  0.58464945  0.80234315  1
  Se  Se203  1  0.91746706  0.92540484  0.30542586  1
  Se  Se204  1  0.91731103  0.91423683  0.79780849  1
  Se  Se205  1  0.08932801  0.08850724  0.30718700  1
  Se  Se206  1  0.08426728  0.07821490  0.80622299  1
  Se  Se207  1  0.07927040  0.41218252  0.29941199  1
  Se  Se208  1  0.07997650  0.41006545  0.80561686  1
  Se  Se209  1  0.08676761  0.76341415  0.31193239  1
  Se  Se210  1  0.08230640  0.74231444  0.79804353  1
  Se  Se211  1  0.41514377  0.07877920  0.29769880  1
  Se  Se212  1  0.41095733  0.08377742  0.80670218  1
  Se  Se213  1  0.41670995  0.41315995  0.29896783  1
  Se  Se214  1  0.40986934  0.41624402  0.79848189  1
  Se  Se215  1  0.41316835  0.74685604  0.30659526  1
  Se  Se216  1  0.42774367  0.75406332  0.81157217  1
  Se  Se217  1  0.75370763  0.09252116  0.31087214  1
  Se  Se218  1  0.74539958  0.08845751  0.79053623  1
  Se  Se219  1  0.75375747  0.42457643  0.31640888  1
  Se  Se220  1  0.74913283  0.42080010  0.80292999  1
  Se  Se221  1  0.74728094  0.75446545  0.30273871  1
  Se  Se222  1  0.75452095  0.75834108  0.80908905  1
  Se  Se223  1  0.25245556  0.08446769  0.19560558  1
  Se  Se224  1  0.25116806  0.08030153  0.69987126  1
  Se  Se225  1  0.25085160  0.41334103  0.19226644  1
  Se  Se226  1  0.25188871  0.41888803  0.69517492  1
  Se  Se227  1  0.25231502  0.75087179  0.20230694  1
  Se  Se228  1  0.24941031  0.75121600  0.68977599  1
  Se  Se229  1  0.58115025  0.08821534  0.18461914  1
  Se  Se230  1  0.57757682  0.08511444  0.69900535  1
  Se  Se231  1  0.57509744  0.41952156  0.18569204  1
  Se  Se232  1  0.58481621  0.41670352  0.69742823  1
  Se  Se233  1  0.58378987  0.74918469  0.20074964  1
  Se  Se234  1  0.57578608  0.75749300  0.68747656  1
  Se  Se235  1  0.92478846  0.08166568  0.19946562  1
  Se  Se236  1  0.92172828  0.06457323  0.70266016  1
  Se  Se237  1  0.91365051  0.41295073  0.19853931  1
  Se  Se238  1  0.92063553  0.41123102  0.70037119  1
  Se  Se239  1  0.91099654  0.76018190  0.19044016  1
  Se  Se240  1  0.91737517  0.74733612  0.69361737  1
  Se  Se241  1  0.08198022  0.25202804  0.19671752  1
  Se  Se242  1  0.08390745  0.24949476  0.70239193  1
  Se  Se243  1  0.08656715  0.57479649  0.18380584  1
  Se  Se244  1  0.08637762  0.58064263  0.69841758  1
  Se  Se245  1  0.08590307  0.92229642  0.19929100  1
  Se  Se246  1  0.08193344  0.91541465  0.69785497  1
  Se  Se247  1  0.41364570  0.25030138  0.19274427  1
  Se  Se248  1  0.41045943  0.25481933  0.69712870  1
  Se  Se249  1  0.41385205  0.58616485  0.19806004  1
  Se  Se250  1  0.42809998  0.58600130  0.68711049  1
  Se  Se251  1  0.41950055  0.91800119  0.20040488  1
  Se  Se252  1  0.40980988  0.91989349  0.69710458  1
  Se  Se253  1  0.75831546  0.24277305  0.19410169  1
  Se  Se254  1  0.75517728  0.24733288  0.70829507  1
  Se  Se255  1  0.74962787  0.58531597  0.20017657  1
  Se  Se256  1  0.75809251  0.57760648  0.68569090  1
  Se  Se257  1  0.75896352  0.91506322  0.18702326  1
  Se  Se258  1  0.74231252  0.91085183  0.69084517  1
