# generated using pymatgen
data_In86Cu29Se144
_symmetry_space_group_name_H-M   'P 1'
_cell_length_a   17.58093150
_cell_length_b   17.57999800
_cell_length_c   23.44143241
_cell_angle_alpha   89.99783433
_cell_angle_beta   89.99201437
_cell_angle_gamma   89.99933123
_symmetry_Int_Tables_number   1
_chemical_formula_structural   In86Cu29Se144
_chemical_formula_sum   'In86 Cu29 Se144'
_cell_volume   7245.10768468
_cell_formula_units_Z   1
loop_
 _symmetry_equiv_pos_site_id
 _symmetry_equiv_pos_as_xyz
  1  'x, y, z'
loop_
 _atom_site_type_symbol
 _atom_site_label
 _atom_site_symmetry_multiplicity
 _atom_site_fract_x
 _atom_site_fract_y
 _atom_site_fract_z
 _atom_site_occupancy
  In  In0  1  -0.00181737  0.17051959  0.12882999  1
  In  In1  1  -0.00216431  0.16674961  0.62297881  1
  In  In2  1  -0.01399788  0.49362189  0.12647305  1
  In  In3  1  0.00180644  0.49519814  0.62905997  1
  In  In4  1  -0.00606022  0.84620403  0.12062308  1
  In  In5  1  -0.02380995  0.85351852  0.64388664  1
  In  In6  1  0.33479757  0.15194856  0.13202667  1
  In  In7  1  0.33327683  0.16864661  0.62533279  1
  In  In8  1  0.35566630  0.49425919  0.12873806  1
  In  In9  1  0.33558823  0.50517194  0.60827475  1
  In  In10  1  0.34098179  0.83111431  0.13581895  1
  In  In11  1  0.35129994  0.84304134  0.62118088  1
  In  In12  1  0.66917250  0.16415550  0.12782072  1
  In  In13  1  0.66032486  0.13990824  0.62869617  1
  In  In14  1  0.65837606  0.51357137  0.13184191  1
  In  In15  1  0.65842306  0.50849371  0.62300588  1
  In  In16  1  0.66480339  0.83098438  0.12712024  1
  In  In17  1  0.66375383  0.83538713  0.63117738  1
  In  In18  1  0.18807387  -0.00000031  0.38642239  1
  In  In19  1  0.16333637  0.00555307  0.86400830  1
  In  In20  1  0.16224757  0.33680289  0.37756164  1
  In  In21  1  0.16212591  0.34037604  0.87487080  1
  In  In22  1  0.16519926  0.65504689  0.38122895  1
  In  In23  1  0.16958014  0.67779835  0.86734724  1
  In  In24  1  0.49683548  -0.00321935  0.36663603  1
  In  In25  1  0.52366508  0.02690612  0.83212497  1
  In  In26  1  0.51657005  0.32317278  0.37401362  1
  In  In27  1  0.50135425  0.33459044  0.88545628  1
  In  In28  1  0.50166952  0.67077905  0.37683842  1
  In  In29  1  0.51488724  0.65956863  0.87297756  1
  In  In30  1  0.82665758  0.00647350  0.38294521  1
  In  In31  1  0.83251184  0.00074675  0.87110475  1
  In  In32  1  0.82427337  0.31933370  0.36776000  1
  In  In33  1  0.83190536  0.31976488  0.87471763  1
  In  In34  1  0.82983817  0.67820261  0.37938354  1
  In  In35  1  0.83136864  0.67810292  0.86060141  1
  In  In36  1  -0.00896287  0.17359218  0.38445508  1
  In  In37  1  -0.01682807  0.15324913  0.86169971  1
  In  In38  1  0.01030165  0.49526383  0.38065851  1
  In  In39  1  0.00111944  0.49902342  0.86431287  1
  In  In40  1  -0.00859328  0.82187339  0.38422728  1
  In  In41  1  -0.02020899  0.82415143  0.85214195  1
  In  In42  1  0.34181607  0.13193155  0.38403317  1
  In  In43  1  0.35085480  0.16055794  0.87703159  1
  In  In44  1  0.32563174  0.50785426  0.37886610  1
  In  In45  1  0.35207878  0.51138229  0.87556834  1
  In  In46  1  0.35395657  0.84841664  0.37180105  1
  In  In47  1  0.33100728  0.83740964  0.86997791  1
  In  In48  1  0.66641856  0.16980739  0.36457892  1
  In  In49  1  0.67150963  0.15961814  0.88901691  1
  In  In50  1  0.65795705  0.49216098  0.37417052  1
  In  In51  1  0.65017539  0.50905680  0.87399194  1
  In  In52  1  0.66635858  0.83143951  0.37493178  1
  In  In53  1  0.69676357  0.86937882  0.82688600  1
  In  In54  1  0.16755063  0.00871611  0.13064778  1
  In  In55  1  0.16549099  0.00755974  0.62405348  1
  In  In56  1  0.15818505  0.32114156  0.13257611  1
  In  In57  1  0.15968142  0.32625963  0.61404344  1
  In  In58  1  0.17155969  0.68074022  0.12735808  1
  In  In59  1  0.16365155  0.65565885  0.62011144  1
  In  In60  1  0.50304616  0.00412442  0.12819841  1
  In  In61  1  0.51457294  -0.00994427  0.64627738  1
  In  In62  1  0.51149358  0.33981252  0.12374822  1
  In  In63  1  0.48809397  0.33038597  0.62152919  1
  In  In64  1  0.50616932  0.66345106  0.12979957  1
  In  In65  1  0.50781138  0.67315445  0.62018077  1
  In  In66  1  0.81365621  -0.01390464  0.10706884  1
  In  In67  1  0.82621644  -0.00285097  0.62560498  1
  In  In68  1  0.84094194  0.32028040  0.13125410  1
  In  In69  1  0.84633406  0.33313648  0.62584056  1
  In  In70  1  0.82001114  0.66610597  0.12620213  1
  In  In71  1  0.80721326  0.68963629  0.64671117  1
  In  In72  1  0.16581809  0.83806685  -0.01085515  1
  In  In73  1  0.33332296  0.33271048  0.25548160  1
  In  In74  1  0.00177673  0.00378228  0.25389011  1
  In  In75  1  0.50167021  0.16081614  0.50202298  1
  In  In76  1  0.66789500  0.33739233  0.75270977  1
  In  In77  1  0.51147103  0.84407678  -0.01309973  1
  In  In78  1  0.16466879  0.16754404  0.00727036  1
  In  In79  1  0.83629165  0.50484568  0.50674449  1
  In  In80  1  0.33176303  0.32759232  0.74785519  1
  In  In81  1  0.17485559  0.50150321  -0.00539733  1
  In  In82  1  -0.00224406  0.65940354  0.25791882  1
  In  In83  1  0.33159631  0.66578969  0.73882675  1
  In  In84  1  0.82605608  0.49868256  0.00363961  1
  In  In85  1  0.16263373  0.82919683  0.50612229  1
  Cu  Cu86  1  0.33573496  -0.00132725  0.00420702  1
  Cu  Cu87  1  0.00014526  0.33118574  0.00002498  1
  Cu  Cu88  1  0.34974016  0.33216508  0.00367114  1
  Cu  Cu89  1  0.66715901  -0.00923178  0.50319986  1
  Cu  Cu90  1  0.18036617  0.83294926  0.25693930  1
  Cu  Cu91  1  0.82997549  0.48924437  0.25006506  1
  Cu  Cu92  1  0.16600494  0.49167531  0.74530338  1
  Cu  Cu93  1  -0.00797494  0.67653903  -0.01351611  1
  Cu  Cu94  1  0.82884293  0.83388324  0.24992117  1
  Cu  Cu95  1  -0.00311004  -0.00005916  0.50792755  1
  Cu  Cu96  1  0.35084244  0.65949001  0.00454097  1
  Cu  Cu97  1  0.83807863  0.50046786  0.74793916  1
  Cu  Cu98  1  0.50520895  0.83250281  0.25017680  1
  Cu  Cu99  1  0.16071036  0.83427219  0.74477048  1
  Cu  Cu100  1  0.67237248  0.32612714  0.49560663  1
  Cu  Cu101  1  0.66171125  0.67288348  0.50457523  1
  Cu  Cu102  1  0.16227614  0.17411495  0.74275228  1
  Cu  Cu103  1  0.33014984  0.33724959  0.49547897  1
  Cu  Cu104  1  0.83083020  0.15931100  0.25040090  1
  Cu  Cu105  1  0.49916048  0.50977182  0.25266382  1
  Cu  Cu106  1  0.83192936  0.16657213  0.74658180  1
  Cu  Cu107  1  0.66991428  0.67637899  0.00062868  1
  Cu  Cu108  1  0.16457539  0.50024077  0.25471678  1
  Cu  Cu109  1  0.66453345  0.33116498  0.00429470  1
  Cu  Cu110  1  0.16843214  0.16516307  0.25745548  1
  Cu  Cu111  1  0.33530879  0.67193038  0.49842993  1
  Cu  Cu112  1  -0.01050470  0.66875553  0.51055061  1
  Cu  Cu113  1  -0.00087584  0.33392832  0.50209532  1
  Cu  Cu114  1  -0.01427754  -0.00387699  -0.00914571  1
  Se  Se115  1  0.06829697  0.06829971  0.05660698  1
  Se  Se116  1  0.08308142  0.08656378  0.55296340  1
  Se  Se117  1  0.08179486  0.41255001  0.05732513  1
  Se  Se118  1  0.08084247  0.42247504  0.55204359  1
  Se  Se119  1  0.07553859  0.74704533  0.05299035  1
  Se  Se120  1  0.06703564  0.75286050  0.56997966  1
  Se  Se121  1  0.41726067  0.08298337  0.05670654  1
  Se  Se122  1  0.42462078  0.07370797  0.57099470  1
  Se  Se123  1  0.43069625  0.42259345  0.05149188  1
  Se  Se124  1  0.42029082  0.41510969  0.54656692  1
  Se  Se125  1  0.42160021  0.75470987  0.05816871  1
  Se  Se126  1  0.42036606  0.75254527  0.55143954  1
  Se  Se127  1  0.76623503  0.10479998  0.05565381  1
  Se  Se128  1  0.74869858  0.08129929  0.55209530  1
  Se  Se129  1  0.74309852  0.41004339  0.06853699  1
  Se  Se130  1  0.74351952  0.40808386  0.56075618  1
  Se  Se131  1  0.75360846  0.75607703  0.05503039  1
  Se  Se132  1  0.74674427  0.75365548  0.55841733  1
  Se  Se133  1  0.26092364  0.25953896  0.06247731  1
  Se  Se134  1  0.25649990  0.25021780  0.55296548  1
  Se  Se135  1  0.25948506  0.58797653  0.06273911  1
  Se  Se136  1  0.24597064  0.58650104  0.54414365  1
  Se  Se137  1  0.25207810  0.91919128  0.06172161  1
  Se  Se138  1  0.25662250  0.92384297  0.55610797  1
  Se  Se139  1  0.58338994  0.24581565  0.05723998  1
  Se  Se140  1  0.59370084  0.25111269  0.56311160  1
  Se  Se141  1  0.58848230  0.59150512  0.05384471  1
  Se  Se142  1  0.57803003  0.58108894  0.54837840  1
  Se  Se143  1  0.59444057  0.92734289  0.05662827  1
  Se  Se144  1  0.58016767  0.91829802  0.56179614  1
  Se  Se145  1  0.91974351  0.24756401  0.05406956  1
  Se  Se146  1  0.91410667  0.24876130  0.55152160  1
  Se  Se147  1  0.92445495  0.59435104  0.05517382  1
  Se  Se148  1  0.91038387  0.59509186  0.57549184  1
  Se  Se149  1  0.90880892  0.90738720  0.04412275  1
  Se  Se150  1  0.91166954  0.91430885  0.55600186  1
  Se  Se151  1  0.08376295  0.25198483  0.44819068  1
  Se  Se152  1  0.07772278  0.24970124  0.93922203  1
  Se  Se153  1  0.07147651  0.59018170  0.45249139  1
  Se  Se154  1  0.07914673  0.59312751  0.93717828  1
  Se  Se155  1  0.07494804  0.92226510  0.44238680  1
  Se  Se156  1  0.07073742  0.92111374  0.93013281  1
  Se  Se157  1  0.41203339  0.25199024  0.43896827  1
  Se  Se158  1  0.42481035  0.24111608  0.95092271  1
  Se  Se159  1  0.41628226  0.58610422  0.44415306  1
  Se  Se160  1  0.43480560  0.58098143  0.94944972  1
  Se  Se161  1  0.41824992  0.93325589  0.44662273  1
  Se  Se162  1  0.40929407  0.92751254  0.93609381  1
  Se  Se163  1  0.74972548  0.23923100  0.44251317  1
  Se  Se164  1  0.75230426  0.25237260  0.95194844  1
  Se  Se165  1  0.74158238  0.58860886  0.44489266  1
  Se  Se166  1  0.74711358  0.59103352  0.93912844  1
  Se  Se167  1  0.75115624  0.91113639  0.44637736  1
  Se  Se168  1  0.73819669  0.91372628  0.92620367  1
  Se  Se169  1  0.24679412  0.09048852  0.46024642  1
  Se  Se170  1  0.24944658  0.07701906  0.94414898  1
  Se  Se171  1  0.24399630  0.42166729  0.44569825  1
  Se  Se172  1  0.26921043  0.40775097  0.93985986  1
  Se  Se173  1  0.25415244  0.75208773  0.43733966  1
  Se  Se174  1  0.26489804  0.73670239  0.94520798  1
  Se  Se175  1  0.59361290  0.07653473  0.44025920  1
  Se  Se176  1  0.56996193  0.06901452  0.93081511  1
  Se  Se177  1  0.58400213  0.40976719  0.44860612  1
  Se  Se178  1  0.58857245  0.41910062  0.94921144  1
  Se  Se179  1  0.58085323  0.75546521  0.44735018  1
  Se  Se180  1  0.60091471  0.75206805  0.93195972  1
  Se  Se181  1  0.91567957  0.08208880  0.45048278  1
  Se  Se182  1  0.90891602  0.08963365  0.94351626  1
  Se  Se183  1  0.91363855  0.40887535  0.44090508  1
  Se  Se184  1  0.92285503  0.41526156  0.94124226  1
  Se  Se185  1  0.90650316  0.75140350  0.45692556  1
  Se  Se186  1  0.90814405  0.75723112  0.93529214  1
  Se  Se187  1  0.25149532  0.24076314  0.31878644  1
  Se  Se188  1  0.24174578  0.24197447  0.81298386  1
  Se  Se189  1  0.24664601  0.58637169  0.30420412  1
  Se  Se190  1  0.24604115  0.57203972  0.80668456  1
  Se  Se191  1  0.25721743  0.92396792  0.30708768  1
  Se  Se192  1  0.24346713  0.91285841  0.80187329  1
  Se  Se193  1  0.58095252  0.24716947  0.29537855  1
  Se  Se194  1  0.58429884  0.24936280  0.81698039  1
  Se  Se195  1  0.58608970  0.58688756  0.30820212  1
  Se  Se196  1  0.57215600  0.57189570  0.79503975  1
  Se  Se197  1  0.58791154  0.91557875  0.30388254  1
  Se  Se198  1  0.55889701  0.89539314  0.79197861  1
  Se  Se199  1  0.91751292  0.24165729  0.30264438  1
  Se  Se200  1  0.91463687  0.25404603  0.79767590  1
  Se  Se201  1  0.90513848  0.56982076  0.31647028  1
  Se  Se202  1  0.91905425  0.58636130  0.80090579  1
  Se  Se203  1  0.91325433  0.90794893  0.31128374  1
  Se  Se204  1  0.92393204  0.93626943  0.79737224  1
  Se  Se205  1  0.09049413  0.08476601  0.32064978  1
  Se  Se206  1  0.08063477  0.08704598  0.79572220  1
  Se  Se207  1  0.08064522  0.41518998  0.30387196  1
  Se  Se208  1  0.08201688  0.41022325  0.79901472  1
  Se  Se209  1  0.09093619  0.75665788  0.31197934  1
  Se  Se210  1  0.08214580  0.74529822  0.79576144  1
  Se  Se211  1  0.43407136  0.10174660  0.30368866  1
  Se  Se212  1  0.39033097  0.07021875  0.79716857  1
  Se  Se213  1  0.42314561  0.42439408  0.31412474  1
  Se  Se214  1  0.42472335  0.41756746  0.80695413  1
  Se  Se215  1  0.41958544  0.75143717  0.30455564  1
  Se  Se216  1  0.41581129  0.74364858  0.80975691  1
  Se  Se217  1  0.75035062  0.07543573  0.30406861  1
  Se  Se218  1  0.74945865  0.09387434  0.80763049  1
  Se  Se219  1  0.74441037  0.41223458  0.30611222  1
  Se  Se220  1  0.75848594  0.42730446  0.81501660  1
  Se  Se221  1  0.74914841  0.74702119  0.30331803  1
  Se  Se222  1  0.73198480  0.73453082  0.79154628  1
  Se  Se223  1  0.24974874  0.07958712  0.20512487  1
  Se  Se224  1  0.24815250  0.08952557  0.69421313  1
  Se  Se225  1  0.24338957  0.42270484  0.18931915  1
  Se  Se226  1  0.24965077  0.42019688  0.68276566  1
  Se  Se227  1  0.25680424  0.74567246  0.20185451  1
  Se  Se228  1  0.24237074  0.75925721  0.68078072  1
  Se  Se229  1  0.59312976  0.07640301  0.19646795  1
  Se  Se230  1  0.58445934  0.08619454  0.71335701  1
  Se  Se231  1  0.58050403  0.42451122  0.19912747  1
  Se  Se232  1  0.57346332  0.41759769  0.68928218  1
  Se  Se233  1  0.58831360  0.74691251  0.19801090  1
  Se  Se234  1  0.58565643  0.74211879  0.69666544  1
  Se  Se235  1  0.90826013  0.07785090  0.18737359  1
  Se  Se236  1  0.91289462  0.08432103  0.69049396  1
  Se  Se237  1  0.91970580  0.40962768  0.20069813  1
  Se  Se238  1  0.92044276  0.41295155  0.69976649  1
  Se  Se239  1  0.91704114  0.75483475  0.19251524  1
  Se  Se240  1  0.91973060  0.74497956  0.70354926  1
  Se  Se241  1  0.08023657  0.24315247  0.20508135  1
  Se  Se242  1  0.07902626  0.25667541  0.69053516  1
  Se  Se243  1  0.08738312  0.57798967  0.18810631  1
  Se  Se244  1  0.08567180  0.58190181  0.69619486  1
  Se  Se245  1  0.09347821  0.90575555  0.19573430  1
  Se  Se246  1  0.08439833  0.92661695  0.69542688  1
  Se  Se247  1  0.41917554  0.25067202  0.18842704  1
  Se  Se248  1  0.43038367  0.23628284  0.69823193  1
  Se  Se249  1  0.41321729  0.59058964  0.19950038  1
  Se  Se250  1  0.42151387  0.57281785  0.68432925  1
  Se  Se251  1  0.42156940  0.91972344  0.19847440  1
  Se  Se252  1  0.41365167  0.91307012  0.70461580  1
  Se  Se253  1  0.74984485  0.24949439  0.19989259  1
  Se  Se254  1  0.75024949  0.24609100  0.68669604  1
  Se  Se255  1  0.75331170  0.58192501  0.20115701  1
  Se  Se256  1  0.74490179  0.57378489  0.69754740  1
  Se  Se257  1  0.75075208  0.91707262  0.19285786  1
  Se  Se258  1  0.74717618  0.91894076  0.70037914  1
