# generated using pymatgen
data_In86Cu29Se144
_symmetry_space_group_name_H-M   'P 1'
_cell_length_a   17.57506943
_cell_length_b   17.57687407
_cell_length_c   23.43113188
_cell_angle_alpha   89.99578754
_cell_angle_beta   89.99430654
_cell_angle_gamma   90.00327919
_symmetry_Int_Tables_number   1
_chemical_formula_structural   In86Cu29Se144
_chemical_formula_sum   'In86 Cu29 Se144'
_cell_volume   7238.22292890
_cell_formula_units_Z   1
loop_
 _symmetry_equiv_pos_site_id
 _symmetry_equiv_pos_as_xyz
  1  'x, y, z'
loop_
 _atom_site_type_symbol
 _atom_site_label
 _atom_site_symmetry_multiplicity
 _atom_site_fract_x
 _atom_site_fract_y
 _atom_site_fract_z
 _atom_site_occupancy
  In  In0  1  -0.01639737  0.17440184  0.14061067  1
  In  In1  1  -0.00548052  0.16973860  0.62111240  1
  In  In2  1  0.01098413  0.50675559  0.12098822  1
  In  In3  1  0.01884646  0.49683558  0.62110533  1
  In  In4  1  -0.00019083  0.83381726  0.12746915  1
  In  In5  1  0.00368198  0.81494585  0.63224597  1
  In  In6  1  0.33913494  0.15099664  0.12938523  1
  In  In7  1  0.34456205  0.15402163  0.63190226  1
  In  In8  1  0.31720359  0.51759712  0.12726511  1
  In  In9  1  0.31684745  0.51647296  0.63829317  1
  In  In10  1  0.33577533  0.82625362  0.11118429  1
  In  In11  1  0.32266700  0.84141671  0.63566254  1
  In  In12  1  0.65907311  0.15491504  0.12405235  1
  In  In13  1  0.65078512  0.16728970  0.62347440  1
  In  In14  1  0.68249440  0.49915719  0.12137667  1
  In  In15  1  0.66537226  0.50917581  0.62809526  1
  In  In16  1  0.66474124  0.83559719  0.12355372  1
  In  In17  1  0.68094516  0.83761269  0.63381441  1
  In  In18  1  0.15956057  -0.01080248  0.36604510  1
  In  In19  1  0.17631390  -0.01617712  0.88043978  1
  In  In20  1  0.16876049  0.35167781  0.37304179  1
  In  In21  1  0.17951264  0.32877215  0.87915874  1
  In  In22  1  0.17099790  0.67052203  0.37298530  1
  In  In23  1  0.16482065  0.67749009  0.87569438  1
  In  In24  1  0.50539088  0.01114446  0.36203832  1
  In  In25  1  0.50100564  -0.00357604  0.87491269  1
  In  In26  1  0.48128812  0.32329084  0.37757860  1
  In  In27  1  0.48074387  0.33358420  0.87920825  1
  In  In28  1  0.49870321  0.66923014  0.35907072  1
  In  In29  1  0.48999086  0.68095752  0.88562723  1
  In  In30  1  0.82727125  0.01051505  0.35517788  1
  In  In31  1  0.82648033  0.00395572  0.88820650  1
  In  In32  1  0.85401962  0.32743452  0.36592372  1
  In  In33  1  0.83901262  0.33366576  0.89194513  1
  In  In34  1  0.84154518  0.67587711  0.35889910  1
  In  In35  1  0.84396874  0.66125359  0.89008402  1
  In  In36  1  -0.00640126  0.16778913  0.35248901  1
  In  In37  1  -0.00401765  0.15875623  0.88536652  1
  In  In38  1  0.04197962  0.52872858  0.33891740  1
  In  In39  1  -0.01028135  0.51223467  0.88824965  1
  In  In40  1  0.01134204  0.84004224  0.36663984  1
  In  In41  1  0.02017154  0.81732576  0.89395200  1
  In  In42  1  0.35096307  0.16984711  0.37478799  1
  In  In43  1  0.34400276  0.17223641  0.87643287  1
  In  In44  1  0.31202910  0.49738644  0.37374353  1
  In  In45  1  0.31800702  0.49802507  0.87792244  1
  In  In46  1  0.32592140  0.82225854  0.36802410  1
  In  In47  1  0.32683002  0.83695730  0.87392434  1
  In  In48  1  0.66071395  0.15503801  0.36353070  1
  In  In49  1  0.67307564  0.15571137  0.88336301  1
  In  In50  1  0.66103627  0.50759993  0.36580930  1
  In  In51  1  0.67447418  0.50966659  0.88207454  1
  In  In52  1  0.66903715  0.84105440  0.36073510  1
  In  In53  1  0.65546660  0.84473802  0.88664346  1
  In  In54  1  0.17682174  -0.01585959  0.13095323  1
  In  In55  1  0.18225048  0.00179628  0.62285435  1
  In  In56  1  0.15132420  0.34488586  0.12560009  1
  In  In57  1  0.16311050  0.34771477  0.62490706  1
  In  In58  1  0.16521303  0.66005163  0.12146730  1
  In  In59  1  0.16774784  0.66450389  0.62245248  1
  In  In60  1  0.50262747  0.00102710  0.12321336  1
  In  In61  1  0.49636787  0.00573201  0.62835785  1
  In  In62  1  0.50373276  0.32190109  0.12321541  1
  In  In63  1  0.49981504  0.31434224  0.62301077  1
  In  In64  1  0.47989308  0.68803628  0.13062188  1
  In  In65  1  0.48997698  0.65209273  0.62389622  1
  In  In66  1  0.83281360  0.00167626  0.12782878  1
  In  In67  1  0.83056688  -0.01162654  0.63269245  1
  In  In68  1  0.85522852  0.34183110  0.10416095  1
  In  In69  1  0.83963032  0.33389435  0.62569705  1
  In  In70  1  0.83760447  0.66836445  0.12724109  1
  In  In71  1  0.83808389  0.68312809  0.62900637  1
  In  In72  1  0.47858227  0.48881417  0.49851362  1
  In  In73  1  0.15918065  0.16964611  0.01098012  1
  In  In74  1  0.83619811  0.49157772  0.49609896  1
  In  In75  1  0.67668475  0.33169280  0.24596841  1
  In  In76  1  0.50618500  0.49765344  0.00290407  1
  In  In77  1  0.17637276  0.17026128  0.49548472  1
  In  In78  1  0.66206383  0.33277547  0.74981435  1
  In  In79  1  0.83129946  0.16000699  0.48222921  1
  In  In80  1  0.65695154  0.67726851  0.76046347  1
  In  In81  1  0.00497574  0.33686764  0.75455722  1
  In  In82  1  0.84050173  0.83734518  0.48969887  1
  In  In83  1  0.00600843  -0.00752982  0.76146941  1
  In  In84  1  0.32663271  0.33588606  0.24742344  1
  In  In85  1  0.49644941  0.83841966  0.50162519  1
  Cu  Cu86  1  0.66290051  0.66867657  0.48974641  1
  Cu  Cu87  1  0.49959403  0.50489489  0.24398621  1
  Cu  Cu88  1  0.65685350  0.32615439  0.49658499  1
  Cu  Cu89  1  0.67057919  0.66598910  0.00675716  1
  Cu  Cu90  1  0.32442075  0.66427253  0.49903891  1
  Cu  Cu91  1  0.16040317  0.51123423  0.75355236  1
  Cu  Cu92  1  -0.00304364  0.00184439  0.00973950  1
  Cu  Cu93  1  0.16961868  0.16219268  0.24579484  1
  Cu  Cu94  1  0.49799782  0.83465895  0.75634344  1
  Cu  Cu95  1  0.50388584  0.15957055  0.75197878  1
  Cu  Cu96  1  0.17745312  0.16708085  0.75343661  1
  Cu  Cu97  1  0.48631083  0.49947324  0.75688916  1
  Cu  Cu98  1  0.83821313  0.51002029  0.76277985  1
  Cu  Cu99  1  0.66073622  0.00945623  0.49602973  1
  Cu  Cu100  1  0.66737161  0.32322270  0.00431006  1
  Cu  Cu101  1  0.00305958  0.67194517  0.00664812  1
  Cu  Cu102  1  0.01038090  -0.00906117  0.49483386  1
  Cu  Cu103  1  0.66230543  -0.00536505  0.00424043  1
  Cu  Cu104  1  0.33309764  0.33400531  0.00538074  1
  Cu  Cu105  1  0.01195985  0.65510306  0.49765649  1
  Cu  Cu106  1  0.33608919  -0.00588786  0.49958630  1
  Cu  Cu107  1  0.00566745  0.33749083  0.48701614  1
  Cu  Cu108  1  0.83361874  0.83579128  0.76168968  1
  Cu  Cu109  1  0.82871924  0.83261577  0.24218612  1
  Cu  Cu110  1  0.84256664  0.49943397  0.23641934  1
  Cu  Cu111  1  0.82942022  0.15849935  0.75996457  1
  Cu  Cu112  1  0.33634516  -0.00150514  -0.00007450  1
  Cu  Cu113  1  0.17035305  0.82430995  0.24338653  1
  Cu  Cu114  1  0.49888364  0.84003737  0.24260671  1
  Se  Se115  1  0.07963330  0.07591934  0.07270551  1
  Se  Se116  1  0.07874109  0.08011348  0.55528600  1
  Se  Se117  1  0.08351387  0.42045163  0.04772970  1
  Se  Se118  1  0.08822508  0.41674138  0.54430542  1
  Se  Se119  1  0.08692381  0.75647515  0.05794220  1
  Se  Se120  1  0.08226273  0.74754189  0.55359703  1
  Se  Se121  1  0.41900659  0.08397661  0.05137574  1
  Se  Se122  1  0.41767297  0.07907850  0.55220850  1
  Se  Se123  1  0.41052898  0.41511019  0.06731527  1
  Se  Se124  1  0.40518179  0.41367826  0.57568123  1
  Se  Se125  1  0.42048761  0.74601876  0.04184886  1
  Se  Se126  1  0.40913667  0.74253690  0.55768977  1
  Se  Se127  1  0.74772412  0.07898536  0.05527383  1
  Se  Se128  1  0.75021325  0.07874703  0.55895565  1
  Se  Se129  1  0.75096623  0.41587997  0.04681203  1
  Se  Se130  1  0.73676855  0.40640150  0.55856935  1
  Se  Se131  1  0.75254430  0.75108389  0.05877210  1
  Se  Se132  1  0.74324263  0.74780303  0.55231083  1
  Se  Se133  1  0.25672028  0.25597907  0.07038200  1
  Se  Se134  1  0.25293789  0.24948325  0.57005150  1
  Se  Se135  1  0.24245844  0.57976440  0.04686147  1
  Se  Se136  1  0.24561824  0.57614673  0.55212638  1
  Se  Se137  1  0.24834223  0.91624034  0.04863063  1
  Se  Se138  1  0.25288173  0.91159993  0.55262913  1
  Se  Se139  1  0.57976756  0.24106276  0.05197502  1
  Se  Se140  1  0.57539487  0.23978345  0.54572483  1
  Se  Se141  1  0.58534540  0.58984561  0.06741749  1
  Se  Se142  1  0.58601991  0.58470364  0.54903790  1
  Se  Se143  1  0.57611083  0.91017738  0.05312564  1
  Se  Se144  1  0.59690879  0.92059935  0.56032575  1
  Se  Se145  1  0.92382489  0.23322197  0.05080168  1
  Se  Se146  1  0.92040303  0.25833968  0.54528780  1
  Se  Se147  1  0.91735490  0.58607821  0.05592330  1
  Se  Se148  1  0.91879301  0.58862850  0.56032385  1
  Se  Se149  1  0.91334689  0.91477857  0.05860278  1
  Se  Se150  1  0.92648243  0.92068585  0.56066120  1
  Se  Se151  1  0.07640077  0.24423434  0.43111988  1
  Se  Se152  1  0.07569902  0.25892977  0.94438349  1
  Se  Se153  1  0.09073069  0.57525335  0.43821974  1
  Se  Se154  1  0.08446448  0.59257168  0.94764334  1
  Se  Se155  1  0.09314471  0.90663667  0.44475342  1
  Se  Se156  1  0.08319377  0.92500842  0.95407270  1
  Se  Se157  1  0.40372691  0.25630331  0.45493843  1
  Se  Se158  1  0.41646968  0.24854206  0.95559707  1
  Se  Se159  1  0.41178699  0.59330469  0.43598267  1
  Se  Se160  1  0.41026267  0.58191164  0.94554261  1
  Se  Se161  1  0.41442449  0.92127019  0.43243716  1
  Se  Se162  1  0.41685310  0.91520723  0.94329736  1
  Se  Se163  1  0.74334141  0.26019593  0.43046748  1
  Se  Se164  1  0.75323715  0.24264038  0.95041691  1
  Se  Se165  1  0.75048566  0.58985135  0.43556088  1
  Se  Se166  1  0.75470236  0.58036360  0.95666844  1
  Se  Se167  1  0.74367106  0.93014453  0.43682491  1
  Se  Se168  1  0.75104624  0.91183312  0.95489969  1
  Se  Se169  1  0.25579653  0.07196421  0.43567192  1
  Se  Se170  1  0.25261400  0.08649645  0.94531506  1
  Se  Se171  1  0.26604156  0.39891748  0.44730301  1
  Se  Se172  1  0.24768794  0.41469631  0.95369489  1
  Se  Se173  1  0.24706170  0.75387236  0.44697933  1
  Se  Se174  1  0.24096633  0.76376336  0.94571696  1
  Se  Se175  1  0.57759454  0.08850043  0.44110786  1
  Se  Se176  1  0.58151795  0.07817370  0.94764022  1
  Se  Se177  1  0.58450920  0.41407629  0.43690641  1
  Se  Se178  1  0.59235084  0.40424087  0.93921582  1
  Se  Se179  1  0.58511330  0.75244369  0.43368702  1
  Se  Se180  1  0.58680484  0.74616443  0.95204882  1
  Se  Se181  1  0.92972718  0.06869161  0.43188757  1
  Se  Se182  1  0.91273796  0.08458617  0.95665167  1
  Se  Se183  1  0.93178034  0.42401167  0.42846122  1
  Se  Se184  1  0.92041425  0.41872700  0.95521952  1
  Se  Se185  1  0.93056539  0.73800585  0.43902678  1
  Se  Se186  1  0.91427678  0.75607539  0.95693392  1
  Se  Se187  1  0.24251803  0.24309182  0.31152172  1
  Se  Se188  1  0.25853679  0.25271798  0.80576544  1
  Se  Se189  1  0.25581347  0.59106390  0.30311458  1
  Se  Se190  1  0.24744872  0.58851945  0.80812016  1
  Se  Se191  1  0.24917907  0.91074507  0.29955605  1
  Se  Se192  1  0.25058119  0.91965428  0.80066517  1
  Se  Se193  1  0.57446844  0.25401300  0.30574339  1
  Se  Se194  1  0.57724225  0.24523088  0.81474924  1
  Se  Se195  1  0.58753427  0.58918159  0.29306926  1
  Se  Se196  1  0.57046697  0.57677992  0.81640384  1
  Se  Se197  1  0.58495467  0.92356260  0.29510572  1
  Se  Se198  1  0.58709019  0.91571884  0.80430904  1
  Se  Se199  1  0.89778881  0.23720855  0.28750813  1
  Se  Se200  1  0.91074234  0.24467359  0.81252767  1
  Se  Se201  1  0.91948818  0.58611807  0.29356983  1
  Se  Se202  1  0.92282651  0.59465569  0.81009923  1
  Se  Se203  1  0.90951075  0.90920684  0.30431233  1
  Se  Se204  1  0.91542565  0.91061288  0.82493960  1
  Se  Se205  1  0.08374880  0.07792579  0.29711482  1
  Se  Se206  1  0.09565749  0.09243334  0.81612053  1
  Se  Se207  1  0.06548979  0.39316513  0.30243676  1
  Se  Se208  1  0.08849200  0.42581251  0.81775235  1
  Se  Se209  1  0.08476172  0.74706770  0.30056293  1
  Se  Se210  1  0.08023881  0.75805163  0.80581044  1
  Se  Se211  1  0.40440354  0.07893304  0.29981384  1
  Se  Se212  1  0.41735321  0.08186798  0.80761802  1
  Se  Se213  1  0.42185873  0.42638277  0.30749783  1
  Se  Se214  1  0.40379558  0.41525970  0.80880818  1
  Se  Se215  1  0.41539195  0.75392557  0.29521182  1
  Se  Se216  1  0.41509138  0.75014734  0.80709751  1
  Se  Se217  1  0.75351645  0.10052217  0.28960573  1
  Se  Se218  1  0.74658067  0.07372150  0.80854878  1
  Se  Se219  1  0.76434391  0.42732506  0.30590141  1
  Se  Se220  1  0.75636605  0.42011429  0.81170969  1
  Se  Se221  1  0.74451533  0.74794739  0.29634978  1
  Se  Se222  1  0.75363946  0.75377912  0.82240091  1
  Se  Se223  1  0.25315797  0.07586988  0.19856950  1
  Se  Se224  1  0.25408990  0.07863875  0.70003727  1
  Se  Se225  1  0.23390169  0.43110556  0.19780552  1
  Se  Se226  1  0.23985968  0.42044806  0.70207738  1
  Se  Se227  1  0.25345590  0.74789945  0.18526619  1
  Se  Se228  1  0.26289523  0.73165154  0.69073724  1
  Se  Se229  1  0.57199633  0.08801548  0.19695023  1
  Se  Se230  1  0.58851435  0.07883572  0.69785890  1
  Se  Se231  1  0.57967808  0.42188913  0.18796525  1
  Se  Se232  1  0.57028924  0.42703713  0.69238246  1
  Se  Se233  1  0.58309781  0.75156469  0.19429022  1
  Se  Se234  1  0.57205921  0.75656432  0.68665569  1
  Se  Se235  1  0.92425927  0.06769537  0.20039533  1
  Se  Se236  1  0.91552378  0.08704134  0.69694472  1
  Se  Se237  1  0.92391354  0.41568314  0.18484161  1
  Se  Se238  1  0.91062126  0.42857566  0.69527965  1
  Se  Se239  1  0.91963397  0.74912437  0.19803773  1
  Se  Se240  1  0.91476426  0.75139617  0.70746634  1
  Se  Se241  1  0.08793960  0.24989216  0.19610372  1
  Se  Se242  1  0.08971154  0.23998579  0.69264363  1
  Se  Se243  1  0.08112008  0.58872999  0.19677048  1
  Se  Se244  1  0.07804294  0.58747457  0.69442738  1
  Se  Se245  1  0.08352155  0.91365245  0.19908326  1
  Se  Se246  1  0.08942298  0.91541239  0.68852792  1
  Se  Se247  1  0.42304225  0.24273837  0.19725586  1
  Se  Se248  1  0.42072602  0.24559313  0.70033171  1
  Se  Se249  1  0.41215500  0.58649813  0.19446760  1
  Se  Se250  1  0.41151030  0.59065788  0.70433257  1
  Se  Se251  1  0.41283207  0.91197279  0.18334255  1
  Se  Se252  1  0.41980653  0.91780436  0.69631445  1
  Se  Se253  1  0.75473492  0.25754150  0.17103773  1
  Se  Se254  1  0.75802122  0.24060034  0.69281779  1
  Se  Se255  1  0.75056965  0.58453701  0.19532488  1
  Se  Se256  1  0.75302889  0.58641083  0.70027543  1
  Se  Se257  1  0.74416839  0.91930973  0.19463054  1
  Se  Se258  1  0.75028149  0.91886761  0.70959745  1
