# generated using pymatgen
data_In86Cu29Se144
_symmetry_space_group_name_H-M   'P 1'
_cell_length_a   17.58744259
_cell_length_b   17.58315297
_cell_length_c   23.44907808
_cell_angle_alpha   89.96654511
_cell_angle_beta   89.99201046
_cell_angle_gamma   89.98606212
_symmetry_Int_Tables_number   1
_chemical_formula_structural   In86Cu29Se144
_chemical_formula_sum   'In86 Cu29 Se144'
_cell_volume   7251.45453942
_cell_formula_units_Z   1
loop_
 _symmetry_equiv_pos_site_id
 _symmetry_equiv_pos_as_xyz
  1  'x, y, z'
loop_
 _atom_site_type_symbol
 _atom_site_label
 _atom_site_symmetry_multiplicity
 _atom_site_fract_x
 _atom_site_fract_y
 _atom_site_fract_z
 _atom_site_occupancy
  In  In0  1  -0.00364784  0.17027514  0.11589378  1
  In  In1  1  -0.00553875  0.14961246  0.60752129  1
  In  In2  1  0.00677224  0.48692093  0.12532767  1
  In  In3  1  0.01100366  0.50275527  0.62395272  1
  In  In4  1  0.00044696  0.83622831  0.11136892  1
  In  In5  1  -0.00962025  0.83702113  0.64436093  1
  In  In6  1  0.32324070  0.16916568  0.12799406  1
  In  In7  1  0.33412221  0.16682075  0.62459890  1
  In  In8  1  0.32856470  0.50033814  0.12256402  1
  In  In9  1  0.32193463  0.48668242  0.61767721  1
  In  In10  1  0.33843161  0.84257048  0.11212182  1
  In  In11  1  0.34227419  0.84282240  0.63164621  1
  In  In12  1  0.68553911  0.14755940  0.14827165  1
  In  In13  1  0.66903392  0.16632328  0.62575981  1
  In  In14  1  0.67579604  0.49902682  0.13692050  1
  In  In15  1  0.65019325  0.49646613  0.61776752  1
  In  In16  1  0.66693499  0.83577370  0.12196067  1
  In  In17  1  0.68230779  0.85101364  0.63089501  1
  In  In18  1  0.18065511  -0.00079132  0.37320347  1
  In  In19  1  0.16181862  0.00185719  0.87291756  1
  In  In20  1  0.15578248  0.33961170  0.37810807  1
  In  In21  1  0.16973442  0.31839339  0.88502883  1
  In  In22  1  0.16086519  0.64624149  0.37645965  1
  In  In23  1  0.15576519  0.67807161  0.88138811  1
  In  In24  1  0.52040543  0.02666839  0.35266833  1
  In  In25  1  0.49328629  -0.00107066  0.87137474  1
  In  In26  1  0.51269958  0.31844204  0.38754273  1
  In  In27  1  0.49930818  0.33143101  0.86625174  1
  In  In28  1  0.50109992  0.65291416  0.37812557  1
  In  In29  1  0.51291789  0.67127721  0.87744944  1
  In  In30  1  0.82874317  0.03936953  0.37407724  1
  In  In31  1  0.83352801  -0.00073229  0.87388256  1
  In  In32  1  0.82276536  0.31090242  0.36048927  1
  In  In33  1  0.82528359  0.33576674  0.87496155  1
  In  In34  1  0.83342709  0.67939490  0.37155158  1
  In  In35  1  0.84639897  0.66654915  0.87154063  1
  In  In36  1  -0.01194622  0.17707470  0.38678330  1
  In  In37  1  0.01199247  0.15540761  0.88508663  1
  In  In38  1  0.02168483  0.48672875  0.38517477  1
  In  In39  1  -0.00150160  0.51003584  0.87422642  1
  In  In40  1  -0.00149022  0.83443328  0.37517336  1
  In  In41  1  -0.00480419  0.83918271  0.87304886  1
  In  In42  1  0.33881845  0.16126597  0.37961952  1
  In  In43  1  0.32288364  0.15782911  0.86582792  1
  In  In44  1  0.33064982  0.49570596  0.38101541  1
  In  In45  1  0.33157787  0.48058105  0.87033755  1
  In  In46  1  0.33166441  0.84967963  0.37274599  1
  In  In47  1  0.32369525  0.84394001  0.88166281  1
  In  In48  1  0.66388404  0.16894238  0.37059561  1
  In  In49  1  0.67548163  0.17029841  0.87185801  1
  In  In50  1  0.65935005  0.48566253  0.36944291  1
  In  In51  1  0.67357602  0.49376297  0.87246212  1
  In  In52  1  0.66883232  0.84131921  0.36652656  1
  In  In53  1  0.65740533  0.84378853  0.88426883  1
  In  In54  1  0.16922364  0.00711700  0.11871262  1
  In  In55  1  0.15840673  0.01072819  0.63230070  1
  In  In56  1  0.15521938  0.32557894  0.11274813  1
  In  In57  1  0.16922055  0.33534174  0.61983842  1
  In  In58  1  0.16306243  0.66271447  0.11492598  1
  In  In59  1  0.16215364  0.65849708  0.62532415  1
  In  In60  1  0.51057048  -0.00501288  0.13215449  1
  In  In61  1  0.49379303  0.01103827  0.63418780  1
  In  In62  1  0.50779949  0.32695857  0.13418030  1
  In  In63  1  0.50031731  0.32719547  0.62160877  1
  In  In64  1  0.49666278  0.67914346  0.12461973  1
  In  In65  1  0.50838699  0.66412418  0.62231281  1
  In  In66  1  0.83281327  -0.00192548  0.11725244  1
  In  In67  1  0.82899013  0.00281983  0.63493547  1
  In  In68  1  0.84892951  0.31564752  0.14394590  1
  In  In69  1  0.84023783  0.31116417  0.62408395  1
  In  In70  1  0.82495626  0.67230274  0.12650241  1
  In  In71  1  0.84030994  0.67880938  0.63044136  1
  In  In72  1  0.49731448  0.83652716  0.50563811  1
  In  In73  1  0.83662939  0.83971955  0.50376923  1
  In  In74  1  0.16574816  0.83145315  0.50248796  1
  In  In75  1  0.49505322  0.50382082  0.00470666  1
  In  In76  1  0.33467755  0.33009062  0.24955055  1
  In  In77  1  -0.00236437  0.66130100  0.24636122  1
  In  In78  1  -0.00262492  0.00262954  0.25228002  1
  In  In79  1  0.66886794  0.66670476  0.74745809  1
  In  In80  1  0.83420129  0.49625744  0.50067814  1
  In  In81  1  0.33655595  0.67158100  0.25609682  1
  In  In82  1  0.83877743  0.50140739  0.00010686  1
  In  In83  1  0.49796606  0.16563622  0.00595550  1
  In  In84  1  0.00171367  0.32822749  0.75008151  1
  In  In85  1  0.32934914  0.66922658  0.75054570  1
  Cu  Cu86  1  0.49482238  0.49066303  0.74225147  1
  Cu  Cu87  1  0.66841646  0.01001639  0.49804022  1
  Cu  Cu88  1  0.66763746  0.00390862  0.00566450  1
  Cu  Cu89  1  0.50140496  0.84306254  0.75535663  1
  Cu  Cu90  1  0.50272555  0.50048053  0.25717713  1
  Cu  Cu91  1  0.50778771  0.16864899  0.74745908  1
  Cu  Cu92  1  0.16905412  0.82897187  0.24509214  1
  Cu  Cu93  1  -0.00342615  -0.00050531  -0.00643238  1
  Cu  Cu94  1  -0.00133610  0.33036948  0.50039192  1
  Cu  Cu95  1  0.32660961  0.32592565  -0.00131102  1
  Cu  Cu96  1  0.83797038  0.50125936  0.25250190  1
  Cu  Cu97  1  0.16751641  0.16925616  0.74903156  1
  Cu  Cu98  1  0.16435681  0.84043556  0.75909132  1
  Cu  Cu99  1  0.82478151  0.84250975  0.24792559  1
  Cu  Cu100  1  0.66843994  0.67669808  0.00364820  1
  Cu  Cu101  1  0.66621759  0.32549865  0.49497329  1
  Cu  Cu102  1  0.82975982  0.49457512  0.75056972  1
  Cu  Cu103  1  0.33744941  0.00722130  0.50066831  1
  Cu  Cu104  1  0.32375100  0.65923106  0.49795482  1
  Cu  Cu105  1  0.33245276  0.66640918  -0.00115232  1
  Cu  Cu106  1  0.00291285  0.67038918  -0.00413800  1
  Cu  Cu107  1  0.16277763  0.16746485  0.24549813  1
  Cu  Cu108  1  0.33393340  0.33124308  0.50074481  1
  Cu  Cu109  1  0.50543577  0.83373172  0.24221441  1
  Cu  Cu110  1  0.83361600  0.16306789  0.74962266  1
  Cu  Cu111  1  0.66525225  0.66222975  0.49685139  1
  Cu  Cu112  1  0.16672060  0.49850107  0.74692935  1
  Cu  Cu113  1  0.66972187  0.33201274  0.00221808  1
  Cu  Cu114  1  0.32701543  0.00225145  -0.00623555  1
  Se  Se115  1  0.07771929  0.08070048  0.05171094  1
  Se  Se116  1  0.09853043  0.08264351  0.54833494  1
  Se  Se117  1  0.08939679  0.42616969  0.04837829  1
  Se  Se118  1  0.08084560  0.41572775  0.55225847  1
  Se  Se119  1  0.08852513  0.75358727  0.04789889  1
  Se  Se120  1  0.07285465  0.75282542  0.56731570  1
  Se  Se121  1  0.40684201  0.07335586  0.06193397  1
  Se  Se122  1  0.42259551  0.08599081  0.55587438  1
  Se  Se123  1  0.41157638  0.40040930  0.06024766  1
  Se  Se124  1  0.41841839  0.41516470  0.55370226  1
  Se  Se125  1  0.41857245  0.74988045  0.04838727  1
  Se  Se126  1  0.40233545  0.73984357  0.55928642  1
  Se  Se127  1  0.74767209  0.09169708  0.05732702  1
  Se  Se128  1  0.75436632  0.08154273  0.55849847  1
  Se  Se129  1  0.74779085  0.41533299  0.06087478  1
  Se  Se130  1  0.74529353  0.40321505  0.55980941  1
  Se  Se131  1  0.75674394  0.75766568  0.05273813  1
  Se  Se132  1  0.73951927  0.74494894  0.55866411  1
  Se  Se133  1  0.24568014  0.24003601  0.05088758  1
  Se  Se134  1  0.25079895  0.24800480  0.55446780  1
  Se  Se135  1  0.25163115  0.57988228  0.05023142  1
  Se  Se136  1  0.24166413  0.57896856  0.55409417  1
  Se  Se137  1  0.24355472  0.91784658  0.04863785  1
  Se  Se138  1  0.25928712  0.92236119  0.55949506  1
  Se  Se139  1  0.59443067  0.24994601  0.06326950  1
  Se  Se140  1  0.58525112  0.24422400  0.55368585  1
  Se  Se141  1  0.59339430  0.58797653  0.06170226  1
  Se  Se142  1  0.57619487  0.58200355  0.54607014  1
  Se  Se143  1  0.58104372  0.91843636  0.05371487  1
  Se  Se144  1  0.59238287  0.92746902  0.56069726  1
  Se  Se145  1  0.90842655  0.25759763  0.05495260  1
  Se  Se146  1  0.91254019  0.24150035  0.54452291  1
  Se  Se147  1  0.92581779  0.59373659  0.06279875  1
  Se  Se148  1  0.91965353  0.59108001  0.55962772  1
  Se  Se149  1  0.91221466  0.91572876  0.04669724  1
  Se  Se150  1  0.92649640  0.92469407  0.56475162  1
  Se  Se151  1  0.08718102  0.24869482  0.44921007  1
  Se  Se152  1  0.07640371  0.25216831  0.95230344  1
  Se  Se153  1  0.07726645  0.58781369  0.45330624  1
  Se  Se154  1  0.08415221  0.58131670  0.94689725  1
  Se  Se155  1  0.08027363  0.92316133  0.44052291  1
  Se  Se156  1  0.08322184  0.91626862  0.94288832  1
  Se  Se157  1  0.41695111  0.24455013  0.45042682  1
  Se  Se158  1  0.41196237  0.25154954  0.93858267  1
  Se  Se159  1  0.41407750  0.58030210  0.44786128  1
  Se  Se160  1  0.40940372  0.58700508  0.93470911  1
  Se  Se161  1  0.41994861  0.92914957  0.44052932  1
  Se  Se162  1  0.41786930  0.91985893  0.94645325  1
  Se  Se163  1  0.75188648  0.24362177  0.44331941  1
  Se  Se164  1  0.75094627  0.25045547  0.94670682  1
  Se  Se165  1  0.74718797  0.58662570  0.43678849  1
  Se  Se166  1  0.74220474  0.59208111  0.94140484  1
  Se  Se167  1  0.74752893  0.92713034  0.43948587  1
  Se  Se168  1  0.74900421  0.92255678  0.94782495  1
  Se  Se169  1  0.24822544  0.08463053  0.44805378  1
  Se  Se170  1  0.24402139  0.08742064  0.94296436  1
  Se  Se171  1  0.24752991  0.41327914  0.44765326  1
  Se  Se172  1  0.24896522  0.41594149  0.94693400  1
  Se  Se173  1  0.25519445  0.74492192  0.43513959  1
  Se  Se174  1  0.24904076  0.75173244  0.94712483  1
  Se  Se175  1  0.58120839  0.08627184  0.44245925  1
  Se  Se176  1  0.58759981  0.08118766  0.94168396  1
  Se  Se177  1  0.58416244  0.41878285  0.45052458  1
  Se  Se178  1  0.58602236  0.41167238  0.94423276  1
  Se  Se179  1  0.58893348  0.75165258  0.44069327  1
  Se  Se180  1  0.57876235  0.75488096  0.95259471  1
  Se  Se181  1  0.92903998  0.06895711  0.44806859  1
  Se  Se182  1  0.90990343  0.08542559  0.94597419  1
  Se  Se183  1  0.91423663  0.40363540  0.43650847  1
  Se  Se184  1  0.92527949  0.41008039  0.93986972  1
  Se  Se185  1  0.92622349  0.74245953  0.44695428  1
  Se  Se186  1  0.91624258  0.75149991  0.94436227  1
  Se  Se187  1  0.24203201  0.24445627  0.31087065  1
  Se  Se188  1  0.24737692  0.25507148  0.80308214  1
  Se  Se189  1  0.24608432  0.57056813  0.30285397  1
  Se  Se190  1  0.24243037  0.57883619  0.81179530  1
  Se  Se191  1  0.24959542  0.91632095  0.29632921  1
  Se  Se192  1  0.25366345  0.92364809  0.80505510  1
  Se  Se193  1  0.58137102  0.25634175  0.30464547  1
  Se  Se194  1  0.58920606  0.25116925  0.80341951  1
  Se  Se195  1  0.58853992  0.58649288  0.30518322  1
  Se  Se196  1  0.57385673  0.57158707  0.80395807  1
  Se  Se197  1  0.58728221  0.91920652  0.29550905  1
  Se  Se198  1  0.58861246  0.92358774  0.80624827  1
  Se  Se199  1  0.92361263  0.23988919  0.30096091  1
  Se  Se200  1  0.91286998  0.24200684  0.81245201  1
  Se  Se201  1  0.91716821  0.57638745  0.31666194  1
  Se  Se202  1  0.91524244  0.57939315  0.79868345  1
  Se  Se203  1  0.90270773  0.91618341  0.31384904  1
  Se  Se204  1  0.92483309  0.92992914  0.80391367  1
  Se  Se205  1  0.08857587  0.08932090  0.31215480  1
  Se  Se206  1  0.08192782  0.08737010  0.80250474  1
  Se  Se207  1  0.08491283  0.41832646  0.30172512  1
  Se  Se208  1  0.08911403  0.41881130  0.81106799  1
  Se  Se209  1  0.09174194  0.75227155  0.30818578  1
  Se  Se210  1  0.08002392  0.75184982  0.80521109  1
  Se  Se211  1  0.39529650  0.06777135  0.30584657  1
  Se  Se212  1  0.42110546  0.08859084  0.80187858  1
  Se  Se213  1  0.42314099  0.41688504  0.31384403  1
  Se  Se214  1  0.41259052  0.40807658  0.79639295  1
  Se  Se215  1  0.43096041  0.76168981  0.31311302  1
  Se  Se216  1  0.42275397  0.75613493  0.81114910  1
  Se  Se217  1  0.73810683  0.08250824  0.29711425  1
  Se  Se218  1  0.74905359  0.08109521  0.80308750  1
  Se  Se219  1  0.75261605  0.41565875  0.30241802  1
  Se  Se220  1  0.74498846  0.41063577  0.79931690  1
  Se  Se221  1  0.74803550  0.75163241  0.30032544  1
  Se  Se222  1  0.74611503  0.75226297  0.81648720  1
  Se  Se223  1  0.24599946  0.08063615  0.19616444  1
  Se  Se224  1  0.25313758  0.08493609  0.69703382  1
  Se  Se225  1  0.24351925  0.41321417  0.18671866  1
  Se  Se226  1  0.24787718  0.41261889  0.69577882  1
  Se  Se227  1  0.24963447  0.75082091  0.18521693  1
  Se  Se228  1  0.23915059  0.76182897  0.69158338  1
  Se  Se229  1  0.57262497  0.08901808  0.20150262  1
  Se  Se230  1  0.59180732  0.08112783  0.69779110  1
  Se  Se231  1  0.58225082  0.41970415  0.19918698  1
  Se  Se232  1  0.58445770  0.41119212  0.69220211  1
  Se  Se233  1  0.58901403  0.74761558  0.19294869  1
  Se  Se234  1  0.57649784  0.76357841  0.69071976  1
  Se  Se235  1  0.91038320  0.08862130  0.18939144  1
  Se  Se236  1  0.92258404  0.08947503  0.69342676  1
  Se  Se237  1  0.92297883  0.41915674  0.20057920  1
  Se  Se238  1  0.91176718  0.41900416  0.68709316  1
  Se  Se239  1  0.91450372  0.76507773  0.19262287  1
  Se  Se240  1  0.91093195  0.74827316  0.70919616  1
  Se  Se241  1  0.08127740  0.24679859  0.18873230  1
  Se  Se242  1  0.08436230  0.24076679  0.68438054  1
  Se  Se243  1  0.09583449  0.57602158  0.19257447  1
  Se  Se244  1  0.08100180  0.58467686  0.70029496  1
  Se  Se245  1  0.08472719  0.91012740  0.18926050  1
  Se  Se246  1  0.08381014  0.92248869  0.70159095  1
  Se  Se247  1  0.42551679  0.23303150  0.19715709  1
  Se  Se248  1  0.41928660  0.24817184  0.69394013  1
  Se  Se249  1  0.42325065  0.57694151  0.19308707  1
  Se  Se250  1  0.41759371  0.57951015  0.68754077  1
  Se  Se251  1  0.41454377  0.91135329  0.19146149  1
  Se  Se252  1  0.41480116  0.92496925  0.70403594  1
  Se  Se253  1  0.73046634  0.27041886  0.19753153  1
  Se  Se254  1  0.75099730  0.24930212  0.69767536  1
  Se  Se255  1  0.75627195  0.58893391  0.20167283  1
  Se  Se256  1  0.75328967  0.57256523  0.68436054  1
  Se  Se257  1  0.74723208  0.92360820  0.18973623  1
  Se  Se258  1  0.77022590  0.90518005  0.70607420  1
