# generated using pymatgen
data_In86Cu29Se144
_symmetry_space_group_name_H-M   'P 1'
_cell_length_a   17.58478909
_cell_length_b   17.58119985
_cell_length_c   23.43296371
_cell_angle_alpha   90.02405050
_cell_angle_beta   90.02976845
_cell_angle_gamma   89.99942556
_symmetry_Int_Tables_number   1
_chemical_formula_structural   In86Cu29Se144
_chemical_formula_sum   'In86 Cu29 Se144'
_cell_volume   7244.57307844
_cell_formula_units_Z   1
loop_
 _symmetry_equiv_pos_site_id
 _symmetry_equiv_pos_as_xyz
  1  'x, y, z'
loop_
 _atom_site_type_symbol
 _atom_site_label
 _atom_site_symmetry_multiplicity
 _atom_site_fract_x
 _atom_site_fract_y
 _atom_site_fract_z
 _atom_site_occupancy
  In  In0  1  0.01094562  0.18185663  0.11975979  1
  In  In1  1  0.02896359  0.15019080  0.65140231  1
  In  In2  1  -0.01417102  0.49843752  0.12067645  1
  In  In3  1  -0.00106884  0.49513636  0.62899177  1
  In  In4  1  0.00645789  0.82521949  0.11844394  1
  In  In5  1  0.01163163  0.82192683  0.63082414  1
  In  In6  1  0.32623771  0.17345115  0.11866912  1
  In  In7  1  0.29545247  0.19214168  0.66146792  1
  In  In8  1  0.34663007  0.49754350  0.12229996  1
  In  In9  1  0.32475147  0.51657970  0.63121461  1
  In  In10  1  0.31973453  0.83403841  0.12176621  1
  In  In11  1  0.32462759  0.84527459  0.63777828  1
  In  In12  1  0.67851227  0.15304937  0.13339418  1
  In  In13  1  0.66083254  0.16259568  0.62794179  1
  In  In14  1  0.66762563  0.49943246  0.12403924  1
  In  In15  1  0.68292029  0.50352694  0.62260411  1
  In  In16  1  0.66657873  0.83754966  0.13288452  1
  In  In17  1  0.66813056  0.83134950  0.63650931  1
  In  In18  1  0.16695066  0.00320269  0.38794681  1
  In  In19  1  0.15632723  0.00330478  0.87335635  1
  In  In20  1  0.16196454  0.33560768  0.38144711  1
  In  In21  1  0.14948026  0.31174168  0.85581628  1
  In  In22  1  0.16959864  0.66141502  0.37991223  1
  In  In23  1  0.17019011  0.67414082  0.86626667  1
  In  In24  1  0.50039969  -0.00834689  0.37158054  1
  In  In25  1  0.50055040  -0.00399129  0.86727055  1
  In  In26  1  0.50386194  0.32189332  0.37033048  1
  In  In27  1  0.49609447  0.34357541  0.87881562  1
  In  In28  1  0.50347886  0.67377814  0.36938971  1
  In  In29  1  0.48841704  0.66031802  0.86708416  1
  In  In30  1  0.83398173  0.00753815  0.37109450  1
  In  In31  1  0.83456781  0.00521259  0.87141469  1
  In  In32  1  0.84147933  0.34042861  0.36711411  1
  In  In33  1  0.83584273  0.33037742  0.88272710  1
  In  In34  1  0.81992179  0.66165188  0.37549223  1
  In  In35  1  0.82421351  0.65292570  0.86621701  1
  In  In36  1  0.00346019  0.17443886  0.37471723  1
  In  In37  1  0.00005151  0.16305547  0.87263248  1
  In  In38  1  0.00597568  0.48930771  0.38374514  1
  In  In39  1  -0.01630238  0.48925331  0.86084948  1
  In  In40  1  0.00493638  0.84365752  0.38086821  1
  In  In41  1  0.00673764  0.84053184  0.86794475  1
  In  In42  1  0.32942573  0.15973148  0.37911060  1
  In  In43  1  0.31063511  0.14706790  0.85855966  1
  In  In44  1  0.31519397  0.49707205  0.37699833  1
  In  In45  1  0.33605646  0.50219830  0.86632503  1
  In  In46  1  0.33736185  0.82961374  0.37757712  1
  In  In47  1  0.32430754  0.82111088  0.86551382  1
  In  In48  1  0.66276273  0.16740452  0.35446006  1
  In  In49  1  0.67873122  0.16239064  0.88275710  1
  In  In50  1  0.67699157  0.50917553  0.36938822  1
  In  In51  1  0.66234405  0.49984059  0.88393548  1
  In  In52  1  0.67270072  0.82963556  0.36287080  1
  In  In53  1  0.66292100  0.83491874  0.86738459  1
  In  In54  1  0.16823868  0.00339128  0.11548983  1
  In  In55  1  0.17033536  -0.00043856  0.62897485  1
  In  In56  1  0.16290030  0.31831250  0.12517164  1
  In  In57  1  0.15981687  0.34073438  0.63060030  1
  In  In58  1  0.16550483  0.67858952  0.12249601  1
  In  In59  1  0.16586539  0.66705916  0.62302742  1
  In  In60  1  0.51673795  0.00847633  0.12127057  1
  In  In61  1  0.49145952  -0.00098315  0.63862032  1
  In  In62  1  0.49424684  0.34682103  0.12216372  1
  In  In63  1  0.49399388  0.31934022  0.62503485  1
  In  In64  1  0.51018451  0.65892790  0.12901906  1
  In  In65  1  0.49638389  0.68271447  0.64302219  1
  In  In66  1  0.81407841  0.00887285  0.11953745  1
  In  In67  1  0.83700225  0.00685253  0.63261796  1
  In  In68  1  0.83575760  0.33245337  0.12340813  1
  In  In69  1  0.84663359  0.35034363  0.62220711  1
  In  In70  1  0.83489271  0.65638935  0.12405370  1
  In  In71  1  0.84958345  0.64426742  0.64616532  1
  In  In72  1  -0.00405762  0.66485150  0.24492385  1
  In  In73  1  0.49773581  0.83382699  0.50255545  1
  In  In74  1  0.83748814  0.82389580  0.50301345  1
  In  In75  1  0.49744264  0.82868519  0.00206866  1
  In  In76  1  0.49870108  0.17327868  -0.00160242  1
  In  In77  1  0.83712418  0.83537572  -0.00291683  1
  In  In78  1  0.33609334  0.33618260  0.24958431  1
  In  In79  1  0.49451152  0.15941588  0.50074381  1
  In  In80  1  0.49617242  0.50346075  0.50172884  1
  In  In81  1  0.84327674  0.17979243  0.49832701  1
  In  In82  1  0.16643120  0.49775373  -0.01204121  1
  In  In83  1  -0.00334220  0.00150388  0.25441478  1
  In  In84  1  0.66600128  0.33113642  0.75208824  1
  In  In85  1  0.33939962  0.00269851  0.24298230  1
  Cu  Cu86  1  -0.00110052  0.33283035  -0.00732812  1
  Cu  Cu87  1  0.83452930  0.84180310  0.75324449  1
  Cu  Cu88  1  -0.00178769  0.00688222  -0.00658098  1
  Cu  Cu89  1  0.16923193  0.50755986  0.74775702  1
  Cu  Cu90  1  0.00498225  0.32943178  0.50582382  1
  Cu  Cu91  1  0.67361419  0.33799145  0.49268473  1
  Cu  Cu92  1  0.66602898  0.66071609  -0.00003604  1
  Cu  Cu93  1  0.83185504  0.49533613  0.24667746  1
  Cu  Cu94  1  0.50362409  0.50630513  0.24740054  1
  Cu  Cu95  1  0.66981410  0.33547490  0.00431613  1
  Cu  Cu96  1  0.49993471  0.16226521  0.75242703  1
  Cu  Cu97  1  0.32475497  0.00957176  0.51449581  1
  Cu  Cu98  1  0.83517388  0.16716150  0.24624874  1
  Cu  Cu99  1  0.16066023  0.83464365  0.74880128  1
  Cu  Cu100  1  0.01039461  -0.00090136  0.50940689  1
  Cu  Cu101  1  0.50562963  0.49832309  0.75134655  1
  Cu  Cu102  1  0.33160525  0.66167713  -0.00961592  1
  Cu  Cu103  1  0.32617566  -0.00222386  -0.00675343  1
  Cu  Cu104  1  0.50210746  0.83021143  0.24909977  1
  Cu  Cu105  1  0.66809735  -0.00238441  0.49957155  1
  Cu  Cu106  1  0.83360328  0.17274458  0.75628047  1
  Cu  Cu107  1  0.00136149  0.65792068  0.50826555  1
  Cu  Cu108  1  0.67176344  0.66052586  0.50391470  1
  Cu  Cu109  1  0.31958776  0.33251345  0.50894855  1
  Cu  Cu110  1  0.32421711  0.67021470  0.50049560  1
  Cu  Cu111  1  0.32561802  0.32975397  -0.00693863  1
  Cu  Cu112  1  0.00364189  0.66872334  -0.00513405  1
  Cu  Cu113  1  0.17167280  0.83332265  0.24988955  1
  Cu  Cu114  1  0.16461337  0.49910727  0.25627649  1
  Se  Se115  1  0.08174992  0.08677046  0.05180532  1
  Se  Se116  1  0.08829514  0.08754395  0.56155499  1
  Se  Se117  1  0.07984600  0.41233107  0.05555718  1
  Se  Se118  1  0.08385763  0.42079303  0.55549093  1
  Se  Se119  1  0.08872505  0.75185635  0.04512390  1
  Se  Se120  1  0.08418835  0.74985315  0.55148718  1
  Se  Se121  1  0.40840890  0.07361490  0.05599893  1
  Se  Se122  1  0.40775750  0.08764429  0.57253770  1
  Se  Se123  1  0.41017774  0.41291891  0.04500669  1
  Se  Se124  1  0.40808387  0.41154088  0.56260435  1
  Se  Se125  1  0.40683969  0.73713116  0.05957490  1
  Se  Se126  1  0.40770311  0.74554091  0.56209063  1
  Se  Se127  1  0.74529992  0.09278752  0.04669972  1
  Se  Se128  1  0.74912548  0.08310922  0.55438093  1
  Se  Se129  1  0.75464946  0.42023511  0.05572830  1
  Se  Se130  1  0.75450542  0.41634770  0.55031246  1
  Se  Se131  1  0.74387840  0.74582567  0.05798580  1
  Se  Se132  1  0.74907374  0.74039179  0.56643196  1
  Se  Se133  1  0.24274955  0.24854432  0.04737897  1
  Se  Se134  1  0.24385971  0.24790658  0.56657906  1
  Se  Se135  1  0.25218015  0.58462970  0.05605423  1
  Se  Se136  1  0.24573966  0.58147762  0.55168088  1
  Se  Se137  1  0.24468084  0.91346629  0.04801766  1
  Se  Se138  1  0.24791144  0.91199528  0.55753956  1
  Se  Se139  1  0.58791802  0.25522781  0.06396947  1
  Se  Se140  1  0.59355395  0.25616955  0.55163943  1
  Se  Se141  1  0.58067574  0.57848987  0.05302502  1
  Se  Se142  1  0.58142848  0.59311615  0.56472223  1
  Se  Se143  1  0.59565473  0.92016495  0.05199511  1
  Se  Se144  1  0.58884805  0.92369016  0.56228023  1
  Se  Se145  1  0.91761622  0.25162173  0.05133024  1
  Se  Se146  1  0.93399155  0.24635162  0.57080767  1
  Se  Se147  1  0.91877410  0.58803703  0.04849755  1
  Se  Se148  1  0.91303741  0.57937389  0.55928319  1
  Se  Se149  1  0.92442677  0.92696436  0.05987114  1
  Se  Se150  1  0.92190961  0.92062817  0.56260764  1
  Se  Se151  1  0.08495189  0.24551329  0.44986904  1
  Se  Se152  1  0.08357485  0.24825180  0.94251055  1
  Se  Se153  1  0.08485437  0.58072646  0.44772061  1
  Se  Se154  1  0.07542210  0.58672835  0.93020617  1
  Se  Se155  1  0.08935415  0.91318956  0.45433610  1
  Se  Se156  1  0.08009227  0.91727968  0.94560897  1
  Se  Se157  1  0.40573741  0.26126631  0.44607962  1
  Se  Se158  1  0.40282893  0.24584001  0.93217060  1
  Se  Se159  1  0.40905508  0.59454234  0.43932683  1
  Se  Se160  1  0.41664270  0.57730867  0.94223268  1
  Se  Se161  1  0.40534097  0.93315464  0.44899562  1
  Se  Se162  1  0.40931926  0.91636787  0.93831708  1
  Se  Se163  1  0.74328003  0.24990809  0.43254103  1
  Se  Se164  1  0.75144969  0.25040772  0.95205864  1
  Se  Se165  1  0.75318027  0.57630123  0.45082567  1
  Se  Se166  1  0.75432919  0.58106665  0.94815218  1
  Se  Se167  1  0.74924868  0.91844916  0.44102618  1
  Se  Se168  1  0.74305765  0.92174138  0.94004832  1
  Se  Se169  1  0.24713889  0.09150634  0.45461476  1
  Se  Se170  1  0.24249253  0.08466656  0.94441484  1
  Se  Se171  1  0.24307416  0.41846312  0.45233609  1
  Se  Se172  1  0.24882329  0.40457129  0.92682659  1
  Se  Se173  1  0.24669102  0.75603092  0.44469424  1
  Se  Se174  1  0.24750724  0.74896739  0.94385957  1
  Se  Se175  1  0.59180531  0.07868834  0.43793203  1
  Se  Se176  1  0.58356039  0.07501720  0.94303417  1
  Se  Se177  1  0.58474384  0.41462008  0.43824195  1
  Se  Se178  1  0.58115226  0.41408122  0.95192622  1
  Se  Se179  1  0.59605436  0.74684447  0.44441224  1
  Se  Se180  1  0.58679851  0.74097445  0.93962261  1
  Se  Se181  1  0.92833027  0.07349339  0.44522555  1
  Se  Se182  1  0.91138369  0.08820447  0.94378309  1
  Se  Se183  1  0.91764283  0.40627822  0.44882420  1
  Se  Se184  1  0.91671298  0.42338956  0.94654560  1
  Se  Se185  1  0.92735661  0.73579266  0.43952165  1
  Se  Se186  1  0.92001756  0.74501464  0.93359787  1
  Se  Se187  1  0.24728460  0.24722312  0.31072638  1
  Se  Se188  1  0.25830611  0.25446801  0.79440961  1
  Se  Se189  1  0.24894887  0.58604706  0.30371725  1
  Se  Se190  1  0.25499486  0.58960197  0.80038857  1
  Se  Se191  1  0.24780393  0.91824580  0.30955423  1
  Se  Se192  1  0.24156533  0.91554009  0.80685490  1
  Se  Se193  1  0.58191514  0.25652152  0.29307974  1
  Se  Se194  1  0.57833955  0.24212845  0.81560928  1
  Se  Se195  1  0.58608399  0.58790998  0.30432406  1
  Se  Se196  1  0.58551640  0.57842677  0.80910667  1
  Se  Se197  1  0.58406872  0.91601413  0.30155766  1
  Se  Se198  1  0.58537144  0.91907479  0.79921931  1
  Se  Se199  1  0.91851612  0.24660686  0.30302695  1
  Se  Se200  1  0.91642340  0.25523179  0.80880789  1
  Se  Se201  1  0.91418106  0.57331263  0.30983601  1
  Se  Se202  1  0.92171069  0.59206545  0.79752192  1
  Se  Se203  1  0.90721051  0.90348386  0.30814723  1
  Se  Se204  1  0.92054188  0.92541306  0.80360240  1
  Se  Se205  1  0.09491490  0.08680633  0.30971271  1
  Se  Se206  1  0.08901120  0.09308612  0.80104343  1
  Se  Se207  1  0.08278932  0.41387376  0.30701926  1
  Se  Se208  1  0.08650751  0.42218831  0.79928070  1
  Se  Se209  1  0.08558308  0.75598652  0.30787140  1
  Se  Se210  1  0.07736255  0.74762788  0.79895242  1
  Se  Se211  1  0.42543056  0.09311302  0.30776471  1
  Se  Se212  1  0.41421714  0.07583253  0.79994514  1
  Se  Se213  1  0.42382759  0.42920965  0.31227021  1
  Se  Se214  1  0.41957494  0.41390550  0.80050299  1
  Se  Se215  1  0.41429876  0.75281614  0.30301187  1
  Se  Se216  1  0.42428981  0.75785688  0.80050778  1
  Se  Se217  1  0.75303566  0.07913055  0.29681937  1
  Se  Se218  1  0.74673108  0.08656580  0.80297383  1
  Se  Se219  1  0.74709795  0.41435016  0.30184424  1
  Se  Se220  1  0.75255425  0.41983915  0.81271703  1
  Se  Se221  1  0.75447309  0.74301837  0.30001146  1
  Se  Se222  1  0.75418189  0.75459973  0.80477848  1
  Se  Se223  1  0.24087398  0.09202389  0.19156231  1
  Se  Se224  1  0.26950972  0.05838403  0.69927147  1
  Se  Se225  1  0.24302214  0.42395169  0.18814617  1
  Se  Se226  1  0.25237449  0.42150372  0.69601072  1
  Se  Se227  1  0.25196071  0.74763539  0.19683623  1
  Se  Se228  1  0.24466754  0.74913188  0.69636407  1
  Se  Se229  1  0.58093733  0.08488726  0.19934632  1
  Se  Se230  1  0.58581312  0.08150901  0.69933226  1
  Se  Se231  1  0.58087256  0.41906250  0.19366687  1
  Se  Se232  1  0.57918801  0.41861902  0.68503501  1
  Se  Se233  1  0.58688062  0.74713017  0.19677292  1
  Se  Se234  1  0.60083678  0.74001459  0.70536978  1
  Se  Se235  1  0.91641643  0.08827537  0.18514935  1
  Se  Se236  1  0.91646476  0.08583096  0.70448810  1
  Se  Se237  1  0.91933815  0.41416734  0.19546835  1
  Se  Se238  1  0.91186816  0.42353691  0.70180437  1
  Se  Se239  1  0.90863477  0.76067262  0.18832622  1
  Se  Se240  1  0.91441318  0.75682449  0.69852890  1
  Se  Se241  1  0.08104115  0.25279296  0.20078140  1
  Se  Se242  1  0.08249224  0.26374230  0.70639628  1
  Se  Se243  1  0.09014574  0.57462703  0.18687506  1
  Se  Se244  1  0.08293654  0.58599319  0.69255044  1
  Se  Se245  1  0.08966754  0.91265522  0.19084389  1
  Se  Se246  1  0.07903842  0.92084241  0.69586968  1
  Se  Se247  1  0.42132689  0.24341184  0.18799308  1
  Se  Se248  1  0.41920886  0.25234691  0.70412579  1
  Se  Se249  1  0.41471421  0.58491451  0.19536153  1
  Se  Se250  1  0.41948164  0.58302334  0.70042039  1
  Se  Se251  1  0.42737553  0.90866324  0.18304800  1
  Se  Se252  1  0.43934191  0.88845110  0.69869965  1
  Se  Se253  1  0.75182304  0.25271129  0.19443528  1
  Se  Se254  1  0.75812954  0.24732921  0.68710731  1
  Se  Se255  1  0.75024966  0.58224409  0.19523676  1
  Se  Se256  1  0.73777522  0.58624223  0.70228120  1
  Se  Se257  1  0.75438712  0.92120791  0.19420697  1
  Se  Se258  1  0.75093210  0.92381735  0.69736232  1
