# generated using pymatgen
data_In86Cu29Se144
_symmetry_space_group_name_H-M   'P 1'
_cell_length_a   17.57734664
_cell_length_b   17.58038416
_cell_length_c   23.43658294
_cell_angle_alpha   89.97460895
_cell_angle_beta   89.98742491
_cell_angle_gamma   90.00160677
_symmetry_Int_Tables_number   1
_chemical_formula_structural   In86Cu29Se144
_chemical_formula_sum   'In86 Cu29 Se144'
_cell_volume   7242.29009611
_cell_formula_units_Z   1
loop_
 _symmetry_equiv_pos_site_id
 _symmetry_equiv_pos_as_xyz
  1  'x, y, z'
loop_
 _atom_site_type_symbol
 _atom_site_label
 _atom_site_symmetry_multiplicity
 _atom_site_fract_x
 _atom_site_fract_y
 _atom_site_fract_z
 _atom_site_occupancy
  In  In0  1  0.00826533  0.15707292  0.12951332  1
  In  In1  1  0.00055002  0.18560319  0.62571920  1
  In  In2  1  0.00556916  0.51488932  0.10699016  1
  In  In3  1  -0.00074720  0.49745624  0.62415218  1
  In  In4  1  0.00681717  0.82811790  0.13439150  1
  In  In5  1  -0.00233613  0.81639968  0.62366788  1
  In  In6  1  0.32134221  0.16721250  0.13003709  1
  In  In7  1  0.34120050  0.16592667  0.62757659  1
  In  In8  1  0.33813524  0.50861555  0.11673837  1
  In  In9  1  0.31832403  0.50252334  0.62530218  1
  In  In10  1  0.35022470  0.82471676  0.14248584  1
  In  In11  1  0.33779855  0.84275892  0.61270749  1
  In  In12  1  0.68139502  0.17395006  0.12989215  1
  In  In13  1  0.66548686  0.16773722  0.61684510  1
  In  In14  1  0.66603880  0.50458476  0.12632678  1
  In  In15  1  0.66197157  0.48677050  0.62415450  1
  In  In16  1  0.64425468  0.82815807  0.12972747  1
  In  In17  1  0.65997447  0.84227541  0.62272725  1
  In  In18  1  0.15047036  -0.00513955  0.36605719  1
  In  In19  1  0.17896555  -0.00149674  0.87862212  1
  In  In20  1  0.18005770  0.33750591  0.37832692  1
  In  In21  1  0.16681720  0.33422812  0.87365747  1
  In  In22  1  0.16799238  0.66715996  0.36955316  1
  In  In23  1  0.14885420  0.65801132  0.87437666  1
  In  In24  1  0.50049095  0.00422816  0.38304648  1
  In  In25  1  0.49941124  -0.01435243  0.87438727  1
  In  In26  1  0.50286575  0.31904989  0.37925032  1
  In  In27  1  0.51008313  0.33951474  0.86753204  1
  In  In28  1  0.51132744  0.68581937  0.35562046  1
  In  In29  1  0.49584292  0.67206053  0.88284754  1
  In  In30  1  0.84189101  -0.00762721  0.37949199  1
  In  In31  1  0.83051073  0.01851178  0.87106632  1
  In  In32  1  0.82401648  0.34830332  0.38394615  1
  In  In33  1  0.84152073  0.33720707  0.86653822  1
  In  In34  1  0.82363462  0.65720179  0.36963369  1
  In  In35  1  0.83723265  0.65034031  0.88010212  1
  In  In36  1  -0.00072151  0.15220087  0.37869978  1
  In  In37  1  0.00255095  0.17805164  0.87153141  1
  In  In38  1  -0.00901061  0.50827649  0.37711972  1
  In  In39  1  0.00177844  0.49880843  0.87773054  1
  In  In40  1  0.00790706  0.83702650  0.36797637  1
  In  In41  1  0.00881925  0.82589959  0.86956890  1
  In  In42  1  0.34601476  0.16987471  0.37625280  1
  In  In43  1  0.31465799  0.16982911  0.87538332  1
  In  In44  1  0.32062841  0.50408691  0.37643239  1
  In  In45  1  0.34254172  0.49402143  0.88175733  1
  In  In46  1  0.33299073  0.82976954  0.37130948  1
  In  In47  1  0.34067984  0.83986873  0.87830448  1
  In  In48  1  0.65874844  0.17184314  0.38574164  1
  In  In49  1  0.67413816  0.16989787  0.86262096  1
  In  In50  1  0.67867117  0.51536936  0.37195219  1
  In  In51  1  0.67499781  0.49405730  0.87941313  1
  In  In52  1  0.65966040  0.82062986  0.37966787  1
  In  In53  1  0.65212778  0.83177282  0.86860657  1
  In  In54  1  0.16945466  0.00622894  0.13650317  1
  In  In55  1  0.17919823  -0.00008481  0.62099965  1
  In  In56  1  0.16227283  0.33385282  0.11602688  1
  In  In57  1  0.14871739  0.33980720  0.64160309  1
  In  In58  1  0.16691996  0.66165484  0.12763949  1
  In  In59  1  0.15857281  0.65464216  0.61457607  1
  In  In60  1  0.49918592  -0.01584273  0.13069140  1
  In  In61  1  0.50807583  0.00362156  0.60983076  1
  In  In62  1  0.49505574  0.35130754  0.12520743  1
  In  In63  1  0.51018420  0.32525993  0.63575884  1
  In  In64  1  0.50093624  0.66523337  0.13100836  1
  In  In65  1  0.49882164  0.67320463  0.61892593  1
  In  In66  1  0.84056581  0.00996515  0.13163233  1
  In  In67  1  0.80880089  -0.00067007  0.61637129  1
  In  In68  1  0.82195450  0.34030418  0.12648724  1
  In  In69  1  0.83268292  0.33429524  0.62157828  1
  In  In70  1  0.84273214  0.65452714  0.13198719  1
  In  In71  1  0.85080927  0.66625872  0.62255470  1
  In  In72  1  0.33218258  0.66781903  0.75313183  1
  In  In73  1  0.67089200  -0.00516549  0.25955752  1
  In  In74  1  0.67129794  0.66177377  0.74443532  1
  In  In75  1  0.84122169  0.17348607  -0.00075773  1
  In  In76  1  0.50088157  0.17076766  -0.00179410  1
  In  In77  1  -0.00497431  -0.00004488  0.75050448  1
  In  In78  1  0.17728332  0.82602037  0.01206476  1
  In  In79  1  0.82845677  0.82735590  -0.00010357  1
  In  In80  1  0.49898030  0.50643430  0.50003974  1
  In  In81  1  0.16762941  0.16915845  0.50328482  1
  In  In82  1  -0.00084716  0.33421509  0.24591902  1
  In  In83  1  0.33818799  0.33248009  0.25165085  1
  In  In84  1  0.34012770  0.00587257  0.74426218  1
  In  In85  1  0.82736606  0.82865005  0.49556864  1
  Cu  Cu86  1  0.50152404  0.16657140  0.74564294  1
  Cu  Cu87  1  -0.00269431  -0.00375467  0.49675509  1
  Cu  Cu88  1  0.16739759  0.82433707  0.74322028  1
  Cu  Cu89  1  0.66393076  0.34433969  -0.00049869  1
  Cu  Cu90  1  0.49900029  0.49873862  0.75353102  1
  Cu  Cu91  1  0.65783847  0.66610102  0.00435734  1
  Cu  Cu92  1  0.33237111  0.66787103  0.00652399  1
  Cu  Cu93  1  0.00715467  0.66401273  0.49563746  1
  Cu  Cu94  1  0.16687109  0.83272102  0.25044135  1
  Cu  Cu95  1  0.83509718  0.83322859  0.25489110  1
  Cu  Cu96  1  0.83099613  0.50278915  0.25136672  1
  Cu  Cu97  1  0.82925721  0.82933399  0.74295080  1
  Cu  Cu98  1  0.82609202  0.16435945  0.73890145  1
  Cu  Cu99  1  0.00005979  0.33685856  -0.00644478  1
  Cu  Cu100  1  0.83854382  0.17292947  0.25360035  1
  Cu  Cu101  1  0.32906621  -0.00384796  0.49470543  1
  Cu  Cu102  1  0.16552363  0.50094117  0.24647888  1
  Cu  Cu103  1  0.50398452  0.49860838  0.24835527  1
  Cu  Cu104  1  0.33103470  0.67192888  0.49388760  1
  Cu  Cu105  1  0.01090831  -0.00503847  0.00844750  1
  Cu  Cu106  1  0.50934174  0.16343648  0.25643744  1
  Cu  Cu107  1  0.00017273  0.33950906  0.50448995  1
  Cu  Cu108  1  0.66763060  0.33520521  0.50258614  1
  Cu  Cu109  1  0.15811812  0.49483154  0.74961741  1
  Cu  Cu110  1  0.33770817  -0.00073837  0.00215712  1
  Cu  Cu111  1  0.32714827  0.33578422  -0.00086347  1
  Cu  Cu112  1  0.33370260  0.33724590  0.50391351  1
  Cu  Cu113  1  0.84123391  0.49120191  0.75255381  1
  Cu  Cu114  1  0.66252042  -0.00427145  -0.00118846  1
  Se  Se115  1  0.09245267  0.08170065  0.05810184  1
  Se  Se116  1  0.07369981  0.07740990  0.56131788  1
  Se  Se117  1  0.08541180  0.41913012  0.04717127  1
  Se  Se118  1  0.08947093  0.41604060  0.55762977  1
  Se  Se119  1  0.07189323  0.74040208  0.05706417  1
  Se  Se120  1  0.08533298  0.75175895  0.54955215  1
  Se  Se121  1  0.41680748  0.08133967  0.06272337  1
  Se  Se122  1  0.40687052  0.08154368  0.55191650  1
  Se  Se123  1  0.41531310  0.41882696  0.04839734  1
  Se  Se124  1  0.41599526  0.41507174  0.56527412  1
  Se  Se125  1  0.41600754  0.74913223  0.06087767  1
  Se  Se126  1  0.41650511  0.75084204  0.54863651  1
  Se  Se127  1  0.74620194  0.07681227  0.05536709  1
  Se  Se128  1  0.74108279  0.08399137  0.54428992  1
  Se  Se129  1  0.74968925  0.42354109  0.05368857  1
  Se  Se130  1  0.75199583  0.42068049  0.55206629  1
  Se  Se131  1  0.73960583  0.74465445  0.06514816  1
  Se  Se132  1  0.74598208  0.74189396  0.56344079  1
  Se  Se133  1  0.25109324  0.24821426  0.05380978  1
  Se  Se134  1  0.25162012  0.25990004  0.56614743  1
  Se  Se135  1  0.24338000  0.58318018  0.05205189  1
  Se  Se136  1  0.25282759  0.58322216  0.54708660  1
  Se  Se137  1  0.26317611  0.92041517  0.06826108  1
  Se  Se138  1  0.24263170  0.91379261  0.54569081  1
  Se  Se139  1  0.59232534  0.25771139  0.06069679  1
  Se  Se140  1  0.57746959  0.25562494  0.55293806  1
  Se  Se141  1  0.57635082  0.58109179  0.05769445  1
  Se  Se142  1  0.59565221  0.59155626  0.55839565  1
  Se  Se143  1  0.58053713  0.91526477  0.05351712  1
  Se  Se144  1  0.57277523  0.90120032  0.54694290  1
  Se  Se145  1  0.92816528  0.26002962  0.06473727  1
  Se  Se146  1  0.91544740  0.25101749  0.55067952  1
  Se  Se147  1  0.90179650  0.58244122  0.04775892  1
  Se  Se148  1  0.92298390  0.58214324  0.55025358  1
  Se  Se149  1  0.92036532  0.91946622  0.06136263  1
  Se  Se150  1  0.91836906  0.91744874  0.56026911  1
  Se  Se151  1  0.07732128  0.25897999  0.44086258  1
  Se  Se152  1  0.08434975  0.24961456  0.94549043  1
  Se  Se153  1  0.08896571  0.58039040  0.44057480  1
  Se  Se154  1  0.08008458  0.58048286  0.95003154  1
  Se  Se155  1  0.08236908  0.91518708  0.44489289  1
  Se  Se156  1  0.08508465  0.91409693  0.94478329  1
  Se  Se157  1  0.41547818  0.25082953  0.45297898  1
  Se  Se158  1  0.41029990  0.25795716  0.93765294  1
  Se  Se159  1  0.41436084  0.59280210  0.43457447  1
  Se  Se160  1  0.41547138  0.58644691  0.94929782  1
  Se  Se161  1  0.41330205  0.91337534  0.44262801  1
  Se  Se162  1  0.42130684  0.91404184  0.95212966  1
  Se  Se163  1  0.75156950  0.25210594  0.44891819  1
  Se  Se164  1  0.74363890  0.25796532  0.94143396  1
  Se  Se165  1  0.75654245  0.58324580  0.44974474  1
  Se  Se166  1  0.74351906  0.58580802  0.95010811  1
  Se  Se167  1  0.73625484  0.92378667  0.44171531  1
  Se  Se168  1  0.74803212  0.92431284  0.93684816  1
  Se  Se169  1  0.24953651  0.08084924  0.43668817  1
  Se  Se170  1  0.25141671  0.08150143  0.95173851  1
  Se  Se171  1  0.25037559  0.42059262  0.45230989  1
  Se  Se172  1  0.24580405  0.41944723  0.94450354  1
  Se  Se173  1  0.24404848  0.75247061  0.44151005  1
  Se  Se174  1  0.25568568  0.74201398  0.93720680  1
  Se  Se175  1  0.57774498  0.08863773  0.45228013  1
  Se  Se176  1  0.59252544  0.08325027  0.93724141  1
  Se  Se177  1  0.58864495  0.41577511  0.43962638  1
  Se  Se178  1  0.57722733  0.42188990  0.94484697  1
  Se  Se179  1  0.57573051  0.73967045  0.44606311  1
  Se  Se180  1  0.58374246  0.75473485  0.94781508  1
  Se  Se181  1  0.91155112  0.08292254  0.45116280  1
  Se  Se182  1  0.93195134  0.07448353  0.94484411  1
  Se  Se183  1  0.91782067  0.42258980  0.44931550  1
  Se  Se184  1  0.91044128  0.41622030  0.94394540  1
  Se  Se185  1  0.92355406  0.74441784  0.43620888  1
  Se  Se186  1  0.92625951  0.74419110  0.94199609  1
  Se  Se187  1  0.24520848  0.24122977  0.30778109  1
  Se  Se188  1  0.24688232  0.25262460  0.80228791  1
  Se  Se189  1  0.25082523  0.58258093  0.29911432  1
  Se  Se190  1  0.24271003  0.57395502  0.80944636  1
  Se  Se191  1  0.24660945  0.91669378  0.30568674  1
  Se  Se192  1  0.24669190  0.90674018  0.80257071  1
  Se  Se193  1  0.59049492  0.25110394  0.30565587  1
  Se  Se194  1  0.58573098  0.25125406  0.79879817  1
  Se  Se195  1  0.58776867  0.58314694  0.30037000  1
  Se  Se196  1  0.57829745  0.58213697  0.81183085  1
  Se  Se197  1  0.57325389  0.90819117  0.31110125  1
  Se  Se198  1  0.58917606  0.92687422  0.80055404  1
  Se  Se199  1  0.91429742  0.25347218  0.31665422  1
  Se  Se200  1  0.90923430  0.24001588  0.79979802  1
  Se  Se201  1  0.91815000  0.58684595  0.30080922  1
  Se  Se202  1  0.91890701  0.58024628  0.80503755  1
  Se  Se203  1  0.91887904  0.92044111  0.30246712  1
  Se  Se204  1  0.90447276  0.90795708  0.81104368  1
  Se  Se205  1  0.08077248  0.09164218  0.30125722  1
  Se  Se206  1  0.09057723  0.08176402  0.81112165  1
  Se  Se207  1  0.09015518  0.42063423  0.30955117  1
  Se  Se208  1  0.07650371  0.41275978  0.80593561  1
  Se  Se209  1  0.08119376  0.74608413  0.29960034  1
  Se  Se210  1  0.08373098  0.74350890  0.79734881  1
  Se  Se211  1  0.42251456  0.08352162  0.30728745  1
  Se  Se212  1  0.42385373  0.09277292  0.81376083  1
  Se  Se213  1  0.42581296  0.42223326  0.31414922  1
  Se  Se214  1  0.41313488  0.41535476  0.80411095  1
  Se  Se215  1  0.39643910  0.73557592  0.29992331  1
  Se  Se216  1  0.42649896  0.76158769  0.80519093  1
  Se  Se217  1  0.75868083  0.09186715  0.31456032  1
  Se  Se218  1  0.74628253  0.07879201  0.79325365  1
  Se  Se219  1  0.74871978  0.41829198  0.30436296  1
  Se  Se220  1  0.74755355  0.41523699  0.80287285  1
  Se  Se221  1  0.74804370  0.75314141  0.30614688  1
  Se  Se222  1  0.75773633  0.74965168  0.81147317  1
  Se  Se223  1  0.26394349  0.07643033  0.20334663  1
  Se  Se224  1  0.23869584  0.09480627  0.69532953  1
  Se  Se225  1  0.24711001  0.41919620  0.18814460  1
  Se  Se226  1  0.25024427  0.41744142  0.69920405  1
  Se  Se227  1  0.24628429  0.74676918  0.19617662  1
  Se  Se228  1  0.24988413  0.75105328  0.68162279  1
  Se  Se229  1  0.58752842  0.08644131  0.19101322  1
  Se  Se230  1  0.57880775  0.08546866  0.68604748  1
  Se  Se231  1  0.58751608  0.41464370  0.19613142  1
  Se  Se232  1  0.58639460  0.41688830  0.70274979  1
  Se  Se233  1  0.57452165  0.74955688  0.20440717  1
  Se  Se234  1  0.57568163  0.75465978  0.69464252  1
  Se  Se235  1  0.92129216  0.08710118  0.20305697  1
  Se  Se236  1  0.90883406  0.08226985  0.68181996  1
  Se  Se237  1  0.91393081  0.42923818  0.18775581  1
  Se  Se238  1  0.92024845  0.41012224  0.69284259  1
  Se  Se239  1  0.91532817  0.74948351  0.19800280  1
  Se  Se240  1  0.91991312  0.74491678  0.70112692  1
  Se  Se241  1  0.09759132  0.24482818  0.19464165  1
  Se  Se242  1  0.07969840  0.24293650  0.70596931  1
  Se  Se243  1  0.07739773  0.57804875  0.19207567  1
  Se  Se244  1  0.08288058  0.58280573  0.69302632  1
  Se  Se245  1  0.08267463  0.91918268  0.19934781  1
  Se  Se246  1  0.08821141  0.91214861  0.68813408  1
  Se  Se247  1  0.43097889  0.24246412  0.19121237  1
  Se  Se248  1  0.41298072  0.25201580  0.69997379  1
  Se  Se249  1  0.41472920  0.57685196  0.19594161  1
  Se  Se250  1  0.42328210  0.57860948  0.69083118  1
  Se  Se251  1  0.41343880  0.92604491  0.20687985  1
  Se  Se252  1  0.42630011  0.91329709  0.68684347  1
  Se  Se253  1  0.75373701  0.25649984  0.20300085  1
  Se  Se254  1  0.74498241  0.25190397  0.68812415  1
  Se  Se255  1  0.74558485  0.58677396  0.19849239  1
  Se  Se256  1  0.76349048  0.57054483  0.68785531  1
  Se  Se257  1  0.75584071  0.91008023  0.18895095  1
  Se  Se258  1  0.74635975  0.91542986  0.69475779  1
