# generated using pymatgen
data_In86Cu29Se144
_symmetry_space_group_name_H-M   'P 1'
_cell_length_a   17.59503712
_cell_length_b   17.58490053
_cell_length_c   23.45144162
_cell_angle_alpha   90.00472833
_cell_angle_beta   90.02197894
_cell_angle_gamma   90.00071796
_symmetry_Int_Tables_number   1
_chemical_formula_structural   In86Cu29Se144
_chemical_formula_sum   'In86 Cu29 Se144'
_cell_volume   7256.03911426
_cell_formula_units_Z   1
loop_
 _symmetry_equiv_pos_site_id
 _symmetry_equiv_pos_as_xyz
  1  'x, y, z'
loop_
 _atom_site_type_symbol
 _atom_site_label
 _atom_site_symmetry_multiplicity
 _atom_site_fract_x
 _atom_site_fract_y
 _atom_site_fract_z
 _atom_site_occupancy
  In  In0  1  0.01359262  0.17794662  0.11570656  1
  In  In1  1  0.00931072  0.16146639  0.62962848  1
  In  In2  1  -0.01868280  0.48367155  0.10541889  1
  In  In3  1  -0.00258722  0.50480425  0.63016803  1
  In  In4  1  -0.01137485  0.83729260  0.12021197  1
  In  In5  1  0.00026775  0.83016614  0.62255700  1
  In  In6  1  0.34690723  0.18157763  0.11750721  1
  In  In7  1  0.33531837  0.17842768  0.61532967  1
  In  In8  1  0.32946812  0.49804589  0.12414090  1
  In  In9  1  0.33254352  0.50193616  0.63571124  1
  In  In10  1  0.33595040  0.81566327  0.12954268  1
  In  In11  1  0.32246942  0.83492362  0.62605742  1
  In  In12  1  0.66287711  0.17715397  0.12285749  1
  In  In13  1  0.65905234  0.17865059  0.62250259  1
  In  In14  1  0.66644049  0.48360370  0.11270175  1
  In  In15  1  0.67224988  0.48595546  0.62410928  1
  In  In16  1  0.66366044  0.83971489  0.12444651  1
  In  In17  1  0.67478377  0.82448810  0.62562783  1
  In  In18  1  0.16387753  0.00469323  0.38378765  1
  In  In19  1  0.17439721  -0.00462615  0.87462960  1
  In  In20  1  0.16659550  0.33292865  0.37145489  1
  In  In21  1  0.16761577  0.33444160  0.87432857  1
  In  In22  1  0.17951780  0.66740525  0.37712133  1
  In  In23  1  0.15069974  0.65386337  0.85986575  1
  In  In24  1  0.51913059  0.00639759  0.36720396  1
  In  In25  1  0.50426894  -0.00007773  0.88714106  1
  In  In26  1  0.49178484  0.32277979  0.36258606  1
  In  In27  1  0.49068252  0.34025270  0.88807746  1
  In  In28  1  0.48836608  0.67734893  0.36593589  1
  In  In29  1  0.49789822  0.66476279  0.88368497  1
  In  In30  1  0.81986556  0.00146967  0.37290469  1
  In  In31  1  0.83272845  0.00507484  0.88153405  1
  In  In32  1  0.83809918  0.34385409  0.35805202  1
  In  In33  1  0.84927619  0.33034448  0.88345938  1
  In  In34  1  0.84101376  0.66129037  0.38017099  1
  In  In35  1  0.86317719  0.64535432  0.90147125  1
  In  In36  1  0.00145413  0.18041800  0.37247958  1
  In  In37  1  -0.01353011  0.18483008  0.87931079  1
  In  In38  1  -0.00329983  0.48827805  0.37068748  1
  In  In39  1  0.01127998  0.50330767  0.87600322  1
  In  In40  1  0.00060781  0.83396826  0.38468882  1
  In  In41  1  0.00269301  0.80112194  0.87852757  1
  In  In42  1  0.32961885  0.18132944  0.38373946  1
  In  In43  1  0.31869339  0.17258934  0.88347409  1
  In  In44  1  0.33306828  0.49918787  0.36600638  1
  In  In45  1  0.33121613  0.49651212  0.87744237  1
  In  In46  1  0.33433497  0.82376028  0.37555271  1
  In  In47  1  0.34003193  0.83218056  0.87607113  1
  In  In48  1  0.66245750  0.16544300  0.36585718  1
  In  In49  1  0.67496171  0.18094943  0.89292347  1
  In  In50  1  0.68096424  0.49920022  0.37024734  1
  In  In51  1  0.67120765  0.48149248  0.89775557  1
  In  In52  1  0.66681883  0.84322590  0.37071557  1
  In  In53  1  0.67610417  0.82290361  0.88673235  1
  In  In54  1  0.15415156  0.00372902  0.12145335  1
  In  In55  1  0.16785735  0.00659009  0.61612069  1
  In  In56  1  0.16687890  0.33602930  0.12492793  1
  In  In57  1  0.17188303  0.32370200  0.63177061  1
  In  In58  1  0.17515057  0.66483100  0.12312004  1
  In  In59  1  0.15782930  0.67551918  0.63833474  1
  In  In60  1  0.50886309  0.01259648  0.12126967  1
  In  In61  1  0.48953905  0.00804035  0.62410033  1
  In  In62  1  0.49932737  0.33287766  0.12328148  1
  In  In63  1  0.49649156  0.32366505  0.62185397  1
  In  In64  1  0.49251810  0.65716067  0.11938535  1
  In  In65  1  0.48983931  0.65585701  0.62886423  1
  In  In66  1  0.81519405  -0.00224272  0.12224433  1
  In  In67  1  0.84610526  -0.00626650  0.62688540  1
  In  In68  1  0.83842605  0.33661436  0.12090317  1
  In  In69  1  0.83025211  0.34662452  0.62681314  1
  In  In70  1  0.82557372  0.65611355  0.11103514  1
  In  In71  1  0.84521939  0.67042540  0.62074918  1
  In  In72  1  0.33146316  0.00003099  0.75605391  1
  In  In73  1  0.00034242  0.65585167  0.24435032  1
  In  In74  1  0.83493218  0.16469940  0.49882937  1
  In  In75  1  0.50373623  0.49790090  0.50205234  1
  In  In76  1  0.66617126  0.65460538  0.23659959  1
  In  In77  1  -0.00907374  0.00453636  0.24784883  1
  In  In78  1  0.00208315  0.00099705  0.74850236  1
  In  In79  1  0.50437567  0.84033613  0.48933941  1
  In  In80  1  0.67017425  0.33332324  0.75899405  1
  In  In81  1  0.66812926  0.00362894  0.76766355  1
  In  In82  1  0.66836850  0.66043193  0.76326936  1
  In  In83  1  0.33653727  0.00449102  0.24503034  1
  In  In84  1  0.16627232  0.83284556  -0.00325676  1
  In  In85  1  0.16701557  0.49904415  0.49638479  1
  Cu  Cu86  1  0.66541074  0.00681518  0.00442722  1
  Cu  Cu87  1  0.50334108  0.17167075  0.24369170  1
  Cu  Cu88  1  0.16599012  0.17067900  0.75272780  1
  Cu  Cu89  1  -0.00551844  0.00739500  -0.00126274  1
  Cu  Cu90  1  -0.00086635  0.66497235  0.50655270  1
  Cu  Cu91  1  0.00029850  0.33337628  0.49593303  1
  Cu  Cu92  1  0.49557954  0.49366450  0.75983307  1
  Cu  Cu93  1  0.33430273  0.01039843  0.49951506  1
  Cu  Cu94  1  0.82864704  0.17009932  0.24393826  1
  Cu  Cu95  1  0.82354752  0.82894928  0.24687867  1
  Cu  Cu96  1  0.00197436  -0.00405762  0.50260742  1
  Cu  Cu97  1  0.84126502  0.83133759  0.75191114  1
  Cu  Cu98  1  0.33400588  -0.00283522  0.00105692  1
  Cu  Cu99  1  0.16798224  0.49573132  0.24764330  1
  Cu  Cu100  1  0.00957146  0.33631752  -0.00185734  1
  Cu  Cu101  1  0.16888852  0.83055925  0.25298687  1
  Cu  Cu102  1  0.67975994  0.66750634  0.49940353  1
  Cu  Cu103  1  0.49749437  0.50027766  0.24075658  1
  Cu  Cu104  1  0.66239534  0.67231047  0.00528168  1
  Cu  Cu105  1  0.49629237  0.17067361  0.75171337  1
  Cu  Cu106  1  0.49669023  0.82205763  0.75696937  1
  Cu  Cu107  1  0.67036103  -0.00214129  0.49554991  1
  Cu  Cu108  1  0.66883334  0.33154396  0.49557176  1
  Cu  Cu109  1  0.33260194  0.66041330  -0.00071874  1
  Cu  Cu110  1  0.17009443  0.17577560  0.24635548  1
  Cu  Cu111  1  0.84194272  0.50754321  0.75343839  1
  Cu  Cu112  1  0.32769651  0.33431356  0.00222883  1
  Cu  Cu113  1  0.32930039  0.66936368  0.50179674  1
  Cu  Cu114  1  0.16732902  0.49292997  0.75213580  1
  Se  Se115  1  0.08657764  0.08608511  0.04643976  1
  Se  Se116  1  0.08061149  0.08835117  0.55039687  1
  Se  Se117  1  0.09304753  0.42025809  0.05076724  1
  Se  Se118  1  0.07839354  0.41206546  0.55966731  1
  Se  Se119  1  0.07651153  0.74680563  0.05964734  1
  Se  Se120  1  0.08715097  0.74645671  0.55649386  1
  Se  Se121  1  0.41597331  0.08345980  0.05268545  1
  Se  Se122  1  0.42149795  0.09140630  0.55058389  1
  Se  Se123  1  0.41289845  0.41628153  0.05540367  1
  Se  Se124  1  0.40687776  0.41474715  0.55956219  1
  Se  Se125  1  0.41396815  0.74759469  0.05116014  1
  Se  Se126  1  0.41932023  0.74891496  0.55543415  1
  Se  Se127  1  0.74918927  0.09341548  0.05413545  1
  Se  Se128  1  0.74467351  0.07618123  0.56281661  1
  Se  Se129  1  0.75113713  0.40333481  0.04392766  1
  Se  Se130  1  0.75201911  0.41575967  0.54796355  1
  Se  Se131  1  0.74707116  0.75693627  0.05592354  1
  Se  Se132  1  0.75848594  0.75329913  0.55366381  1
  Se  Se133  1  0.24507963  0.24813785  0.05458621  1
  Se  Se134  1  0.23790251  0.24794450  0.55225333  1
  Se  Se135  1  0.24733402  0.57912778  0.05155119  1
  Se  Se136  1  0.25226741  0.58753802  0.56189898  1
  Se  Se137  1  0.25519154  0.91805950  0.06407074  1
  Se  Se138  1  0.25589366  0.92223983  0.55253822  1
  Se  Se139  1  0.56286331  0.23612278  0.05459620  1
  Se  Se140  1  0.58137725  0.25204117  0.54761206  1
  Se  Se141  1  0.58424828  0.58062976  0.05453532  1
  Se  Se142  1  0.59600619  0.59242478  0.56115599  1
  Se  Se143  1  0.58134478  0.91942520  0.05311047  1
  Se  Se144  1  0.59049800  0.92257015  0.56194704  1
  Se  Se145  1  0.92251603  0.25396608  0.05033631  1
  Se  Se146  1  0.92148658  0.25540182  0.56084037  1
  Se  Se147  1  0.92438717  0.59348441  0.04578878  1
  Se  Se148  1  0.91604703  0.57574132  0.55353201  1
  Se  Se149  1  0.91216258  0.92656045  0.05521551  1
  Se  Se150  1  0.91644685  0.91260727  0.55268910  1
  Se  Se151  1  0.08637813  0.25198269  0.44467585  1
  Se  Se152  1  0.08791714  0.24810438  0.94417634  1
  Se  Se153  1  0.07396581  0.59001280  0.43746709  1
  Se  Se154  1  0.08105816  0.59744590  0.94500079  1
  Se  Se155  1  0.08826445  0.91381516  0.45038691  1
  Se  Se156  1  0.07072144  0.92150624  0.93769039  1
  Se  Se157  1  0.42794684  0.25304485  0.44589572  1
  Se  Se158  1  0.40983296  0.24665319  0.95024711  1
  Se  Se159  1  0.41135932  0.59044390  0.44183303  1
  Se  Se160  1  0.41734994  0.57536770  0.94812037  1
  Se  Se161  1  0.41113512  0.93223317  0.43430944  1
  Se  Se162  1  0.41665407  0.91321906  0.94863577  1
  Se  Se163  1  0.75061241  0.25312436  0.43479991  1
  Se  Se164  1  0.74153284  0.28501490  0.95277807  1
  Se  Se165  1  0.75515214  0.57782926  0.44619439  1
  Se  Se166  1  0.74482548  0.58817230  0.95125948  1
  Se  Se167  1  0.75270083  0.91184785  0.44562106  1
  Se  Se168  1  0.74645475  0.92417834  0.94768184  1
  Se  Se169  1  0.24746957  0.09125764  0.44730742  1
  Se  Se170  1  0.24621632  0.07636293  0.94901510  1
  Se  Se171  1  0.26189313  0.41128614  0.44100780  1
  Se  Se172  1  0.24540014  0.41745400  0.94672424  1
  Se  Se173  1  0.24794713  0.75576290  0.45008752  1
  Se  Se174  1  0.25218284  0.73981089  0.93767859  1
  Se  Se175  1  0.59058789  0.08516066  0.44392639  1
  Se  Se176  1  0.58473588  0.09108655  0.94963705  1
  Se  Se177  1  0.58856667  0.41325183  0.43581170  1
  Se  Se178  1  0.57348959  0.41374914  0.96004947  1
  Se  Se179  1  0.59265316  0.73805709  0.43792852  1
  Se  Se180  1  0.57804149  0.75291066  0.95024008  1
  Se  Se181  1  0.92538174  0.07462044  0.43674545  1
  Se  Se182  1  0.91162955  0.09382992  0.94754668  1
  Se  Se183  1  0.91343230  0.41014086  0.44123701  1
  Se  Se184  1  0.92634103  0.42340841  0.94692982  1
  Se  Se185  1  0.91727132  0.74814557  0.44923959  1
  Se  Se186  1  0.89867554  0.77173493  0.95051290  1
  Se  Se187  1  0.25414207  0.25186796  0.30412557  1
  Se  Se188  1  0.25303960  0.25167104  0.80440113  1
  Se  Se189  1  0.24671297  0.58365306  0.30183603  1
  Se  Se190  1  0.25186839  0.57742173  0.80377115  1
  Se  Se191  1  0.24311304  0.91874738  0.30938450  1
  Se  Se192  1  0.24098271  0.89973844  0.80355715  1
  Se  Se193  1  0.58910940  0.25483455  0.29645362  1
  Se  Se194  1  0.57641321  0.24470590  0.81609504  1
  Se  Se195  1  0.57391564  0.57758325  0.30807793  1
  Se  Se196  1  0.58266026  0.56406629  0.82014000  1
  Se  Se197  1  0.57449234  0.90511337  0.30073086  1
  Se  Se198  1  0.57697454  0.90257574  0.81496530  1
  Se  Se199  1  0.91742015  0.24712969  0.29802085  1
  Se  Se200  1  0.91118744  0.25566103  0.80172690  1
  Se  Se201  1  0.90514427  0.57119553  0.30290396  1
  Se  Se202  1  0.92242924  0.58981161  0.80968611  1
  Se  Se203  1  0.90888703  0.90498169  0.30752106  1
  Se  Se204  1  0.91598000  0.91411759  0.81393159  1
  Se  Se205  1  0.09117586  0.08990160  0.30409597  1
  Se  Se206  1  0.08786380  0.08973339  0.81332280  1
  Se  Se207  1  0.08382651  0.41420596  0.30192839  1
  Se  Se208  1  0.08076165  0.41263407  0.80463997  1
  Se  Se209  1  0.08339421  0.75162204  0.30950677  1
  Se  Se210  1  0.08975800  0.76004853  0.79796468  1
  Se  Se211  1  0.42242044  0.09433531  0.30813219  1
  Se  Se212  1  0.42293931  0.08840313  0.81517434  1
  Se  Se213  1  0.41679772  0.41796901  0.29873858  1
  Se  Se214  1  0.41195024  0.40737140  0.80895930  1
  Se  Se215  1  0.40833361  0.75581469  0.29682186  1
  Se  Se216  1  0.41502555  0.73952616  0.80945326  1
  Se  Se217  1  0.75003815  0.08315699  0.29860875  1
  Se  Se218  1  0.75666733  0.10421999  0.81464060  1
  Se  Se219  1  0.73783218  0.41015941  0.29524467  1
  Se  Se220  1  0.75922325  0.42913349  0.81326672  1
  Se  Se221  1  0.75107812  0.74256821  0.30769204  1
  Se  Se222  1  0.76503988  0.75068254  0.81395930  1
  Se  Se223  1  0.24374694  0.09164592  0.18479723  1
  Se  Se224  1  0.24734023  0.09042150  0.69180933  1
  Se  Se225  1  0.25329781  0.41239708  0.19619472  1
  Se  Se226  1  0.25151592  0.41156791  0.69846951  1
  Se  Se227  1  0.24731653  0.74422853  0.20002608  1
  Se  Se228  1  0.27018243  0.73447390  0.69373649  1
  Se  Se229  1  0.58924024  0.08657766  0.19566726  1
  Se  Se230  1  0.57945755  0.08755109  0.69632991  1
  Se  Se231  1  0.58327514  0.41815612  0.19086671  1
  Se  Se232  1  0.57488473  0.41842641  0.69498634  1
  Se  Se233  1  0.57379744  0.75066121  0.18830807  1
  Se  Se234  1  0.57981346  0.74844678  0.69484478  1
  Se  Se235  1  0.91086650  0.09278878  0.18187247  1
  Se  Se236  1  0.90464109  0.09395560  0.69656637  1
  Se  Se237  1  0.92243977  0.41640509  0.19067456  1
  Se  Se238  1  0.91661243  0.41799863  0.69846477  1
  Se  Se239  1  0.90499659  0.74934821  0.18900562  1
  Se  Se240  1  0.92094052  0.74939983  0.69526278  1
  Se  Se241  1  0.08092058  0.25484745  0.19529656  1
  Se  Se242  1  0.07867445  0.25101598  0.70014361  1
  Se  Se243  1  0.08807579  0.56897290  0.18316543  1
  Se  Se244  1  0.08318732  0.57976891  0.70080595  1
  Se  Se245  1  0.08567272  0.90738707  0.19421586  1
  Se  Se246  1  0.09415951  0.91509010  0.68807630  1
  Se  Se247  1  0.41438316  0.25579908  0.19775999  1
  Se  Se248  1  0.41424264  0.24862146  0.69454402  1
  Se  Se249  1  0.41023219  0.58486148  0.19406771  1
  Se  Se250  1  0.41760259  0.58103657  0.70577603  1
  Se  Se251  1  0.42323430  0.91449951  0.18579117  1
  Se  Se252  1  0.42592878  0.90900058  0.69509528  1
  Se  Se253  1  0.75081864  0.25693780  0.19041240  1
  Se  Se254  1  0.75438953  0.24521268  0.69213215  1
  Se  Se255  1  0.76036225  0.56358620  0.18451827  1
  Se  Se256  1  0.75385128  0.57818428  0.69195640  1
  Se  Se257  1  0.74310494  0.91845973  0.19891984  1
  Se  Se258  1  0.75386408  0.91252936  0.69894172  1
