# generated using pymatgen
data_In86Cu29Se144
_symmetry_space_group_name_H-M   'P 1'
_cell_length_a   17.58207802
_cell_length_b   17.57713122
_cell_length_c   23.44061951
_cell_angle_alpha   89.99665590
_cell_angle_beta   90.00931012
_cell_angle_gamma   89.98202012
_symmetry_Int_Tables_number   1
_chemical_formula_structural   In86Cu29Se144
_chemical_formula_sum   'In86 Cu29 Se144'
_cell_volume   7244.14701686
_cell_formula_units_Z   1
loop_
 _symmetry_equiv_pos_site_id
 _symmetry_equiv_pos_as_xyz
  1  'x, y, z'
loop_
 _atom_site_type_symbol
 _atom_site_label
 _atom_site_symmetry_multiplicity
 _atom_site_fract_x
 _atom_site_fract_y
 _atom_site_fract_z
 _atom_site_occupancy
  In  In0  1  0.00821698  0.16197215  0.13247227  1
  In  In1  1  0.01288247  0.15614984  0.63238667  1
  In  In2  1  -0.00795592  0.51187456  0.13266205  1
  In  In3  1  0.00219385  0.49074885  0.63272880  1
  In  In4  1  0.00196656  0.83345215  0.12287218  1
  In  In5  1  0.00386799  0.83340082  0.62665233  1
  In  In6  1  0.34504126  0.17616764  0.13422570  1
  In  In7  1  0.30239091  0.12037240  0.58417108  1
  In  In8  1  0.33816953  0.49992702  0.13127484  1
  In  In9  1  0.32403475  0.51971952  0.63100518  1
  In  In10  1  0.32397216  0.82449577  0.11773081  1
  In  In11  1  0.30214706  0.85788181  0.66173967  1
  In  In12  1  0.66822625  0.15412094  0.12665502  1
  In  In13  1  0.64915399  0.16044442  0.61958784  1
  In  In14  1  0.68274079  0.51533446  0.11690098  1
  In  In15  1  0.66151358  0.51326913  0.62484444  1
  In  In16  1  0.65290428  0.83089744  0.11077149  1
  In  In17  1  0.68404875  0.82538176  0.62574052  1
  In  In18  1  0.16309106  0.01118601  0.38726618  1
  In  In19  1  0.13590056  -0.04440403  0.83657821  1
  In  In20  1  0.16893779  0.33589722  0.37798959  1
  In  In21  1  0.16130901  0.34588343  0.87228786  1
  In  In22  1  0.16522946  0.66640563  0.37709449  1
  In  In23  1  0.17315524  0.68460231  0.86053646  1
  In  In24  1  0.49686169  0.00059417  0.38375131  1
  In  In25  1  0.48572241  -0.02505869  0.85228329  1
  In  In26  1  0.48733274  0.33194558  0.36811168  1
  In  In27  1  0.51041775  0.33301911  0.88226731  1
  In  In28  1  0.49552178  0.66631851  0.36264692  1
  In  In29  1  0.48948702  0.68048022  0.88410696  1
  In  In30  1  0.83448874  -0.02180806  0.37654586  1
  In  In31  1  0.81782353  -0.01100931  0.86678849  1
  In  In32  1  0.84506520  0.32468290  0.37164492  1
  In  In33  1  0.84395506  0.33950699  0.87649388  1
  In  In34  1  0.83757579  0.67332320  0.37055757  1
  In  In35  1  0.83993880  0.66229326  0.87942921  1
  In  In36  1  0.01217683  0.17325103  0.36935590  1
  In  In37  1  0.00349630  0.16867992  0.86642127  1
  In  In38  1  0.01051372  0.51138089  0.37012214  1
  In  In39  1  -0.00911057  0.50438559  0.86628643  1
  In  In40  1  0.00241883  0.83174601  0.37456710  1
  In  In41  1  -0.00605987  0.82525252  0.87213158  1
  In  In42  1  0.32425686  0.16954004  0.38461809  1
  In  In43  1  0.34087945  0.15031921  0.87512711  1
  In  In44  1  0.32929864  0.49627639  0.37088791  1
  In  In45  1  0.33214258  0.51597894  0.87757390  1
  In  In46  1  0.33589428  0.82222379  0.37726957  1
  In  In47  1  0.33049058  0.82943270  0.86816457  1
  In  In48  1  0.66619658  0.15555897  0.37882541  1
  In  In49  1  0.66533057  0.15889092  0.87412202  1
  In  In50  1  0.65618783  0.51101514  0.37194172  1
  In  In51  1  0.66853601  0.49807667  0.88611794  1
  In  In52  1  0.67428191  0.83373116  0.37596288  1
  In  In53  1  0.65657343  0.85236540  0.89162924  1
  In  In54  1  0.16987486  -0.01711665  0.12299297  1
  In  In55  1  0.15721782  -0.00852732  0.62476299  1
  In  In56  1  0.16996196  0.33543021  0.13669403  1
  In  In57  1  0.16138271  0.32387757  0.61838226  1
  In  In58  1  0.15642006  0.67504744  0.13099934  1
  In  In59  1  0.16704160  0.67122912  0.62383167  1
  In  In60  1  0.50437762  -0.00284116  0.12272267  1
  In  In61  1  0.48543211  -0.00071564  0.63665490  1
  In  In62  1  0.48607475  0.33573166  0.13293085  1
  In  In63  1  0.50017400  0.32219537  0.62573326  1
  In  In64  1  0.50357861  0.67112333  0.12216647  1
  In  In65  1  0.49225310  0.66697754  0.63209666  1
  In  In66  1  0.83811056  0.00159652  0.11759526  1
  In  In67  1  0.84968434  -0.01305680  0.63412213  1
  In  In68  1  0.83493560  0.34806668  0.12638111  1
  In  In69  1  0.84946229  0.33847585  0.62697031  1
  In  In70  1  0.83613268  0.67120256  0.12292158  1
  In  In71  1  0.82736850  0.68380089  0.62404513  1
  In  In72  1  0.67183314  0.33943648  0.25476123  1
  In  In73  1  0.67325352  0.32712244  0.75455646  1
  In  In74  1  0.67311722  0.66893947  0.75487386  1
  In  In75  1  0.16198262  0.51155096  0.00005303  1
  In  In76  1  0.66812847  -0.00394358  0.24466684  1
  In  In77  1  0.83421133  0.16273988  0.00049294  1
  In  In78  1  0.83459126  0.50625162  0.49751445  1
  In  In79  1  0.33272909  0.32555462  0.74936879  1
  In  In80  1  0.49170582  0.83476599  0.50573787  1
  In  In81  1  0.49322380  0.50488485  0.50853918  1
  In  In82  1  0.17075210  0.15663435  -0.00607192  1
  In  In83  1  0.32812919  0.00224158  0.25757880  1
  In  In84  1  0.83352368  0.16048553  0.49713093  1
  In  In85  1  0.50165884  0.16173939  0.00422574  1
  Cu  Cu86  1  -0.00110116  -0.01099993  -0.00940466  1
  Cu  Cu87  1  -0.00192492  0.34241817  0.00174851  1
  Cu  Cu88  1  0.66672235  -0.00539340  0.50196861  1
  Cu  Cu89  1  0.49818184  0.83005211  0.24495628  1
  Cu  Cu90  1  0.32402487  0.67090397  0.50274867  1
  Cu  Cu91  1  0.33006794  -0.01071278  -0.00794309  1
  Cu  Cu92  1  0.83951038  0.82784871  0.24779745  1
  Cu  Cu93  1  0.84279103  0.50575585  0.24620310  1
  Cu  Cu94  1  0.16810383  0.16733023  0.25847297  1
  Cu  Cu95  1  0.00265190  0.67043867  0.49953745  1
  Cu  Cu96  1  0.00979052  0.33163663  0.49997946  1
  Cu  Cu97  1  0.50655005  0.51069781  0.24337284  1
  Cu  Cu98  1  0.67123914  0.66752390  -0.00057165  1
  Cu  Cu99  1  0.84296929  0.16358176  0.24797159  1
  Cu  Cu100  1  0.66797201  0.33892087  0.00537624  1
  Cu  Cu101  1  0.00147050  0.67131188  0.00077874  1
  Cu  Cu102  1  0.16929243  0.16687725  0.74105981  1
  Cu  Cu103  1  0.15937773  0.83149102  0.25053911  1
  Cu  Cu104  1  0.00005486  -0.00599774  0.50370037  1
  Cu  Cu105  1  0.33572178  0.33794357  0.00946160  1
  Cu  Cu106  1  0.50332357  0.49957338  0.75564269  1
  Cu  Cu107  1  0.17067904  0.49965482  0.25393626  1
  Cu  Cu108  1  0.66099786  0.33961175  0.50287792  1
  Cu  Cu109  1  0.33907156  0.67116944  -0.00163453  1
  Cu  Cu110  1  0.83745634  0.83231177  0.75359628  1
  Cu  Cu111  1  0.83343261  0.16906105  0.74986393  1
  Cu  Cu112  1  0.49187593  0.15459286  0.74215771  1
  Cu  Cu113  1  0.33333619  0.33631624  0.49541897  1
  Cu  Cu114  1  0.15712489  0.50233372  0.74925344  1
  Se  Se115  1  0.07505942  0.07165673  0.05398686  1
  Se  Se116  1  0.08239506  0.08219279  0.55287502  1
  Se  Se117  1  0.08227112  0.41534171  0.06339396  1
  Se  Se118  1  0.08353640  0.42008231  0.55624460  1
  Se  Se119  1  0.08791771  0.75316746  0.05238170  1
  Se  Se120  1  0.08549792  0.75437711  0.55385131  1
  Se  Se121  1  0.39848059  0.07436305  0.05818475  1
  Se  Se122  1  0.43946026  0.08831628  0.55606104  1
  Se  Se123  1  0.42042187  0.42182645  0.05795221  1
  Se  Se124  1  0.40374773  0.41219829  0.56651226  1
  Se  Se125  1  0.42160032  0.75561536  0.05237354  1
  Se  Se126  1  0.40266041  0.74678152  0.56577349  1
  Se  Se127  1  0.73463255  0.07026843  0.04882055  1
  Se  Se128  1  0.74987282  0.07321517  0.56278798  1
  Se  Se129  1  0.75875911  0.42160064  0.05065762  1
  Se  Se130  1  0.74421266  0.41417584  0.56157017  1
  Se  Se131  1  0.75262806  0.75257333  0.05309053  1
  Se  Se132  1  0.74713063  0.74668760  0.54580968  1
  Se  Se133  1  0.25292463  0.25191813  0.06066355  1
  Se  Se134  1  0.25048109  0.25153028  0.54874162  1
  Se  Se135  1  0.25648519  0.59356124  0.06142164  1
  Se  Se136  1  0.24300227  0.58097805  0.55183175  1
  Se  Se137  1  0.24503427  0.90897172  0.04694088  1
  Se  Se138  1  0.25715789  0.91365514  0.56656981  1
  Se  Se139  1  0.59076178  0.25672573  0.06517838  1
  Se  Se140  1  0.57856392  0.25028500  0.54898912  1
  Se  Se141  1  0.58492324  0.58551536  0.05306075  1
  Se  Se142  1  0.58809261  0.60372786  0.55467146  1
  Se  Se143  1  0.57818538  0.92514908  0.04703940  1
  Se  Se144  1  0.58812816  0.91784476  0.56602538  1
  Se  Se145  1  0.92518361  0.25380211  0.06089860  1
  Se  Se146  1  0.92592732  0.24968310  0.55631690  1
  Se  Se147  1  0.91966214  0.58511872  0.05401507  1
  Se  Se148  1  0.92245880  0.59067249  0.56172924  1
  Se  Se149  1  0.91789533  0.91390911  0.05163623  1
  Se  Se150  1  0.91575139  0.91018146  0.55412629  1
  Se  Se151  1  0.08952856  0.24581571  0.44610810  1
  Se  Se152  1  0.07809498  0.25961740  0.94425463  1
  Se  Se153  1  0.08465538  0.58265877  0.44908899  1
  Se  Se154  1  0.07916063  0.59679782  0.93362865  1
  Se  Se155  1  0.08342728  0.91413017  0.44623538  1
  Se  Se156  1  0.08599939  0.91149181  0.93581694  1
  Se  Se157  1  0.41917981  0.25309181  0.44550818  1
  Se  Se158  1  0.40710125  0.25421415  0.94454209  1
  Se  Se159  1  0.40970400  0.59398828  0.44244422  1
  Se  Se160  1  0.42095612  0.58073703  0.95068222  1
  Se  Se161  1  0.39970647  0.92528150  0.44663791  1
  Se  Se162  1  0.41717590  0.91150070  0.93799506  1
  Se  Se163  1  0.74277267  0.26085659  0.44210233  1
  Se  Se164  1  0.74239664  0.25728213  0.94129543  1
  Se  Se165  1  0.74054817  0.59397600  0.44078557  1
  Se  Se166  1  0.75528161  0.58224549  0.94923562  1
  Se  Se167  1  0.75088863  0.91023998  0.45174812  1
  Se  Se168  1  0.76096199  0.91805361  0.95207904  1
  Se  Se169  1  0.25579511  0.08050707  0.45613847  1
  Se  Se170  1  0.24650709  0.06218143  0.93061337  1
  Se  Se171  1  0.25005016  0.42297241  0.44624271  1
  Se  Se172  1  0.25598634  0.41342363  0.94573182  1
  Se  Se173  1  0.24402338  0.75398880  0.44683900  1
  Se  Se174  1  0.25201430  0.74719422  0.94207545  1
  Se  Se175  1  0.58475547  0.08031515  0.45080063  1
  Se  Se176  1  0.57046362  0.07471059  0.93148794  1
  Se  Se177  1  0.58110189  0.41692811  0.44148188  1
  Se  Se178  1  0.58000483  0.41920410  0.95402660  1
  Se  Se179  1  0.57665418  0.74909547  0.43649895  1
  Se  Se180  1  0.58357591  0.75152036  0.95084839  1
  Se  Se181  1  0.92483841  0.07375932  0.43697295  1
  Se  Se182  1  0.92266349  0.07883289  0.93521082  1
  Se  Se183  1  0.92602248  0.41047237  0.44157063  1
  Se  Se184  1  0.91965199  0.42586279  0.94613840  1
  Se  Se185  1  0.91730312  0.75005958  0.44448727  1
  Se  Se186  1  0.91442380  0.75267811  0.94888304  1
  Se  Se187  1  0.25273981  0.25118690  0.30884538  1
  Se  Se188  1  0.24130223  0.23980046  0.81384149  1
  Se  Se189  1  0.25126351  0.58739975  0.30613374  1
  Se  Se190  1  0.24598057  0.57934421  0.80300895  1
  Se  Se191  1  0.23912327  0.90948589  0.31408585  1
  Se  Se192  1  0.26347386  0.91775507  0.79228977  1
  Se  Se193  1  0.58429793  0.24254295  0.30908611  1
  Se  Se194  1  0.56811666  0.23817989  0.80426772  1
  Se  Se195  1  0.59039169  0.59370875  0.29577959  1
  Se  Se196  1  0.58126403  0.57993153  0.81583505  1
  Se  Se197  1  0.57363567  0.91201616  0.30825546  1
  Se  Se198  1  0.60292436  0.91818116  0.80237683  1
  Se  Se199  1  0.92487173  0.25004049  0.29889048  1
  Se  Se200  1  0.91420731  0.25314247  0.80407935  1
  Se  Se201  1  0.92149083  0.58928297  0.30377328  1
  Se  Se202  1  0.92282989  0.60079995  0.80080575  1
  Se  Se203  1  0.91979823  0.91360385  0.30169073  1
  Se  Se204  1  0.91829087  0.92102310  0.80479202  1
  Se  Se205  1  0.08620685  0.07653550  0.30538848  1
  Se  Se206  1  0.08657405  0.08688922  0.79870708  1
  Se  Se207  1  0.08582021  0.41577756  0.30655982  1
  Se  Se208  1  0.07588588  0.41634077  0.80138715  1
  Se  Se209  1  0.08075840  0.74479674  0.30526196  1
  Se  Se210  1  0.08577649  0.76449092  0.79687926  1
  Se  Se211  1  0.42159623  0.09101556  0.31354153  1
  Se  Se212  1  0.40549607  0.07464585  0.79490522  1
  Se  Se213  1  0.42499237  0.42949955  0.30078345  1
  Se  Se214  1  0.42195635  0.41622820  0.81314147  1
  Se  Se215  1  0.41012520  0.75117339  0.29777730  1
  Se  Se216  1  0.41471858  0.74092325  0.80318329  1
  Se  Se217  1  0.76126087  0.08524696  0.30805497  1
  Se  Se218  1  0.74739836  0.08670744  0.80094262  1
  Se  Se219  1  0.76436460  0.43062396  0.31352256  1
  Se  Se220  1  0.75577307  0.42709440  0.80862463  1
  Se  Se221  1  0.74917040  0.75293720  0.30211905  1
  Se  Se222  1  0.75448882  0.76063875  0.81820245  1
  Se  Se223  1  0.24126140  0.08991526  0.18906712  1
  Se  Se224  1  0.24800550  0.08456534  0.68394343  1
  Se  Se225  1  0.25678875  0.41738281  0.20098773  1
  Se  Se226  1  0.24209388  0.41951693  0.69253280  1
  Se  Se227  1  0.24812789  0.75351711  0.19661462  1
  Se  Se228  1  0.26407341  0.72539900  0.69730025  1
  Se  Se229  1  0.56918865  0.09264846  0.19764331  1
  Se  Se230  1  0.58757164  0.07684569  0.69699807  1
  Se  Se231  1  0.58861780  0.42618423  0.18706444  1
  Se  Se232  1  0.57965691  0.41992683  0.69368229  1
  Se  Se233  1  0.58824012  0.75402309  0.19210117  1
  Se  Se234  1  0.58289173  0.75547717  0.69353491  1
  Se  Se235  1  0.91825180  0.07592551  0.19250126  1
  Se  Se236  1  0.91907607  0.08465551  0.69879020  1
  Se  Se237  1  0.92302866  0.41342555  0.19969615  1
  Se  Se238  1  0.90992686  0.42174374  0.70238878  1
  Se  Se239  1  0.92406830  0.74710902  0.19307644  1
  Se  Se240  1  0.91652618  0.75103134  0.69555990  1
  Se  Se241  1  0.08561116  0.24884296  0.20035223  1
  Se  Se242  1  0.08212418  0.25583583  0.69719791  1
  Se  Se243  1  0.08636850  0.58216113  0.19935373  1
  Se  Se244  1  0.08081994  0.58764277  0.69247134  1
  Se  Se245  1  0.08134186  0.91808797  0.19566523  1
  Se  Se246  1  0.07479233  0.92076252  0.69982742  1
  Se  Se247  1  0.41867061  0.25415350  0.20773711  1
  Se  Se248  1  0.40987076  0.23407571  0.68399966  1
  Se  Se249  1  0.41843180  0.59265134  0.19340337  1
  Se  Se250  1  0.41820009  0.58093137  0.70337071  1
  Se  Se251  1  0.41515425  0.91463020  0.19056140  1
  Se  Se252  1  0.43033848  0.89956521  0.70526356  1
  Se  Se253  1  0.75771223  0.24305186  0.19100460  1
  Se  Se254  1  0.75425186  0.24188264  0.68316618  1
  Se  Se255  1  0.75572595  0.58764924  0.19550682  1
  Se  Se256  1  0.76009113  0.57810584  0.69232856  1
  Se  Se257  1  0.75720862  0.90674891  0.18562377  1
  Se  Se258  1  0.75332615  0.91352090  0.69821876  1
