# generated using pymatgen
data_In86Cu29Se144
_symmetry_space_group_name_H-M   'P 1'
_cell_length_a   17.59974016
_cell_length_b   17.58996200
_cell_length_c   23.45761605
_cell_angle_alpha   89.99235890
_cell_angle_beta   89.95876930
_cell_angle_gamma   90.03740003
_symmetry_Int_Tables_number   1
_chemical_formula_structural   In86Cu29Se144
_chemical_formula_sum   'In86 Cu29 Se144'
_cell_volume   7261.97621346
_cell_formula_units_Z   1
loop_
 _symmetry_equiv_pos_site_id
 _symmetry_equiv_pos_as_xyz
  1  'x, y, z'
loop_
 _atom_site_type_symbol
 _atom_site_label
 _atom_site_symmetry_multiplicity
 _atom_site_fract_x
 _atom_site_fract_y
 _atom_site_fract_z
 _atom_site_occupancy
  In  In0  1  0.00885108  0.17608276  0.12341336  1
  In  In1  1  0.00551119  0.16181532  0.63172007  1
  In  In2  1  0.02008958  0.48608573  0.12821093  1
  In  In3  1  -0.00455083  0.49502539  0.63735431  1
  In  In4  1  -0.01466596  0.82934034  0.12435924  1
  In  In5  1  0.00361205  0.83362356  0.62635015  1
  In  In6  1  0.34268042  0.15747155  0.13857939  1
  In  In7  1  0.34643712  0.18987234  0.60188696  1
  In  In8  1  0.32259106  0.50876486  0.13118066  1
  In  In9  1  0.33520319  0.47671300  0.61949343  1
  In  In10  1  0.35019279  0.82238535  0.13043851  1
  In  In11  1  0.32847775  0.84580688  0.61849185  1
  In  In12  1  0.66179158  0.17402491  0.12844411  1
  In  In13  1  0.65629500  0.17159302  0.63474318  1
  In  In14  1  0.67051676  0.49631841  0.13376998  1
  In  In15  1  0.66287115  0.50077773  0.63218597  1
  In  In16  1  0.64930831  0.84586745  0.13417821  1
  In  In17  1  0.67271587  0.82724964  0.63304468  1
  In  In18  1  0.17341426  -0.00838554  0.37931626  1
  In  In19  1  0.16901798  0.01180554  0.87364323  1
  In  In20  1  0.16433911  0.33043357  0.37495637  1
  In  In21  1  0.16914884  0.33614651  0.86955319  1
  In  In22  1  0.17293443  0.67461578  0.36968027  1
  In  In23  1  0.15267125  0.66825050  0.87600885  1
  In  In24  1  0.50579806  0.01265022  0.36983458  1
  In  In25  1  0.51540698  -0.00489319  0.89087330  1
  In  In26  1  0.49507749  0.32794000  0.38037064  1
  In  In27  1  0.49587035  0.32932761  0.87124057  1
  In  In28  1  0.48986760  0.65437859  0.36720660  1
  In  In29  1  0.50892479  0.66327872  0.88093010  1
  In  In30  1  0.81656526  0.01161581  0.37193646  1
  In  In31  1  0.82587507  0.00530196  0.86143366  1
  In  In32  1  0.83223757  0.32216632  0.36008976  1
  In  In33  1  0.83738230  0.33869765  0.85721992  1
  In  In34  1  0.82838687  0.66146664  0.36975257  1
  In  In35  1  0.83408583  0.66210768  0.86635533  1
  In  In36  1  -0.00260010  0.18491805  0.37315566  1
  In  In37  1  0.00013601  0.17032794  0.85838162  1
  In  In38  1  -0.00554597  0.49390650  0.37034149  1
  In  In39  1  0.00451163  0.50435085  0.87015243  1
  In  In40  1  0.01325966  0.83626550  0.37260520  1
  In  In41  1  -0.00610363  0.82721098  0.86648131  1
  In  In42  1  0.33526786  0.17023632  0.37557821  1
  In  In43  1  0.33974713  0.18070769  0.87584106  1
  In  In44  1  0.33739049  0.50188796  0.37310066  1
  In  In45  1  0.33832062  0.48363412  0.87859071  1
  In  In46  1  0.32631063  0.82516546  0.36805384  1
  In  In47  1  0.33720383  0.84426219  0.88331914  1
  In  In48  1  0.66148205  0.15768237  0.36610739  1
  In  In49  1  0.65876281  0.16613623  0.86711925  1
  In  In50  1  0.65299313  0.48380949  0.36777374  1
  In  In51  1  0.67191306  0.50176366  0.86228969  1
  In  In52  1  0.66129979  0.83221188  0.36926816  1
  In  In53  1  0.66336298  0.83263037  0.87524918  1
  In  In54  1  0.17113104  0.01502107  0.12704895  1
  In  In55  1  0.16302873  0.00484814  0.61796827  1
  In  In56  1  0.16245275  0.34681474  0.13141260  1
  In  In57  1  0.17692648  0.32567209  0.62866620  1
  In  In58  1  0.18408210  0.64911280  0.13228638  1
  In  In59  1  0.15263073  0.66636249  0.62099826  1
  In  In60  1  0.50577601  -0.00047428  0.12417612  1
  In  In61  1  0.49359220  0.01150649  0.62324174  1
  In  In62  1  0.50765944  0.32395872  0.13249835  1
  In  In63  1  0.49970347  0.33204969  0.62258576  1
  In  In64  1  0.48794416  0.67863632  0.13166820  1
  In  In65  1  0.51594356  0.66354023  0.62504355  1
  In  In66  1  0.82260467  -0.00417579  0.12401671  1
  In  In67  1  0.82871119  0.01384050  0.64114207  1
  In  In68  1  0.83650324  0.32919039  0.13402254  1
  In  In69  1  0.83203496  0.32671356  0.65238857  1
  In  In70  1  0.83490796  0.66529391  0.13046079  1
  In  In71  1  0.83372809  0.65897245  0.63720770  1
  In  In72  1  0.49672975  0.50071770  0.00379329  1
  In  In73  1  0.83060434  0.49447481  0.51307880  1
  In  In74  1  0.17106443  0.82761295  0.00400901  1
  In  In75  1  -0.00350443  0.00109764  0.24818355  1
  In  In76  1  0.83558248  0.16954051  0.50395882  1
  In  In77  1  0.83357502  0.49924834  -0.01033420  1
  In  In78  1  0.82588206  0.83207015  -0.01149894  1
  In  In79  1  0.49659646  0.83378786  0.49569977  1
  In  In80  1  0.33116200  0.00737790  0.74665202  1
  In  In81  1  0.83637804  0.83165436  0.51325520  1
  In  In82  1  0.33454976  0.66214353  0.75144255  1
  In  In83  1  0.82890587  0.17297984  0.00250529  1
  In  In84  1  0.17307226  0.17361778  -0.00492882  1
  In  In85  1  0.17030480  0.49911384  0.49581217  1
  Cu  Cu86  1  0.82934558  0.82909634  0.24995490  1
  Cu  Cu87  1  0.34742948  -0.00039485  0.01062931  1
  Cu  Cu88  1  0.00712921  0.65325628  0.00297393  1
  Cu  Cu89  1  0.65985078  0.67599028  0.00528412  1
  Cu  Cu90  1  0.66005086  0.64968689  0.49913939  1
  Cu  Cu91  1  0.16651505  0.83038036  0.24843232  1
  Cu  Cu92  1  0.00369665  0.67578071  0.49888706  1
  Cu  Cu93  1  -0.00100718  0.33523758  0.50153807  1
  Cu  Cu94  1  0.33263375  0.66655406  0.49311341  1
  Cu  Cu95  1  0.49961619  0.49286327  0.74968249  1
  Cu  Cu96  1  0.66243108  0.33005977  0.50097742  1
  Cu  Cu97  1  0.83377151  0.83797307  0.75062236  1
  Cu  Cu98  1  0.16840351  0.16941851  0.74576354  1
  Cu  Cu99  1  0.33357020  0.33030892  0.00410771  1
  Cu  Cu100  1  0.16638235  0.50052692  0.25557906  1
  Cu  Cu101  1  0.83779364  0.50411549  0.24917846  1
  Cu  Cu102  1  0.50204545  0.49635221  0.24966034  1
  Cu  Cu103  1  -0.00250405  0.00110139  -0.01271616  1
  Cu  Cu104  1  0.50817492  0.83351506  0.75501808  1
  Cu  Cu105  1  0.49655611  0.16679807  0.74748795  1
  Cu  Cu106  1  0.16108199  0.83214890  0.74621491  1
  Cu  Cu107  1  0.32681344  0.00551284  0.49574148  1
  Cu  Cu108  1  0.66280921  -0.00060771  0.49792588  1
  Cu  Cu109  1  0.16950557  0.16938405  0.25319303  1
  Cu  Cu110  1  0.66511340  0.33289544  -0.00078082  1
  Cu  Cu111  1  0.49716688  0.17029759  0.25241759  1
  Cu  Cu112  1  0.00630312  0.00678637  0.50070550  1
  Cu  Cu113  1  0.16560715  0.49813198  0.74743046  1
  Cu  Cu114  1  0.50210395  0.83963377  0.25120723  1
  Se  Se115  1  0.07676581  0.07727677  0.05018765  1
  Se  Se116  1  0.08469561  0.09592611  0.55167044  1
  Se  Se117  1  0.08918953  0.41171204  0.04985810  1
  Se  Se118  1  0.07736587  0.41785633  0.56115375  1
  Se  Se119  1  0.07697322  0.74182509  0.06354108  1
  Se  Se120  1  0.08602200  0.75927738  0.55107504  1
  Se  Se121  1  0.42279836  0.09218222  0.06002165  1
  Se  Se122  1  0.41803058  0.08263923  0.54642338  1
  Se  Se123  1  0.41202170  0.40995135  0.06654074  1
  Se  Se124  1  0.41880224  0.40750005  0.54835277  1
  Se  Se125  1  0.41416174  0.74458189  0.05126891  1
  Se  Se126  1  0.41102497  0.74230805  0.56032674  1
  Se  Se127  1  0.73823375  0.07869916  0.05566486  1
  Se  Se128  1  0.74256098  0.07777406  0.55995264  1
  Se  Se129  1  0.74795165  0.41197776  0.05711206  1
  Se  Se130  1  0.74496699  0.39676353  0.56865672  1
  Se  Se131  1  0.74696873  0.75093240  0.06242178  1
  Se  Se132  1  0.74058552  0.73195032  0.55817994  1
  Se  Se133  1  0.25645151  0.25062957  0.06769058  1
  Se  Se134  1  0.23848128  0.25347263  0.54579375  1
  Se  Se135  1  0.24879454  0.57707684  0.05131336  1
  Se  Se136  1  0.25773117  0.58861683  0.56104997  1
  Se  Se137  1  0.25614293  0.92343999  0.06383257  1
  Se  Se138  1  0.24523923  0.92030843  0.54841852  1
  Se  Se139  1  0.58279873  0.25178259  0.05357927  1
  Se  Se140  1  0.58372042  0.24331315  0.55583247  1
  Se  Se141  1  0.58900300  0.58739362  0.06468845  1
  Se  Se142  1  0.57885560  0.56891529  0.55446555  1
  Se  Se143  1  0.58338209  0.91531234  0.05332005  1
  Se  Se144  1  0.58862847  0.91626276  0.56066869  1
  Se  Se145  1  0.92608566  0.26340512  0.05488168  1
  Se  Se146  1  0.91834000  0.26214391  0.56704553  1
  Se  Se147  1  0.91932320  0.57949295  0.06063313  1
  Se  Se148  1  0.92724383  0.59258878  0.56004082  1
  Se  Se149  1  0.91925559  0.92397793  0.04999230  1
  Se  Se150  1  0.92033204  0.93537909  0.56334384  1
  Se  Se151  1  0.08116025  0.25268731  0.44804833  1
  Se  Se152  1  0.07537890  0.25260826  0.93662150  1
  Se  Se153  1  0.07577696  0.58876610  0.43884658  1
  Se  Se154  1  0.08865696  0.57421967  0.94667526  1
  Se  Se155  1  0.08249239  0.91653652  0.44844646  1
  Se  Se156  1  0.08219605  0.91624129  0.93656388  1
  Se  Se157  1  0.42633073  0.23400609  0.44845211  1
  Se  Se158  1  0.42142541  0.25345553  0.94987328  1
  Se  Se159  1  0.41793227  0.58102983  0.44670637  1
  Se  Se160  1  0.40646910  0.58835694  0.94252542  1
  Se  Se161  1  0.40882083  0.92406223  0.43559922  1
  Se  Se162  1  0.42395836  0.91396175  0.95426492  1
  Se  Se163  1  0.74600908  0.25421650  0.43990548  1
  Se  Se164  1  0.74796966  0.26207661  0.93486670  1
  Se  Se165  1  0.74628476  0.57488527  0.44140539  1
  Se  Se166  1  0.73661857  0.59606147  0.94148547  1
  Se  Se167  1  0.74608461  0.91596482  0.44487291  1
  Se  Se168  1  0.74106227  0.93451327  0.93960651  1
  Se  Se169  1  0.24440106  0.08928325  0.44261486  1
  Se  Se170  1  0.26792366  0.07460607  0.94484779  1
  Se  Se171  1  0.26124416  0.40681817  0.44251803  1
  Se  Se172  1  0.25044294  0.40794859  0.94706386  1
  Se  Se173  1  0.24809377  0.75256470  0.44587987  1
  Se  Se174  1  0.25695074  0.74076445  0.93986312  1
  Se  Se175  1  0.58533506  0.08652733  0.44546910  1
  Se  Se176  1  0.57683130  0.10500993  0.94610237  1
  Se  Se177  1  0.58103190  0.41403115  0.44807156  1
  Se  Se178  1  0.58984742  0.41838845  0.93910753  1
  Se  Se179  1  0.58749753  0.73825523  0.44091080  1
  Se  Se180  1  0.57956763  0.75628880  0.94846658  1
  Se  Se181  1  0.92165896  0.07895880  0.43866588  1
  Se  Se182  1  0.91716939  0.08569505  0.93435119  1
  Se  Se183  1  0.91199634  0.40759847  0.44241522  1
  Se  Se184  1  0.92344742  0.40654176  0.93561823  1
  Se  Se185  1  0.91666146  0.74839254  0.44017054  1
  Se  Se186  1  0.92634859  0.73519862  0.94353758  1
  Se  Se187  1  0.25193925  0.25335522  0.30609075  1
  Se  Se188  1  0.25156672  0.24785980  0.80371253  1
  Se  Se189  1  0.25280288  0.58466016  0.30578474  1
  Se  Se190  1  0.24406662  0.57499480  0.81212835  1
  Se  Se191  1  0.24731959  0.91548871  0.30199823  1
  Se  Se192  1  0.24378389  0.90955131  0.80668256  1
  Se  Se193  1  0.58099950  0.25287766  0.30696650  1
  Se  Se194  1  0.57937469  0.25354637  0.79923138  1
  Se  Se195  1  0.58570790  0.58264041  0.30209320  1
  Se  Se196  1  0.57538429  0.58293258  0.80349299  1
  Se  Se197  1  0.58620511  0.92333396  0.30384602  1
  Se  Se198  1  0.58357774  0.92248927  0.80862684  1
  Se  Se199  1  0.92137457  0.24768946  0.29363621  1
  Se  Se200  1  0.92022119  0.25359665  0.79226840  1
  Se  Se201  1  0.92046839  0.58635324  0.30415368  1
  Se  Se202  1  0.91906429  0.58232371  0.80184434  1
  Se  Se203  1  0.90628773  0.91213779  0.31213756  1
  Se  Se204  1  0.91910766  0.92061881  0.80257393  1
  Se  Se205  1  0.08640637  0.08634010  0.31153152  1
  Se  Se206  1  0.08905122  0.08122050  0.79856942  1
  Se  Se207  1  0.08259077  0.41367041  0.30581979  1
  Se  Se208  1  0.08269291  0.41529594  0.80177178  1
  Se  Se209  1  0.08118860  0.74819104  0.30062106  1
  Se  Se210  1  0.08070312  0.74635327  0.79951142  1
  Se  Se211  1  0.41258359  0.08419364  0.30319986  1
  Se  Se212  1  0.42289658  0.08532696  0.81245613  1
  Se  Se213  1  0.42065372  0.41586668  0.30786409  1
  Se  Se214  1  0.41279486  0.41137804  0.80120225  1
  Se  Se215  1  0.41937866  0.75157284  0.30249581  1
  Se  Se216  1  0.42065347  0.75748863  0.81172717  1
  Se  Se217  1  0.75567175  0.09342181  0.29579782  1
  Se  Se218  1  0.75246487  0.09878874  0.79714201  1
  Se  Se219  1  0.75405427  0.42009965  0.30226952  1
  Se  Se220  1  0.74032596  0.41044549  0.79524235  1
  Se  Se221  1  0.74530388  0.74692302  0.30430098  1
  Se  Se222  1  0.75168526  0.75571717  0.80717363  1
  Se  Se223  1  0.25084079  0.07991756  0.20494930  1
  Se  Se224  1  0.25151003  0.09717013  0.68172618  1
  Se  Se225  1  0.25169086  0.41809570  0.20214081  1
  Se  Se226  1  0.25227075  0.41517805  0.69776550  1
  Se  Se227  1  0.25295474  0.74969718  0.19506719  1
  Se  Se228  1  0.24749150  0.75511775  0.68879522  1
  Se  Se229  1  0.57960320  0.08807614  0.19566587  1
  Se  Se230  1  0.57781930  0.07673163  0.69843237  1
  Se  Se231  1  0.58747769  0.41201550  0.19950397  1
  Se  Se232  1  0.58195916  0.40924508  0.69560310  1
  Se  Se233  1  0.58207420  0.74814812  0.20021581  1
  Se  Se234  1  0.58505844  0.74696473  0.69990224  1
  Se  Se235  1  0.91254737  0.08911595  0.18338755  1
  Se  Se236  1  0.93161165  0.07613034  0.70154664  1
  Se  Se237  1  0.92000778  0.42070649  0.19455226  1
  Se  Se238  1  0.89769398  0.43612158  0.70505783  1
  Se  Se239  1  0.91739918  0.74798699  0.20024714  1
  Se  Se240  1  0.91576395  0.75576181  0.69422152  1
  Se  Se241  1  0.08728584  0.25072976  0.19724117  1
  Se  Se242  1  0.08306878  0.25579814  0.69629194  1
  Se  Se243  1  0.08464614  0.58240200  0.19785212  1
  Se  Se244  1  0.08403468  0.58505059  0.69634931  1
  Se  Se245  1  0.08783168  0.91083564  0.18610219  1
  Se  Se246  1  0.08753213  0.92109725  0.69103255  1
  Se  Se247  1  0.41318398  0.25648474  0.20200656  1
  Se  Se248  1  0.41383193  0.24660596  0.69035149  1
  Se  Se249  1  0.41835839  0.58074782  0.19702180  1
  Se  Se250  1  0.42136476  0.57465863  0.68770420  1
  Se  Se251  1  0.41915010  0.92027831  0.19491101  1
  Se  Se252  1  0.42416185  0.90788230  0.69345099  1
  Se  Se253  1  0.74700233  0.25190582  0.19684958  1
  Se  Se254  1  0.76327148  0.21646105  0.70307659  1
  Se  Se255  1  0.74989646  0.58583524  0.19877309  1
  Se  Se256  1  0.73650083  0.59090141  0.69940176  1
  Se  Se257  1  0.74880649  0.91657809  0.19823572  1
  Se  Se258  1  0.74597644  0.91903519  0.69967833  1
