# generated using pymatgen
data_In86Cu29Se144
_symmetry_space_group_name_H-M   'P 1'
_cell_length_a   17.57190432
_cell_length_b   17.57103395
_cell_length_c   23.43560599
_cell_angle_alpha   89.98612919
_cell_angle_beta   89.98032266
_cell_angle_gamma   89.98687912
_symmetry_Int_Tables_number   1
_chemical_formula_structural   In86Cu29Se144
_chemical_formula_sum   'In86 Cu29 Se144'
_cell_volume   7235.89549191
_cell_formula_units_Z   1
loop_
 _symmetry_equiv_pos_site_id
 _symmetry_equiv_pos_as_xyz
  1  'x, y, z'
loop_
 _atom_site_type_symbol
 _atom_site_label
 _atom_site_symmetry_multiplicity
 _atom_site_fract_x
 _atom_site_fract_y
 _atom_site_fract_z
 _atom_site_occupancy
  In  In0  1  -0.02144444  0.16559140  0.12926064  1
  In  In1  1  0.00770550  0.17588557  0.61481008  1
  In  In2  1  0.01551662  0.50220409  0.13031296  1
  In  In3  1  -0.00016678  0.48017713  0.62286108  1
  In  In4  1  0.00006449  0.83706698  0.13097285  1
  In  In5  1  -0.00943333  0.84596963  0.62107289  1
  In  In6  1  0.34785093  0.16885826  0.12311504  1
  In  In7  1  0.32577299  0.16160814  0.62185221  1
  In  In8  1  0.33525762  0.49743529  0.13631191  1
  In  In9  1  0.33734103  0.50251670  0.61601455  1
  In  In10  1  0.31773688  0.83207455  0.12361188  1
  In  In11  1  0.34975555  0.82745009  0.64526341  1
  In  In12  1  0.66894660  0.16506932  0.13131292  1
  In  In13  1  0.66820956  0.16728363  0.62324960  1
  In  In14  1  0.65774291  0.49410465  0.13097120  1
  In  In15  1  0.65741814  0.50617557  0.62784309  1
  In  In16  1  0.68353128  0.83555455  0.12272688  1
  In  In17  1  0.66721095  0.82816619  0.63045852  1
  In  In18  1  0.16818667  0.01586524  0.37508451  1
  In  In19  1  0.15745018  -0.00660144  0.87540903  1
  In  In20  1  0.17812355  0.32474282  0.38088354  1
  In  In21  1  0.16978133  0.34663896  0.86746093  1
  In  In22  1  0.16217447  0.66220029  0.37514802  1
  In  In23  1  0.17829911  0.66588257  0.87174788  1
  In  In24  1  0.52477149  0.00441510  0.37072646  1
  In  In25  1  0.51424000  0.00463732  0.86327270  1
  In  In26  1  0.49987601  0.33197875  0.38016743  1
  In  In27  1  0.49828560  0.31501557  0.87679370  1
  In  In28  1  0.48614805  0.67642167  0.37348476  1
  In  In29  1  0.49812609  0.67189755  0.86040505  1
  In  In30  1  0.82989431  0.00301979  0.37518116  1
  In  In31  1  0.82821582  0.01063342  0.88122611  1
  In  In32  1  0.81523297  0.32755412  0.36580819  1
  In  In33  1  0.82076798  0.32142360  0.86725553  1
  In  In34  1  0.84695140  0.66168604  0.37378916  1
  In  In35  1  0.83833773  0.68231851  0.87552841  1
  In  In36  1  0.00218983  0.16372717  0.37379816  1
  In  In37  1  -0.01424181  0.15793430  0.87383395  1
  In  In38  1  -0.00302856  0.51422184  0.37274425  1
  In  In39  1  0.01433999  0.49316331  0.86776322  1
  In  In40  1  -0.01023266  0.82645224  0.37204276  1
  In  In41  1  -0.00513169  0.84638290  0.88691058  1
  In  In42  1  0.32555131  0.17453316  0.38416320  1
  In  In43  1  0.35585260  0.17705784  0.87658299  1
  In  In44  1  0.33601403  0.49950838  0.38161262  1
  In  In45  1  0.32350739  0.51025113  0.86945939  1
  In  In46  1  0.35092290  0.82341653  0.37041661  1
  In  In47  1  0.32777380  0.82821093  0.86892344  1
  In  In48  1  0.66515842  0.16542467  0.37949357  1
  In  In49  1  0.66770379  0.16354972  0.87270919  1
  In  In50  1  0.66987344  0.48402318  0.37486557  1
  In  In51  1  0.66166090  0.49696056  0.86436613  1
  In  In52  1  0.66590646  0.86391574  0.36801643  1
  In  In53  1  0.67395833  0.84795606  0.86175266  1
  In  In54  1  0.16939375  -0.01689158  0.12637530  1
  In  In55  1  0.17520864  0.01599343  0.62692631  1
  In  In56  1  0.17044247  0.34028181  0.12821708  1
  In  In57  1  0.16013298  0.32599837  0.61946554  1
  In  In58  1  0.15945981  0.67202685  0.13347798  1
  In  In59  1  0.18030165  0.66296282  0.62502736  1
  In  In60  1  0.49918972  0.01808727  0.12515974  1
  In  In61  1  0.49040379  0.00776586  0.63385449  1
  In  In62  1  0.50929897  0.32585422  0.13334301  1
  In  In63  1  0.50720892  0.34203852  0.61782773  1
  In  In64  1  0.49768469  0.65393161  0.12920464  1
  In  In65  1  0.50898186  0.66239681  0.62942599  1
  In  In66  1  0.83281970  0.00167347  0.13171182  1
  In  In67  1  0.82467395  -0.00644955  0.61641139  1
  In  In68  1  0.82966309  0.31495195  0.12879388  1
  In  In69  1  0.84358796  0.32184920  0.62753383  1
  In  In70  1  0.83102051  0.68673622  0.12471480  1
  In  In71  1  0.81635205  0.66541391  0.62060112  1
  In  In72  1  -0.00851615  0.33493140  0.25596016  1
  In  In73  1  0.00101068  0.00770460  0.74794311  1
  In  In74  1  0.66980269  0.66596278  0.24782670  1
  In  In75  1  0.50233131  0.83594656  -0.00588247  1
  In  In76  1  0.33541456  0.33357342  0.74888414  1
  In  In77  1  0.50404124  0.83687485  0.49863884  1
  In  In78  1  0.17100220  0.50084158  -0.00599713  1
  In  In79  1  0.33397902  -0.00056697  0.24845119  1
  In  In80  1  0.00087159  0.66222494  0.75045197  1
  In  In81  1  0.49846017  0.49417648  0.00359021  1
  In  In82  1  0.16481685  0.16576760  -0.00140546  1
  In  In83  1  0.16629946  0.84114277  0.50800111  1
  In  In84  1  0.83488659  0.49316176  0.49578943  1
  In  In85  1  0.83737010  0.49944075  0.00452318  1
  Cu  Cu86  1  0.49555639  0.49701757  0.25660432  1
  Cu  Cu87  1  0.66401519  0.67252097  0.50280772  1
  Cu  Cu88  1  0.67468453  0.67179790  -0.00586930  1
  Cu  Cu89  1  0.82825668  0.16426598  0.74808641  1
  Cu  Cu90  1  0.16564696  0.16981211  0.25319421  1
  Cu  Cu91  1  -0.00887934  0.32662223  -0.00394188  1
  Cu  Cu92  1  0.00094505  0.66495701  0.49626791  1
  Cu  Cu93  1  0.33449499  0.00064222  0.00074035  1
  Cu  Cu94  1  -0.00277972  -0.00138531  0.00737572  1
  Cu  Cu95  1  0.16884148  0.83243418  0.75324125  1
  Cu  Cu96  1  0.17541216  0.50197290  0.25609661  1
  Cu  Cu97  1  0.33356254  0.66408773  0.49921292  1
  Cu  Cu98  1  0.50909251  0.16886343  0.74797253  1
  Cu  Cu99  1  0.33691315  0.00239814  0.50417941  1
  Cu  Cu100  1  0.82667977  0.83401778  0.74860201  1
  Cu  Cu101  1  0.66926870  0.00400407  -0.00187242  1
  Cu  Cu102  1  0.00405357  0.68041770  0.00501083  1
  Cu  Cu103  1  0.16494023  0.82909974  0.25293464  1
  Cu  Cu104  1  -0.00459784  0.00375405  0.49752872  1
  Cu  Cu105  1  0.33622944  0.33325976  0.50260573  1
  Cu  Cu106  1  0.83595943  0.83849166  0.25155042  1
  Cu  Cu107  1  0.50135641  0.17091800  0.25399574  1
  Cu  Cu108  1  0.66585280  0.33048485  0.50022291  1
  Cu  Cu109  1  0.66965307  0.00697110  0.49991368  1
  Cu  Cu110  1  0.49895072  0.49920197  0.74326219  1
  Cu  Cu111  1  0.82945797  0.49732389  0.74306408  1
  Cu  Cu112  1  0.66606409  0.31745641  0.00111685  1
  Cu  Cu113  1  0.00355307  0.32813397  0.49511979  1
  Cu  Cu114  1  0.32906443  0.66989711  -0.00213746  1
  Se  Se115  1  0.07908658  0.08034103  0.06582065  1
  Se  Se116  1  0.08442031  0.07796578  0.55304463  1
  Se  Se117  1  0.07518114  0.40753813  0.05229754  1
  Se  Se118  1  0.08461265  0.41398792  0.54753252  1
  Se  Se119  1  0.08875556  0.75782148  0.06065019  1
  Se  Se120  1  0.07505964  0.74357910  0.56279829  1
  Se  Se121  1  0.41936753  0.08667402  0.04776388  1
  Se  Se122  1  0.42094292  0.08671595  0.55583287  1
  Se  Se123  1  0.41087257  0.40750610  0.06525358  1
  Se  Se124  1  0.42200032  0.42088347  0.54874122  1
  Se  Se125  1  0.41545824  0.74369246  0.05811302  1
  Se  Se126  1  0.41186108  0.74781694  0.55909198  1
  Se  Se127  1  0.74869917  0.08128262  0.06020238  1
  Se  Se128  1  0.75486591  0.09096637  0.55120146  1
  Se  Se129  1  0.74050724  0.40869342  0.05817270  1
  Se  Se130  1  0.74602270  0.41178380  0.56217440  1
  Se  Se131  1  0.75577672  0.75727205  0.04571551  1
  Se  Se132  1  0.74809384  0.75824402  0.55186626  1
  Se  Se133  1  0.25393730  0.25613331  0.05869693  1
  Se  Se134  1  0.24996158  0.24838594  0.55203666  1
  Se  Se135  1  0.25553685  0.58701105  0.06170364  1
  Se  Se136  1  0.24628982  0.58099915  0.54790651  1
  Se  Se137  1  0.24894813  0.91495208  0.04790991  1
  Se  Se138  1  0.26754209  0.91714344  0.56780502  1
  Se  Se139  1  0.58146150  0.24241306  0.05925205  1
  Se  Se140  1  0.58231362  0.24722268  0.55342596  1
  Se  Se141  1  0.59557683  0.59163097  0.05439547  1
  Se  Se142  1  0.58211989  0.58493312  0.55198289  1
  Se  Se143  1  0.58829595  0.92416930  0.05906668  1
  Se  Se144  1  0.58809282  0.92715175  0.56184988  1
  Se  Se145  1  0.90999186  0.24544008  0.05113299  1
  Se  Se146  1  0.91455561  0.24894120  0.54719069  1
  Se  Se147  1  0.92880856  0.59237413  0.06241502  1
  Se  Se148  1  0.92086879  0.58561106  0.56010314  1
  Se  Se149  1  0.91392989  0.91626506  0.06180803  1
  Se  Se150  1  0.91150243  0.91567690  0.54540035  1
  Se  Se151  1  0.08732959  0.24231097  0.44371374  1
  Se  Se152  1  0.07870336  0.25633605  0.93489424  1
  Se  Se153  1  0.08466170  0.57961972  0.44770463  1
  Se  Se154  1  0.07389414  0.59481266  0.94118073  1
  Se  Se155  1  0.07937517  0.92205244  0.43917955  1
  Se  Se156  1  0.08552824  0.92000286  0.95487220  1
  Se  Se157  1  0.41910796  0.24761664  0.45034348  1
  Se  Se158  1  0.42122946  0.25227055  0.95682529  1
  Se  Se159  1  0.42276680  0.58642208  0.44700594  1
  Se  Se160  1  0.41349963  0.58918707  0.94130756  1
  Se  Se161  1  0.41307911  0.92742865  0.43832332  1
  Se  Se162  1  0.41219298  0.92437660  0.93459608  1
  Se  Se163  1  0.75097276  0.25029298  0.44657090  1
  Se  Se164  1  0.75297009  0.24144967  0.94536020  1
  Se  Se165  1  0.74339430  0.58986462  0.44105065  1
  Se  Se166  1  0.74870246  0.58293414  0.93727760  1
  Se  Se167  1  0.74978451  0.91818999  0.44835655  1
  Se  Se168  1  0.74745801  0.91648190  0.94316543  1
  Se  Se169  1  0.24896653  0.08333754  0.45225417  1
  Se  Se170  1  0.25678527  0.08033351  0.93670189  1
  Se  Se171  1  0.25085377  0.41618516  0.44902541  1
  Se  Se172  1  0.26650225  0.40756368  0.94266370  1
  Se  Se173  1  0.25559247  0.75287986  0.44361339  1
  Se  Se174  1  0.24645993  0.75279496  0.94522265  1
  Se  Se175  1  0.57852718  0.08724733  0.45181796  1
  Se  Se176  1  0.58336365  0.08159306  0.94235427  1
  Se  Se177  1  0.58407436  0.41716320  0.44913433  1
  Se  Se178  1  0.59345413  0.40849523  0.94293353  1
  Se  Se179  1  0.59357894  0.75109101  0.43439821  1
  Se  Se180  1  0.58993273  0.74479286  0.93349257  1
  Se  Se181  1  0.91410467  0.08708074  0.44307952  1
  Se  Se182  1  0.91612675  0.08313829  0.95285742  1
  Se  Se183  1  0.92267139  0.40515577  0.43239894  1
  Se  Se184  1  0.91930292  0.41282599  0.93528795  1
  Se  Se185  1  0.91412774  0.74859729  0.44842226  1
  Se  Se186  1  0.91428549  0.75670093  0.95177575  1
  Se  Se187  1  0.25397345  0.24873145  0.30391611  1
  Se  Se188  1  0.24951853  0.24252120  0.81096133  1
  Se  Se189  1  0.25607185  0.58596086  0.31122943  1
  Se  Se190  1  0.23318006  0.57299110  0.79823098  1
  Se  Se191  1  0.24595817  0.90984102  0.31378982  1
  Se  Se192  1  0.24646113  0.92110609  0.80568289  1
  Se  Se193  1  0.58503861  0.25224316  0.31007465  1
  Se  Se194  1  0.58887705  0.25277815  0.80361154  1
  Se  Se195  1  0.57954289  0.57989995  0.31295890  1
  Se  Se196  1  0.58258636  0.58356682  0.79771758  1
  Se  Se197  1  0.55339231  0.89473949  0.30151715  1
  Se  Se198  1  0.56722851  0.89886873  0.79732000  1
  Se  Se199  1  0.90238870  0.23402097  0.30404559  1
  Se  Se200  1  0.91445081  0.24484160  0.80207673  1
  Se  Se201  1  0.91229435  0.57916288  0.29822614  1
  Se  Se202  1  0.90650571  0.57351427  0.81060462  1
  Se  Se203  1  0.91810071  0.92173512  0.30692714  1
  Se  Se204  1  0.91041522  0.91453500  0.80738089  1
  Se  Se205  1  0.08227421  0.08281342  0.30067108  1
  Se  Se206  1  0.09210440  0.09611772  0.80725354  1
  Se  Se207  1  0.09121710  0.41917070  0.31338897  1
  Se  Se208  1  0.08397756  0.41250002  0.79421109  1
  Se  Se209  1  0.08046725  0.74667524  0.30740346  1
  Se  Se210  1  0.07991191  0.76140134  0.81334603  1
  Se  Se211  1  0.41866504  0.08866327  0.31333866  1
  Se  Se212  1  0.42277335  0.09033914  0.80294362  1
  Se  Se213  1  0.41382196  0.41310045  0.31113109  1
  Se  Se214  1  0.42553249  0.42341595  0.81267193  1
  Se  Se215  1  0.42067370  0.74971596  0.29189199  1
  Se  Se216  1  0.39363974  0.73335952  0.80068520  1
  Se  Se217  1  0.71872765  0.05748015  0.31408915  1
  Se  Se218  1  0.74879940  0.07798829  0.80268706  1
  Se  Se219  1  0.76174107  0.43119113  0.30005166  1
  Se  Se220  1  0.74795184  0.41383387  0.79973277  1
  Se  Se221  1  0.75460363  0.75769625  0.31244583  1
  Se  Se222  1  0.74912671  0.74572334  0.80223099  1
  Se  Se223  1  0.24369114  0.09137377  0.18755735  1
  Se  Se224  1  0.26035180  0.08143166  0.70023519  1
  Se  Se225  1  0.25131703  0.41255229  0.20253545  1
  Se  Se226  1  0.24853257  0.41806640  0.68407088  1
  Se  Se227  1  0.25157226  0.74838107  0.20010399  1
  Se  Se228  1  0.24856506  0.74666283  0.69983873  1
  Se  Se229  1  0.58190655  0.08360493  0.20151883  1
  Se  Se230  1  0.58997308  0.08271110  0.69486681  1
  Se  Se231  1  0.58193226  0.41542911  0.20420267  1
  Se  Se232  1  0.58515493  0.41308486  0.69614598  1
  Se  Se233  1  0.58266228  0.75403392  0.18395289  1
  Se  Se234  1  0.57390075  0.75761361  0.69667062  1
  Se  Se235  1  0.91615831  0.07974106  0.20293307  1
  Se  Se236  1  0.90944760  0.08868886  0.68390320  1
  Se  Se237  1  0.91244998  0.42078947  0.18488111  1
  Se  Se238  1  0.91708819  0.41164486  0.69801685  1
  Se  Se239  1  0.91744976  0.75107062  0.19983581  1
  Se  Se240  1  0.90994386  0.75436877  0.69002808  1
  Se  Se241  1  0.08406718  0.24772975  0.19108062  1
  Se  Se242  1  0.08653661  0.24225760  0.69192956  1
  Se  Se243  1  0.08723640  0.58309732  0.20464770  1
  Se  Se244  1  0.08572754  0.57539982  0.68643685  1
  Se  Se245  1  0.08487099  0.91761536  0.20195708  1
  Se  Se246  1  0.09074666  0.91041618  0.69019960  1
  Se  Se247  1  0.41496523  0.25054171  0.20020689  1
  Se  Se248  1  0.42599783  0.24716908  0.68689380  1
  Se  Se249  1  0.41512344  0.58371773  0.20369095  1
  Se  Se250  1  0.41422754  0.58113746  0.69074040  1
  Se  Se251  1  0.41909198  0.91319262  0.18268737  1
  Se  Se252  1  0.42074504  0.92250934  0.70778943  1
  Se  Se253  1  0.73785655  0.25777444  0.20117966  1
  Se  Se254  1  0.74845757  0.25154464  0.69450367  1
  Se  Se255  1  0.75943477  0.57885695  0.18534458  1
  Se  Se256  1  0.74596092  0.58572181  0.69606652  1
  Se  Se257  1  0.74660207  0.91793250  0.20049609  1
  Se  Se258  1  0.74874849  0.92052717  0.69430729  1
