# generated using pymatgen
data_In86Cu29Se144
_symmetry_space_group_name_H-M   'P 1'
_cell_length_a   17.58565445
_cell_length_b   17.58559087
_cell_length_c   23.45094880
_cell_angle_alpha   90.00043889
_cell_angle_beta   90.02150236
_cell_angle_gamma   89.99315052
_symmetry_Int_Tables_number   1
_chemical_formula_structural   In86Cu29Se144
_chemical_formula_sum   'In86 Cu29 Se144'
_cell_volume   7252.30207291
_cell_formula_units_Z   1
loop_
 _symmetry_equiv_pos_site_id
 _symmetry_equiv_pos_as_xyz
  1  'x, y, z'
loop_
 _atom_site_type_symbol
 _atom_site_label
 _atom_site_symmetry_multiplicity
 _atom_site_fract_x
 _atom_site_fract_y
 _atom_site_fract_z
 _atom_site_occupancy
  In  In0  1  0.02274113  0.15921091  0.14002036  1
  In  In1  1  -0.00152891  0.16678901  0.63114580  1
  In  In2  1  -0.00062502  0.49346951  0.11695920  1
  In  In3  1  0.00281965  0.50342489  0.63100660  1
  In  In4  1  0.01994106  0.82678584  0.12258147  1
  In  In5  1  0.02454847  0.81270349  0.65901725  1
  In  In6  1  0.33021645  0.14480004  0.12238566  1
  In  In7  1  0.34795330  0.16782719  0.62433161  1
  In  In8  1  0.34822203  0.51490933  0.11239845  1
  In  In9  1  0.32332183  0.49561525  0.62259333  1
  In  In10  1  0.32402333  0.83891912  0.13328682  1
  In  In11  1  0.32858436  0.82311169  0.61465616  1
  In  In12  1  0.66255883  0.17996763  0.12097468  1
  In  In13  1  0.66020971  0.17002695  0.63105436  1
  In  In14  1  0.67297001  0.50639562  0.11576553  1
  In  In15  1  0.65788123  0.51085455  0.63242213  1
  In  In16  1  0.65484958  0.82354983  0.12573943  1
  In  In17  1  0.66161561  0.83706074  0.63315431  1
  In  In18  1  0.15727388  -0.01234245  0.36848000  1
  In  In19  1  0.16092636  0.00031555  0.87498944  1
  In  In20  1  0.17135480  0.35134437  0.37406605  1
  In  In21  1  0.17794738  0.34094273  0.86781017  1
  In  In22  1  0.17452874  0.65239736  0.38414153  1
  In  In23  1  0.16005255  0.67488247  0.88499181  1
  In  In24  1  0.49069071  0.00669789  0.38097200  1
  In  In25  1  0.50638307  -0.00665348  0.87535996  1
  In  In26  1  0.49686124  0.33106064  0.38489841  1
  In  In27  1  0.49932301  0.33743087  0.87291149  1
  In  In28  1  0.49887052  0.66539665  0.37552979  1
  In  In29  1  0.49827452  0.65639079  0.87496064  1
  In  In30  1  0.84162666  -0.00977438  0.37370402  1
  In  In31  1  0.83616261  -0.00413607  0.86456931  1
  In  In32  1  0.83551769  0.32656310  0.37477023  1
  In  In33  1  0.84168437  0.34545745  0.86719158  1
  In  In34  1  0.83284338  0.67491381  0.37041429  1
  In  In35  1  0.82470343  0.65892427  0.86590095  1
  In  In36  1  0.01042494  0.17042256  0.36498518  1
  In  In37  1  -0.00484803  0.16473546  0.86847132  1
  In  In38  1  0.01545166  0.51044541  0.37325736  1
  In  In39  1  -0.00017319  0.49848832  0.87660427  1
  In  In40  1  -0.00484685  0.84015555  0.37568910  1
  In  In41  1  0.01154078  0.83884486  0.86402810  1
  In  In42  1  0.34387076  0.16719410  0.37278025  1
  In  In43  1  0.32542255  0.18037940  0.87624335  1
  In  In44  1  0.32761390  0.50449531  0.37905020  1
  In  In45  1  0.34398758  0.50229668  0.88708689  1
  In  In46  1  0.33438927  0.82916054  0.37516154  1
  In  In47  1  0.32002038  0.82958453  0.87963117  1
  In  In48  1  0.66025858  0.15611807  0.37853009  1
  In  In49  1  0.65689345  0.16373450  0.86844423  1
  In  In50  1  0.65351367  0.49357413  0.37665735  1
  In  In51  1  0.66791541  0.50165201  0.87243815  1
  In  In52  1  0.67086610  0.81928406  0.37471443  1
  In  In53  1  0.67122328  0.83328813  0.85368797  1
  In  In54  1  0.18504571  -0.01400753  0.14046949  1
  In  In55  1  0.16372510  -0.01587171  0.62436912  1
  In  In56  1  0.15597486  0.33632940  0.12519478  1
  In  In57  1  0.15586765  0.34425680  0.63340372  1
  In  In58  1  0.18204583  0.67668065  0.11074203  1
  In  In59  1  0.16348227  0.66508240  0.62253494  1
  In  In60  1  0.47859189  -0.00487764  0.12087924  1
  In  In61  1  0.50570708  0.00444326  0.61968245  1
  In  In62  1  0.49577859  0.33229726  0.11553706  1
  In  In63  1  0.49859325  0.33650458  0.62809941  1
  In  In64  1  0.51057392  0.65775118  0.13261148  1
  In  In65  1  0.50336463  0.67076947  0.61823200  1
  In  In66  1  0.84230828  0.01201116  0.12163776  1
  In  In67  1  0.84194254  -0.01867160  0.64252220  1
  In  In68  1  0.84461736  0.35169900  0.11826408  1
  In  In69  1  0.83389942  0.33283650  0.63480542  1
  In  In70  1  0.83168826  0.64229847  0.12799901  1
  In  In71  1  0.84024583  0.67276771  0.63744130  1
  In  In72  1  0.66941283  -0.00370715  0.25278833  1
  In  In73  1  0.33029709  0.66240568  0.75321265  1
  In  In74  1  0.16944603  0.16776416  0.00338980  1
  In  In75  1  0.17487072  0.17008752  0.49315227  1
  In  In76  1  0.83219230  0.82627669  -0.01266479  1
  In  In77  1  0.33132614  0.00393695  0.74991040  1
  In  In78  1  0.83217928  0.50361125  0.51077919  1
  In  In79  1  0.00085624  0.66498506  0.24717832  1
  In  In80  1  0.82665105  0.16152358  0.50779063  1
  In  In81  1  0.83551024  0.83264040  0.50310410  1
  In  In82  1  0.67295016  0.33788505  0.24704226  1
  In  In83  1  0.32517920  0.32874885  0.24847954  1
  In  In84  1  0.83506481  0.17507021  -0.00394831  1
  In  In85  1  0.49179710  0.82631094  -0.00577047  1
  Cu  Cu86  1  0.50247447  0.16050911  0.24936328  1
  Cu  Cu87  1  0.65990126  0.33823258  -0.00524055  1
  Cu  Cu88  1  0.16227963  0.50003052  0.75211855  1
  Cu  Cu89  1  0.33553747  0.33624437  0.50294755  1
  Cu  Cu90  1  0.49890235  0.17482089  0.74925118  1
  Cu  Cu91  1  0.00015910  0.33266333  -0.00204506  1
  Cu  Cu92  1  0.65276936  0.33173903  0.50681472  1
  Cu  Cu93  1  0.83636795  0.49788312  0.75127912  1
  Cu  Cu94  1  0.65659852  0.00366775  -0.00703070  1
  Cu  Cu95  1  0.33678904  0.33786699  -0.00358184  1
  Cu  Cu96  1  0.49827561  0.50225752  0.25062956  1
  Cu  Cu97  1  0.66688668  0.66207745  -0.00400832  1
  Cu  Cu98  1  0.00140369  0.66168681  -0.00046663  1
  Cu  Cu99  1  0.16429814  0.17016230  0.75017814  1
  Cu  Cu100  1  0.49792598  0.83233691  0.74328476  1
  Cu  Cu101  1  0.00655414  -0.01226533  -0.00201761  1
  Cu  Cu102  1  0.65687307  -0.00078779  0.50615284  1
  Cu  Cu103  1  0.16902629  0.50581680  0.24866943  1
  Cu  Cu104  1  0.33458429  -0.00937734  0.50099136  1
  Cu  Cu105  1  0.16921144  0.82829642  0.25251158  1
  Cu  Cu106  1  0.00377358  0.34814113  0.50434099  1
  Cu  Cu107  1  0.33791018  0.66577487  0.49768098  1
  Cu  Cu108  1  0.84780329  0.16993625  0.24844659  1
  Cu  Cu109  1  0.82669922  0.16815886  0.75124060  1
  Cu  Cu110  1  0.49481386  0.82812605  0.25041335  1
  Cu  Cu111  1  0.00261113  -0.00089102  0.49917452  1
  Cu  Cu112  1  0.83529554  0.83361224  0.24887500  1
  Cu  Cu113  1  0.66131766  0.66457378  0.50044892  1
  Cu  Cu114  1  0.50037495  0.49751626  0.75321430  1
  Se  Se115  1  0.08095328  0.07182483  0.05889417  1
  Se  Se116  1  0.08143965  0.08484684  0.55593155  1
  Se  Se117  1  0.08686632  0.41591550  0.04770299  1
  Se  Se118  1  0.08732809  0.42802803  0.55750120  1
  Se  Se119  1  0.08760875  0.75082070  0.04420784  1
  Se  Se120  1  0.07873758  0.76052535  0.56604012  1
  Se  Se121  1  0.42818933  0.09460001  0.05079868  1
  Se  Se122  1  0.41467172  0.07985037  0.55144597  1
  Se  Se123  1  0.42351090  0.42203107  0.04679080  1
  Se  Se124  1  0.41712590  0.41962244  0.55763087  1
  Se  Se125  1  0.41794774  0.74905938  0.07081245  1
  Se  Se126  1  0.42160184  0.75145236  0.54807285  1
  Se  Se127  1  0.74105508  0.07967882  0.05319167  1
  Se  Se128  1  0.74429752  0.06822855  0.56832104  1
  Se  Se129  1  0.74817245  0.41439716  0.04941628  1
  Se  Se130  1  0.74012404  0.40800223  0.56361736  1
  Se  Se131  1  0.74619225  0.74303289  0.05721302  1
  Se  Se132  1  0.74314410  0.74206595  0.56169256  1
  Se  Se133  1  0.26089881  0.25964615  0.06218567  1
  Se  Se134  1  0.25231720  0.25818427  0.56324516  1
  Se  Se135  1  0.23661496  0.56580047  0.05267635  1
  Se  Se136  1  0.25194435  0.58808080  0.55476024  1
  Se  Se137  1  0.25399731  0.92125739  0.05830488  1
  Se  Se138  1  0.24499889  0.91122453  0.55034010  1
  Se  Se139  1  0.58084542  0.25057056  0.04714695  1
  Se  Se140  1  0.57457084  0.24408648  0.55913466  1
  Se  Se141  1  0.58039092  0.58420632  0.05104807  1
  Se  Se142  1  0.58049938  0.57766514  0.55236078  1
  Se  Se143  1  0.58532673  0.91987537  0.05566987  1
  Se  Se144  1  0.57958392  0.90712049  0.55603427  1
  Se  Se145  1  0.93130027  0.24731073  0.06277296  1
  Se  Se146  1  0.92283781  0.25975353  0.55704414  1
  Se  Se147  1  0.91489384  0.57994527  0.05023880  1
  Se  Se148  1  0.92417415  0.59828189  0.56179327  1
  Se  Se149  1  0.91872981  0.91318730  0.05618100  1
  Se  Se150  1  0.92578658  0.92057343  0.56149946  1
  Se  Se151  1  0.07687781  0.26333427  0.44207774  1
  Se  Se152  1  0.08019065  0.25207373  0.93772071  1
  Se  Se153  1  0.08145195  0.58329504  0.45242093  1
  Se  Se154  1  0.08473090  0.57736991  0.94699084  1
  Se  Se155  1  0.08286963  0.91288005  0.44672285  1
  Se  Se156  1  0.09007931  0.90765477  0.94387183  1
  Se  Se157  1  0.41301806  0.24627287  0.45059707  1
  Se  Se158  1  0.41729231  0.25281743  0.94313498  1
  Se  Se159  1  0.41973431  0.57947151  0.44533131  1
  Se  Se160  1  0.40954697  0.60323303  0.95175601  1
  Se  Se161  1  0.41929587  0.91068084  0.44543936  1
  Se  Se162  1  0.40401686  0.92605034  0.94193403  1
  Se  Se163  1  0.73737976  0.25599686  0.44603950  1
  Se  Se164  1  0.74325281  0.25909883  0.93475410  1
  Se  Se165  1  0.74626020  0.58812104  0.44104489  1
  Se  Se166  1  0.75350861  0.58114142  0.94354700  1
  Se  Se167  1  0.74078240  0.92504624  0.44327340  1
  Se  Se168  1  0.73777549  0.92281240  0.93604819  1
  Se  Se169  1  0.25764121  0.07098706  0.43682801  1
  Se  Se170  1  0.25691326  0.07749275  0.94181197  1
  Se  Se171  1  0.25030333  0.41987942  0.45094318  1
  Se  Se172  1  0.24844803  0.41769193  0.94576475  1
  Se  Se173  1  0.25138552  0.74851795  0.44598295  1
  Se  Se174  1  0.27045046  0.72794350  0.94813037  1
  Se  Se175  1  0.57776799  0.08506897  0.45130118  1
  Se  Se176  1  0.57495263  0.08925014  0.94291960  1
  Se  Se177  1  0.57628911  0.41866439  0.45177386  1
  Se  Se178  1  0.57957796  0.42440281  0.94174460  1
  Se  Se179  1  0.58254414  0.75007343  0.44536319  1
  Se  Se180  1  0.59647962  0.75019054  0.93501822  1
  Se  Se181  1  0.92211095  0.08250154  0.44162341  1
  Se  Se182  1  0.92245359  0.07160512  0.94309820  1
  Se  Se183  1  0.91790172  0.41811043  0.44209271  1
  Se  Se184  1  0.91459339  0.41617721  0.94710307  1
  Se  Se185  1  0.92474211  0.73981447  0.44389162  1
  Se  Se186  1  0.92667622  0.73917407  0.93222907  1
  Se  Se187  1  0.23867173  0.24180247  0.31320034  1
  Se  Se188  1  0.25294109  0.25283784  0.79755306  1
  Se  Se189  1  0.25286356  0.58520443  0.30435244  1
  Se  Se190  1  0.24336742  0.57501320  0.81552406  1
  Se  Se191  1  0.25314325  0.91329189  0.30474095  1
  Se  Se192  1  0.24150514  0.90912458  0.80407399  1
  Se  Se193  1  0.57956077  0.24538790  0.30784872  1
  Se  Se194  1  0.58340450  0.25738238  0.80234017  1
  Se  Se195  1  0.58318487  0.58160728  0.30582639  1
  Se  Se196  1  0.58362239  0.58533240  0.80273357  1
  Se  Se197  1  0.57664322  0.90931715  0.31173895  1
  Se  Se198  1  0.57800461  0.91997852  0.79659746  1
  Se  Se199  1  0.92305727  0.25774278  0.30329163  1
  Se  Se200  1  0.91493566  0.25036873  0.80189856  1
  Se  Se201  1  0.90995008  0.57619920  0.30730659  1
  Se  Se202  1  0.92068141  0.58073832  0.80432089  1
  Se  Se203  1  0.92023266  0.91705646  0.29860366  1
  Se  Se204  1  0.91748933  0.91218465  0.79971362  1
  Se  Se205  1  0.07945311  0.07510681  0.30214614  1
  Se  Se206  1  0.08495544  0.08426022  0.80423120  1
  Se  Se207  1  0.08537064  0.42234338  0.30101536  1
  Se  Se208  1  0.07994404  0.41383873  0.80529184  1
  Se  Se209  1  0.08751651  0.74998940  0.31334395  1
  Se  Se210  1  0.09261103  0.74542776  0.80331303  1
  Se  Se211  1  0.41670703  0.07969125  0.30152996  1
  Se  Se212  1  0.42110169  0.09235534  0.81109012  1
  Se  Se213  1  0.42112950  0.41569033  0.30887494  1
  Se  Se214  1  0.41130937  0.42268615  0.80793250  1
  Se  Se215  1  0.41374427  0.74382881  0.30495089  1
  Se  Se216  1  0.42137464  0.75929189  0.80986249  1
  Se  Se217  1  0.76279469  0.09333864  0.30832268  1
  Se  Se218  1  0.74667577  0.08237302  0.80454395  1
  Se  Se219  1  0.75829323  0.42526764  0.31136913  1
  Se  Se220  1  0.74669959  0.41696374  0.80130159  1
  Se  Se221  1  0.75010098  0.74937832  0.29748237  1
  Se  Se222  1  0.75730977  0.74860677  0.79377303  1
  Se  Se223  1  0.23575384  0.10024092  0.19774754  1
  Se  Se224  1  0.24210528  0.09197086  0.68567119  1
  Se  Se225  1  0.24985170  0.42711042  0.18646091  1
  Se  Se226  1  0.24956757  0.41864701  0.69974852  1
  Se  Se227  1  0.24800197  0.74299070  0.19682951  1
  Se  Se228  1  0.24586534  0.75680462  0.69401749  1
  Se  Se229  1  0.58316284  0.08397316  0.18751493  1
  Se  Se230  1  0.57588203  0.08410843  0.69717719  1
  Se  Se231  1  0.57473191  0.41997215  0.18865347  1
  Se  Se232  1  0.58394118  0.41653114  0.69767329  1
  Se  Se233  1  0.58542113  0.74684045  0.20308187  1
  Se  Se234  1  0.58075617  0.74286464  0.69580864  1
  Se  Se235  1  0.92408765  0.07826982  0.19754732  1
  Se  Se236  1  0.91365247  0.08699097  0.69853418  1
  Se  Se237  1  0.91737426  0.42614614  0.19386733  1
  Se  Se238  1  0.92142753  0.41636166  0.69766231  1
  Se  Se239  1  0.91046962  0.75415366  0.18341839  1
  Se  Se240  1  0.89886366  0.77138791  0.70545581  1
  Se  Se241  1  0.08451230  0.26196198  0.20233483  1
  Se  Se242  1  0.07835592  0.25288677  0.69834960  1
  Se  Se243  1  0.09097110  0.58259299  0.18345659  1
  Se  Se244  1  0.08514915  0.58852322  0.69859363  1
  Se  Se245  1  0.08349968  0.91048855  0.19942501  1
  Se  Se246  1  0.07519199  0.93661133  0.70301074  1
  Se  Se247  1  0.42276084  0.24298133  0.19018692  1
  Se  Se248  1  0.41227580  0.25601848  0.69818608  1
  Se  Se249  1  0.41349361  0.58383098  0.19746220  1
  Se  Se250  1  0.42151990  0.57805294  0.69008691  1
  Se  Se251  1  0.41434586  0.91774788  0.20090925  1
  Se  Se252  1  0.41465823  0.91132578  0.68567898  1
  Se  Se253  1  0.76491325  0.24574380  0.18746414  1
  Se  Se254  1  0.74445888  0.25245388  0.69861992  1
  Se  Se255  1  0.73851770  0.57966034  0.19716720  1
  Se  Se256  1  0.75448525  0.58206914  0.69675189  1
  Se  Se257  1  0.75695011  0.91224947  0.18427363  1
  Se  Se258  1  0.73391253  0.92504405  0.70196778  1
