# generated using pymatgen
data_In86Cu29Se144
_symmetry_space_group_name_H-M   'P 1'
_cell_length_a   17.58061893
_cell_length_b   17.58268442
_cell_length_c   23.44476476
_cell_angle_alpha   89.99810599
_cell_angle_beta   90.01312978
_cell_angle_gamma   90.01774844
_symmetry_Int_Tables_number   1
_chemical_formula_structural   In86Cu29Se144
_chemical_formula_sum   'In86 Cu29 Se144'
_cell_volume   7247.11559425
_cell_formula_units_Z   1
loop_
 _symmetry_equiv_pos_site_id
 _symmetry_equiv_pos_as_xyz
  1  'x, y, z'
loop_
 _atom_site_type_symbol
 _atom_site_label
 _atom_site_symmetry_multiplicity
 _atom_site_fract_x
 _atom_site_fract_y
 _atom_site_fract_z
 _atom_site_occupancy
  In  In0  1  -0.00204557  0.16818353  0.12255397  1
  In  In1  1  -0.00514799  0.16254725  0.62879208  1
  In  In2  1  -0.00220146  0.50258131  0.12531737  1
  In  In3  1  0.02242303  0.48499503  0.62439097  1
  In  In4  1  -0.00796739  0.83884757  0.12568716  1
  In  In5  1  0.01249555  0.83407934  0.62661041  1
  In  In6  1  0.32064513  0.16290587  0.11821040  1
  In  In7  1  0.35582116  0.15033422  0.64629505  1
  In  In8  1  0.33286050  0.50002302  0.11061946  1
  In  In9  1  0.33216368  0.49501844  0.63147431  1
  In  In10  1  0.34952235  0.84035869  0.11738719  1
  In  In11  1  0.35240362  0.81998343  0.64656853  1
  In  In12  1  0.66585163  0.15312867  0.12575341  1
  In  In13  1  0.65833490  0.18862036  0.63496670  1
  In  In14  1  0.67766746  0.51396731  0.11865015  1
  In  In15  1  0.65137434  0.49592656  0.62175024  1
  In  In16  1  0.66590760  0.83155019  0.12542914  1
  In  In17  1  0.65776048  0.84961475  0.62690225  1
  In  In18  1  0.16466153  -0.00260471  0.36279439  1
  In  In19  1  0.18027177  0.01553454  0.87518055  1
  In  In20  1  0.16392683  0.34139108  0.37685731  1
  In  In21  1  0.17024127  0.33260044  0.87709983  1
  In  In22  1  0.15970693  0.66276426  0.36908564  1
  In  In23  1  0.17582437  0.64436470  0.87845906  1
  In  In24  1  0.49621940  -0.00099621  0.37631470  1
  In  In25  1  0.48411251  -0.01152272  0.86993270  1
  In  In26  1  0.50702676  0.33687277  0.39309595  1
  In  In27  1  0.51057120  0.33081323  0.86011914  1
  In  In28  1  0.50698344  0.65997880  0.38026753  1
  In  In29  1  0.48587555  0.67872522  0.87576517  1
  In  In30  1  0.82825885  -0.00070782  0.36114620  1
  In  In31  1  0.84535470  -0.01021019  0.88831343  1
  In  In32  1  0.83469893  0.32257042  0.37147611  1
  In  In33  1  0.82559261  0.33798965  0.88421092  1
  In  In34  1  0.83612740  0.66805856  0.36191630  1
  In  In35  1  0.84364325  0.66250718  0.89613071  1
  In  In36  1  -0.00280874  0.16115911  0.36248975  1
  In  In37  1  0.01339294  0.15900733  0.88617294  1
  In  In38  1  0.00299442  0.49951023  0.36665780  1
  In  In39  1  0.00539910  0.49545335  0.88739336  1
  In  In40  1  -0.00307508  0.83079960  0.36105811  1
  In  In41  1  -0.01090873  0.82938599  0.88486130  1
  In  In42  1  0.34241250  0.16679954  0.37924743  1
  In  In43  1  0.32728531  0.15791076  0.86653053  1
  In  In44  1  0.33855838  0.49564434  0.38546586  1
  In  In45  1  0.33520500  0.50225845  0.86938537  1
  In  In46  1  0.33156263  0.84387694  0.37453890  1
  In  In47  1  0.34636347  0.84041243  0.86511687  1
  In  In48  1  0.66679055  0.16129584  0.37560976  1
  In  In49  1  0.65983057  0.17723837  0.87537861  1
  In  In50  1  0.65428324  0.50259747  0.37475371  1
  In  In51  1  0.66976260  0.49286431  0.87878309  1
  In  In52  1  0.65945701  0.82883846  0.36871617  1
  In  In53  1  0.66719014  0.83212386  0.88316508  1
  In  In54  1  0.16187064  0.00426436  0.12590255  1
  In  In55  1  0.16953715  0.00153818  0.63323137  1
  In  In56  1  0.15551631  0.32514897  0.11584053  1
  In  In57  1  0.18366558  0.35362200  0.61725939  1
  In  In58  1  0.16331673  0.65209563  0.11905316  1
  In  In59  1  0.18232958  0.65998254  0.63108060  1
  In  In60  1  0.51194927  -0.00616297  0.13146593  1
  In  In61  1  0.48633939  -0.01094005  0.61709814  1
  In  In62  1  0.48796564  0.33908460  0.12253594  1
  In  In63  1  0.49850390  0.33140031  0.62811657  1
  In  In64  1  0.51082914  0.67610463  0.11855913  1
  In  In65  1  0.49292188  0.65983650  0.62096844  1
  In  In66  1  0.83062065  0.00120298  0.12070137  1
  In  In67  1  0.83643268  0.00808216  0.62896394  1
  In  In68  1  0.84632731  0.34941958  0.11500042  1
  In  In69  1  0.83701591  0.32183361  0.62951644  1
  In  In70  1  0.83434920  0.66521630  0.12503851  1
  In  In71  1  0.83271918  0.66053344  0.62405609  1
  In  In72  1  0.83140288  0.83352979  0.48559058  1
  In  In73  1  0.49751142  0.16127289  -0.00886858  1
  In  In74  1  0.66051882  0.00761103  0.76016843  1
  In  In75  1  -0.00062887  0.67358354  0.76160557  1
  In  In76  1  0.66290429  0.66838575  0.74991580  1
  In  In77  1  0.66842674  0.33416552  0.25187182  1
  In  In78  1  0.33037572  0.66957782  0.24395671  1
  In  In79  1  0.00740837  0.32908285  0.75523179  1
  In  In80  1  0.17417902  0.83123760  0.49908517  1
  In  In81  1  0.82465600  0.16954386  0.50183727  1
  In  In82  1  0.82947616  0.49852893  0.49549577  1
  In  In83  1  0.33010772  0.33073199  0.25589121  1
  In  In84  1  0.16593144  0.83218318  0.00319628  1
  In  In85  1  0.16984383  0.17506237  0.49883443  1
  Cu  Cu86  1  0.33766139  0.66184419  0.50761816  1
  Cu  Cu87  1  0.16463347  0.83360687  0.24239603  1
  Cu  Cu88  1  0.66318859  0.67965312  0.49971156  1
  Cu  Cu89  1  0.83342513  0.16779903  0.24235320  1
  Cu  Cu90  1  0.66233579  0.66272041  0.00161398  1
  Cu  Cu91  1  0.33414996  0.34126491  -0.00738787  1
  Cu  Cu92  1  0.50078196  0.83607840  0.24883835  1
  Cu  Cu93  1  0.50258229  0.50610800  0.25036299  1
  Cu  Cu94  1  0.33406341  0.66406927  -0.00455855  1
  Cu  Cu95  1  0.00058225  0.33451431  0.00188627  1
  Cu  Cu96  1  0.83156073  0.83773906  0.24123302  1
  Cu  Cu97  1  0.33751286  0.33385462  0.50867789  1
  Cu  Cu98  1  0.16337712  0.84682356  0.75570577  1
  Cu  Cu99  1  -0.00285957  -0.00084231  0.49649182  1
  Cu  Cu100  1  0.49702022  0.50038194  0.74750649  1
  Cu  Cu101  1  0.66727721  -0.00678643  0.00416781  1
  Cu  Cu102  1  0.33695127  -0.00128180  0.50380069  1
  Cu  Cu103  1  0.16132292  0.16257307  0.24136077  1
  Cu  Cu104  1  0.01053225  0.65065680  0.49549335  1
  Cu  Cu105  1  0.16574415  0.16969988  0.75300950  1
  Cu  Cu106  1  0.66055364  0.33061321  -0.00167935  1
  Cu  Cu107  1  0.83482755  0.83498248  0.76107933  1
  Cu  Cu108  1  0.00377122  0.00662891  0.00507556  1
  Cu  Cu109  1  0.49465535  0.15741739  0.25367878  1
  Cu  Cu110  1  0.65167931  0.00806768  0.50019674  1
  Cu  Cu111  1  0.84163381  0.16205233  0.75513297  1
  Cu  Cu112  1  0.16567265  0.49273091  0.24520711  1
  Cu  Cu113  1  0.83853505  0.50430160  0.24230553  1
  Cu  Cu114  1  0.82955171  0.49086267  0.75816695  1
  Se  Se115  1  0.08916432  0.09122621  0.05420991  1
  Se  Se116  1  0.07901684  0.07632210  0.55595796  1
  Se  Se117  1  0.08274991  0.42284151  0.05338608  1
  Se  Se118  1  0.08520410  0.40638730  0.54623023  1
  Se  Se119  1  0.07285869  0.74283135  0.05887725  1
  Se  Se120  1  0.08172970  0.73754337  0.55717573  1
  Se  Se121  1  0.41873639  0.07683921  0.06177083  1
  Se  Se122  1  0.41460730  0.08986501  0.55482515  1
  Se  Se123  1  0.42221751  0.42026901  0.04508391  1
  Se  Se124  1  0.41907501  0.42162277  0.55956857  1
  Se  Se125  1  0.41741392  0.74653093  0.04976480  1
  Se  Se126  1  0.41302425  0.75480603  0.55816080  1
  Se  Se127  1  0.74831875  0.08505189  0.05014086  1
  Se  Se128  1  0.73664429  0.07886292  0.56368842  1
  Se  Se129  1  0.74277554  0.41428374  0.05274114  1
  Se  Se130  1  0.74956454  0.40930007  0.56276755  1
  Se  Se131  1  0.74554365  0.74553659  0.05694437  1
  Se  Se132  1  0.74708353  0.75306400  0.56075654  1
  Se  Se133  1  0.25525339  0.25832273  0.05040463  1
  Se  Se134  1  0.26392602  0.24470419  0.56720817  1
  Se  Se135  1  0.24606614  0.58128224  0.04467646  1
  Se  Se136  1  0.25167467  0.57796363  0.55653116  1
  Se  Se137  1  0.25706939  0.92717042  0.05614790  1
  Se  Se138  1  0.25718083  0.91844535  0.56445372  1
  Se  Se139  1  0.58218742  0.25084451  0.06106937  1
  Se  Se140  1  0.58354822  0.25476848  0.55657324  1
  Se  Se141  1  0.57694171  0.57737925  0.05211123  1
  Se  Se142  1  0.58623392  0.58988461  0.55234312  1
  Se  Se143  1  0.58003923  0.91157901  0.05485499  1
  Se  Se144  1  0.57699782  0.91336046  0.54883069  1
  Se  Se145  1  0.91503381  0.24935075  0.05171317  1
  Se  Se146  1  0.92825686  0.25522165  0.55431085  1
  Se  Se147  1  0.90019820  0.56775359  0.05842085  1
  Se  Se148  1  0.92736699  0.58090835  0.55972348  1
  Se  Se149  1  0.91720257  0.92040276  0.05193464  1
  Se  Se150  1  0.91885880  0.91711731  0.55664765  1
  Se  Se151  1  0.07063632  0.24975046  0.43703650  1
  Se  Se152  1  0.08841455  0.25426499  0.94923196  1
  Se  Se153  1  0.09195160  0.57140417  0.43976187  1
  Se  Se154  1  0.06335569  0.60783037  0.94236861  1
  Se  Se155  1  0.07658462  0.91670454  0.43806195  1
  Se  Se156  1  0.08223488  0.92770573  0.94125899  1
  Se  Se157  1  0.41574219  0.25019136  0.45108235  1
  Se  Se158  1  0.41311894  0.25840171  0.93443202  1
  Se  Se159  1  0.42131232  0.58206002  0.44960603  1
  Se  Se160  1  0.41859380  0.58106616  0.94229574  1
  Se  Se161  1  0.41614280  0.91409388  0.44782334  1
  Se  Se162  1  0.41394599  0.91273290  0.94697538  1
  Se  Se163  1  0.73594834  0.26315706  0.44386127  1
  Se  Se164  1  0.74619382  0.24597564  0.94914481  1
  Se  Se165  1  0.74566112  0.60039626  0.43992184  1
  Se  Se166  1  0.74629668  0.57791361  0.94965529  1
  Se  Se167  1  0.73764089  0.93252530  0.43927476  1
  Se  Se168  1  0.75290997  0.91011098  0.95157789  1
  Se  Se169  1  0.25040307  0.07082118  0.44184644  1
  Se  Se170  1  0.25579219  0.09268148  0.94918209  1
  Se  Se171  1  0.25342277  0.40938946  0.44878717  1
  Se  Se172  1  0.24853979  0.42509720  0.94162485  1
  Se  Se173  1  0.26021847  0.73598062  0.43895996  1
  Se  Se174  1  0.25546331  0.74884859  0.93692417  1
  Se  Se175  1  0.57406924  0.09151455  0.44368200  1
  Se  Se176  1  0.59069215  0.06758462  0.93656747  1
  Se  Se177  1  0.58789246  0.42770043  0.45336205  1
  Se  Se178  1  0.57829484  0.40890891  0.94057484  1
  Se  Se179  1  0.57822797  0.75862747  0.44517248  1
  Se  Se180  1  0.58131877  0.74601127  0.94560679  1
  Se  Se181  1  0.91389463  0.07703069  0.43882850  1
  Se  Se182  1  0.91668623  0.08840928  0.95206571  1
  Se  Se183  1  0.92107332  0.40924262  0.43811534  1
  Se  Se184  1  0.91356324  0.41738616  0.95066610  1
  Se  Se185  1  0.93090594  0.73708154  0.43920490  1
  Se  Se186  1  0.90880517  0.76115095  0.96014527  1
  Se  Se187  1  0.23736684  0.23664651  0.31111762  1
  Se  Se188  1  0.24935778  0.25390634  0.80419326  1
  Se  Se189  1  0.25142653  0.56910279  0.30582171  1
  Se  Se190  1  0.25767741  0.58863357  0.79911807  1
  Se  Se191  1  0.24979244  0.91225569  0.29837613  1
  Se  Se192  1  0.25336871  0.92553491  0.80588025  1
  Se  Se193  1  0.57020582  0.24842849  0.31006570  1
  Se  Se194  1  0.57961359  0.23317046  0.79463212  1
  Se  Se195  1  0.58630186  0.59024057  0.30162399  1
  Se  Se196  1  0.57715371  0.57803583  0.81127703  1
  Se  Se197  1  0.58119500  0.92103203  0.30486866  1
  Se  Se198  1  0.57785022  0.89998993  0.80660414  1
  Se  Se199  1  0.91562727  0.25003873  0.29767276  1
  Se  Se200  1  0.91598498  0.24529193  0.81791906  1
  Se  Se201  1  0.92337557  0.58570056  0.29843047  1
  Se  Se202  1  0.90801427  0.57511102  0.81419535  1
  Se  Se203  1  0.91686624  0.91954109  0.29646776  1
  Se  Se204  1  0.92216136  0.91720003  0.80979699  1
  Se  Se205  1  0.07853709  0.07686029  0.29573332  1
  Se  Se206  1  0.08386317  0.08505113  0.80640188  1
  Se  Se207  1  0.08333187  0.40996091  0.29978571  1
  Se  Se208  1  0.09063551  0.42927479  0.80909929  1
  Se  Se209  1  0.08637316  0.74777348  0.29797784  1
  Se  Se210  1  0.09344817  0.76133085  0.81841491  1
  Se  Se211  1  0.40784084  0.07813516  0.30639880  1
  Se  Se212  1  0.43953321  0.10146558  0.80873874  1
  Se  Se213  1  0.42872993  0.42067846  0.31049895  1
  Se  Se214  1  0.41651882  0.41472585  0.80126872  1
  Se  Se215  1  0.42041269  0.75319687  0.30888667  1
  Se  Se216  1  0.41251660  0.74648676  0.79593959  1
  Se  Se217  1  0.74683285  0.09119874  0.29914231  1
  Se  Se218  1  0.76211008  0.08561916  0.81879359  1
  Se  Se219  1  0.75943665  0.42890397  0.30938345  1
  Se  Se220  1  0.74450616  0.40672735  0.80617093  1
  Se  Se221  1  0.75154435  0.75663277  0.30095073  1
  Se  Se222  1  0.75966014  0.74603684  0.81533201  1
  Se  Se223  1  0.25219275  0.08172678  0.19492924  1
  Se  Se224  1  0.25018674  0.08111051  0.70387369  1
  Se  Se225  1  0.24997172  0.41723554  0.18585939  1
  Se  Se226  1  0.23641661  0.42865110  0.70076441  1
  Se  Se227  1  0.24425751  0.75775640  0.17956979  1
  Se  Se228  1  0.23960875  0.75865577  0.70028510  1
  Se  Se229  1  0.58601685  0.08251064  0.20200578  1
  Se  Se230  1  0.57973521  0.07925749  0.68404938  1
  Se  Se231  1  0.57956607  0.42258292  0.18913536  1
  Se  Se232  1  0.58386924  0.41596844  0.69826370  1
  Se  Se233  1  0.58305483  0.74975077  0.19736897  1
  Se  Se234  1  0.57508290  0.75736660  0.68953781  1
  Se  Se235  1  0.91572526  0.08241311  0.19023815  1
  Se  Se236  1  0.92256091  0.07804980  0.70194652  1
  Se  Se237  1  0.92098891  0.41412040  0.19695482  1
  Se  Se238  1  0.91612046  0.42230865  0.69385316  1
  Se  Se239  1  0.91652411  0.74983822  0.19466985  1
  Se  Se240  1  0.90813195  0.75719713  0.69205787  1
  Se  Se241  1  0.08018808  0.25215339  0.19348510  1
  Se  Se242  1  0.09324673  0.24738232  0.68573920  1
  Se  Se243  1  0.08464494  0.58213530  0.19621011  1
  Se  Se244  1  0.08260520  0.58384164  0.69640754  1
  Se  Se245  1  0.07988373  0.91891469  0.19273173  1
  Se  Se246  1  0.07755733  0.92275182  0.69868858  1
  Se  Se247  1  0.41880435  0.24105507  0.19263339  1
  Se  Se248  1  0.39950456  0.27126223  0.69731305  1
  Se  Se249  1  0.42002653  0.57718976  0.18621661  1
  Se  Se250  1  0.41457457  0.58644228  0.69646734  1
  Se  Se251  1  0.41583081  0.91833098  0.19694207  1
  Se  Se252  1  0.41244603  0.93099900  0.70123435  1
  Se  Se253  1  0.75417336  0.25196791  0.18400687  1
  Se  Se254  1  0.75834571  0.24767745  0.70427714  1
  Se  Se255  1  0.74757169  0.58775907  0.19821369  1
  Se  Se256  1  0.75525252  0.57155447  0.69341825  1
  Se  Se257  1  0.74597112  0.92184576  0.19148523  1
  Se  Se258  1  0.75676974  0.91472321  0.69900143  1
