# generated using pymatgen
data_In86Cu29Se144
_symmetry_space_group_name_H-M   'P 1'
_cell_length_a   17.57473107
_cell_length_b   17.57790648
_cell_length_c   23.43189560
_cell_angle_alpha   90.00599484
_cell_angle_beta   89.97964263
_cell_angle_gamma   89.99351555
_symmetry_Int_Tables_number   1
_chemical_formula_structural   In86Cu29Se144
_chemical_formula_sum   'In86 Cu29 Se144'
_cell_volume   7238.74418330
_cell_formula_units_Z   1
loop_
 _symmetry_equiv_pos_site_id
 _symmetry_equiv_pos_as_xyz
  1  'x, y, z'
loop_
 _atom_site_type_symbol
 _atom_site_label
 _atom_site_symmetry_multiplicity
 _atom_site_fract_x
 _atom_site_fract_y
 _atom_site_fract_z
 _atom_site_occupancy
  In  In0  1  -0.00152412  0.16405076  0.12207297  1
  In  In1  1  0.00351854  0.16396691  0.62923665  1
  In  In2  1  -0.00583771  0.49523207  0.12544222  1
  In  In3  1  0.00185050  0.49819832  0.63634560  1
  In  In4  1  0.01463578  0.84527217  0.10609726  1
  In  In5  1  -0.01962011  0.87003977  0.66593571  1
  In  In6  1  0.33290602  0.16371278  0.12144115  1
  In  In7  1  0.34787810  0.18830749  0.59999926  1
  In  In8  1  0.34021246  0.48334833  0.13245069  1
  In  In9  1  0.35995076  0.49733144  0.62739932  1
  In  In10  1  0.33361246  0.84964244  0.12227769  1
  In  In11  1  0.31606506  0.82933534  0.63326001  1
  In  In12  1  0.66662556  0.16810804  0.12750703  1
  In  In13  1  0.65681020  0.17518521  0.63148755  1
  In  In14  1  0.65252478  0.49232720  0.12168203  1
  In  In15  1  0.65326323  0.49085461  0.62540590  1
  In  In16  1  0.68074478  0.83879859  0.12081752  1
  In  In17  1  0.68599646  0.83524367  0.62778406  1
  In  In18  1  0.17541949  0.01299997  0.36175799  1
  In  In19  1  0.15522465  0.01077035  0.87969147  1
  In  In20  1  0.15448584  0.31590525  0.36631796  1
  In  In21  1  0.15702119  0.33015005  0.87554443  1
  In  In22  1  0.16487605  0.66443770  0.37432181  1
  In  In23  1  0.16020035  0.67689342  0.87361915  1
  In  In24  1  0.50936151  0.01292338  0.36456605  1
  In  In25  1  0.51179978  0.00609547  0.87611936  1
  In  In26  1  0.49684679  0.33055299  0.37232652  1
  In  In27  1  0.50496914  0.32758863  0.88385049  1
  In  In28  1  0.49169932  0.65350016  0.38189272  1
  In  In29  1  0.49215324  0.65983273  0.87414590  1
  In  In30  1  0.82663566  -0.00266600  0.37006418  1
  In  In31  1  0.83720783  -0.00010316  0.87504100  1
  In  In32  1  0.82226338  0.32348458  0.36575282  1
  In  In33  1  0.82370781  0.32559101  0.86971371  1
  In  In34  1  0.84192844  0.67395846  0.38411422  1
  In  In35  1  0.85413030  0.68115727  0.86928385  1
  In  In36  1  0.00230670  0.16656325  0.36606621  1
  In  In37  1  0.00005013  0.16317877  0.87395893  1
  In  In38  1  0.00869235  0.49748860  0.37580125  1
  In  In39  1  0.00678865  0.49847622  0.86587932  1
  In  In40  1  -0.01139929  0.83975734  0.37765820  1
  In  In41  1  -0.00884945  0.83715766  0.87685680  1
  In  In42  1  0.33549390  0.17011051  0.37093426  1
  In  In43  1  0.33386253  0.16776156  0.88604418  1
  In  In44  1  0.36373399  0.47259979  0.39145919  1
  In  In45  1  0.33584390  0.50997833  0.87579118  1
  In  In46  1  0.32018874  0.83518579  0.37190767  1
  In  In47  1  0.32838276  0.81792174  0.87101298  1
  In  In48  1  0.65665478  0.16616526  0.37257999  1
  In  In49  1  0.66981943  0.16753488  0.87974465  1
  In  In50  1  0.65174209  0.48470401  0.37016243  1
  In  In51  1  0.66720618  0.48493154  0.87408765  1
  In  In52  1  0.67101198  0.84699420  0.37730465  1
  In  In53  1  0.67446413  0.85310654  0.86857777  1
  In  In54  1  0.16318046  0.00090123  0.12003051  1
  In  In55  1  0.16111899  0.00974628  0.62714117  1
  In  In56  1  0.17695745  0.32162757  0.13054415  1
  In  In57  1  0.17044904  0.32192505  0.62184511  1
  In  In58  1  0.15579412  0.67402717  0.11731130  1
  In  In59  1  0.16106460  0.68008429  0.64420390  1
  In  In60  1  0.49178050  0.01233395  0.13290837  1
  In  In61  1  0.49916522  0.01822184  0.62518225  1
  In  In62  1  0.50419182  0.33355517  0.12868224  1
  In  In63  1  0.51175238  0.34648744  0.60194299  1
  In  In64  1  0.50636069  0.65418911  0.11900313  1
  In  In65  1  0.49784201  0.64798240  0.63181713  1
  In  In66  1  0.83197335  0.00323159  0.12486785  1
  In  In67  1  0.83443656  0.00004298  0.63528145  1
  In  In68  1  0.84552928  0.32045918  0.13204326  1
  In  In69  1  0.82940174  0.33445395  0.63194713  1
  In  In70  1  0.83647445  0.67688757  0.11406809  1
  In  In71  1  0.83715918  0.68783498  0.63337825  1
  In  In72  1  0.49961611  0.83629505  -0.00682674  1
  In  In73  1  0.32871819  0.66295715  0.25719484  1
  In  In74  1  0.82477108  0.50073629  0.50344147  1
  In  In75  1  0.66853898  0.66202113  0.75323827  1
  In  In76  1  0.50079397  0.83472106  0.49972563  1
  In  In77  1  0.83172614  0.50095679  -0.00699196  1
  In  In78  1  0.17260516  0.49853684  -0.00454886  1
  In  In79  1  0.82804492  0.16518587  0.49218048  1
  In  In80  1  0.67130663  0.66854873  0.24170790  1
  In  In81  1  0.32785276  -0.00036867  0.74633517  1
  In  In82  1  0.33723202  0.33505738  0.74394045  1
  In  In83  1  0.16113331  0.83744837  0.50880512  1
  In  In84  1  0.17376087  0.49926202  0.50359922  1
  In  In85  1  0.00062262  0.66420631  0.24924670  1
  Cu  Cu86  1  0.83014792  0.49317872  0.24655405  1
  Cu  Cu87  1  0.83291959  0.16495120  0.75511832  1
  Cu  Cu88  1  0.83204688  0.16523996  0.24761411  1
  Cu  Cu89  1  0.34148730  0.32880751  0.00802668  1
  Cu  Cu90  1  0.16820405  0.50060095  0.75499921  1
  Cu  Cu91  1  0.50265164  0.83987626  0.24962266  1
  Cu  Cu92  1  0.32611179  -0.00115825  0.00124064  1
  Cu  Cu93  1  0.49785611  0.17105474  0.24771552  1
  Cu  Cu94  1  0.50780776  0.16917250  0.75251610  1
  Cu  Cu95  1  0.83557845  0.84198379  0.24723023  1
  Cu  Cu96  1  0.17139987  0.49070773  0.25544603  1
  Cu  Cu97  1  0.50397573  0.83276683  0.75281579  1
  Cu  Cu98  1  0.83154075  0.49466800  0.75108272  1
  Cu  Cu99  1  0.33205039  0.66298317  -0.00331745  1
  Cu  Cu100  1  0.66823041  0.32887736  0.00239134  1
  Cu  Cu101  1  0.33264750  0.66165433  0.50997217  1
  Cu  Cu102  1  -0.00001674  -0.00360235  0.50920333  1
  Cu  Cu103  1  0.66672567  0.66431994  0.50907629  1
  Cu  Cu104  1  0.00190144  0.32603459  -0.00059469  1
  Cu  Cu105  1  0.16622003  0.16693521  0.74675704  1
  Cu  Cu106  1  -0.00579509  0.00308750  -0.00174980  1
  Cu  Cu107  1  -0.00447660  0.33013103  0.49453737  1
  Cu  Cu108  1  0.33556479  0.00830654  0.49091174  1
  Cu  Cu109  1  0.67411290  -0.00329605  0.49875981  1
  Cu  Cu110  1  0.66795629  0.00636323  0.00035449  1
  Cu  Cu111  1  0.16540307  0.84289496  0.24245744  1
  Cu  Cu112  1  0.16486597  0.16243567  0.24292840  1
  Cu  Cu113  1  -0.00524708  0.67691173  0.51046042  1
  Cu  Cu114  1  0.66979740  0.66942706  -0.00403228  1
  Se  Se115  1  0.08151670  0.08449349  0.05101677  1
  Se  Se116  1  0.08251697  0.08759845  0.55368184  1
  Se  Se117  1  0.08181169  0.40969017  0.05805379  1
  Se  Se118  1  0.07147155  0.41219222  0.55651186  1
  Se  Se119  1  0.07854068  0.74451636  0.04253880  1
  Se  Se120  1  0.07263187  0.75407724  0.57178866  1
  Se  Se121  1  0.41584370  0.07837992  0.05209859  1
  Se  Se122  1  0.42429142  0.08488438  0.54454790  1
  Se  Se123  1  0.42286566  0.41796211  0.05595506  1
  Se  Se124  1  0.38708018  0.39283537  0.55460179  1
  Se  Se125  1  0.41255538  0.74517971  0.05841809  1
  Se  Se126  1  0.41163474  0.74943373  0.56492783  1
  Se  Se127  1  0.75037274  0.08818582  0.05633811  1
  Se  Se128  1  0.74693541  0.08028790  0.56202290  1
  Se  Se129  1  0.75287267  0.41032261  0.06064233  1
  Se  Se130  1  0.73800454  0.40242193  0.55601895  1
  Se  Se131  1  0.75140182  0.75606941  0.04586206  1
  Se  Se132  1  0.75469155  0.74985180  0.55326148  1
  Se  Se133  1  0.24845091  0.24696868  0.05179257  1
  Se  Se134  1  0.23680017  0.24625642  0.54362401  1
  Se  Se135  1  0.25913386  0.58431823  0.06463803  1
  Se  Se136  1  0.24928424  0.59001032  0.57218855  1
  Se  Se137  1  0.24267657  0.91179944  0.04998071  1
  Se  Se138  1  0.26212897  0.92982251  0.55727143  1
  Se  Se139  1  0.58284469  0.24901242  0.05745472  1
  Se  Se140  1  0.57516121  0.23333863  0.55179278  1
  Se  Se141  1  0.58947594  0.58163721  0.04605880  1
  Se  Se142  1  0.57982510  0.58001399  0.55481643  1
  Se  Se143  1  0.58384165  0.92427798  0.05895138  1
  Se  Se144  1  0.59057770  0.92206814  0.56185489  1
  Se  Se145  1  0.91415161  0.24666822  0.05173603  1
  Se  Se146  1  0.91566868  0.25315963  0.55760240  1
  Se  Se147  1  0.92782610  0.58766316  0.05251671  1
  Se  Se148  1  0.91853865  0.58640350  0.56448673  1
  Se  Se149  1  0.90986344  0.91950519  0.05197847  1
  Se  Se150  1  0.92245734  0.91639185  0.56909323  1
  Se  Se151  1  0.07607345  0.24351892  0.44357925  1
  Se  Se152  1  0.08608855  0.24310657  0.94618571  1
  Se  Se153  1  0.07311170  0.59576744  0.44973483  1
  Se  Se154  1  0.07534894  0.58531987  0.94247685  1
  Se  Se155  1  0.08270194  0.92676028  0.43987485  1
  Se  Se156  1  0.07876200  0.91940452  0.94562282  1
  Se  Se157  1  0.42558316  0.23864121  0.44137255  1
  Se  Se158  1  0.42283803  0.24447378  0.95266899  1
  Se  Se159  1  0.41737734  0.57838169  0.45884516  1
  Se  Se160  1  0.42108517  0.57924310  0.95096020  1
  Se  Se161  1  0.41254642  0.92081320  0.43482443  1
  Se  Se162  1  0.40563247  0.92450238  0.93451110  1
  Se  Se163  1  0.73391355  0.26093594  0.44352010  1
  Se  Se164  1  0.75496512  0.24942761  0.94928875  1
  Se  Se165  1  0.73913589  0.58868914  0.43747284  1
  Se  Se166  1  0.74701542  0.59291825  0.93028034  1
  Se  Se167  1  0.76068219  0.91416161  0.44926116  1
  Se  Se168  1  0.75030261  0.92118335  0.94747290  1
  Se  Se169  1  0.24725059  0.08723868  0.43973861  1
  Se  Se170  1  0.24507457  0.08574810  0.94901880  1
  Se  Se171  1  0.24367970  0.40479110  0.43610211  1
  Se  Se172  1  0.26328847  0.40312301  0.93979490  1
  Se  Se173  1  0.25417218  0.74069221  0.44818881  1
  Se  Se174  1  0.24808740  0.74810617  0.94782265  1
  Se  Se175  1  0.58792457  0.07641238  0.44542539  1
  Se  Se176  1  0.58123977  0.08918441  0.95028676  1
  Se  Se177  1  0.56725904  0.42341684  0.44492144  1
  Se  Se178  1  0.58661080  0.41617072  0.95113050  1
  Se  Se179  1  0.59174983  0.74242212  0.44042547  1
  Se  Se180  1  0.59215324  0.74863322  0.93230260  1
  Se  Se181  1  0.92467668  0.07280259  0.44111876  1
  Se  Se182  1  0.91290707  0.08840476  0.94514616  1
  Se  Se183  1  0.91445144  0.41244746  0.43825995  1
  Se  Se184  1  0.92537839  0.40852573  0.93787817  1
  Se  Se185  1  0.91604294  0.76007603  0.45408647  1
  Se  Se186  1  0.91184662  0.75710210  0.95094092  1
  Se  Se187  1  0.24746587  0.24510013  0.29892886  1
  Se  Se188  1  0.24922056  0.24408598  0.80759200  1
  Se  Se189  1  0.24972280  0.56560314  0.32012540  1
  Se  Se190  1  0.24525976  0.58528525  0.81089166  1
  Se  Se191  1  0.25341105  0.91938756  0.29714869  1
  Se  Se192  1  0.24362044  0.91716003  0.81403396  1
  Se  Se193  1  0.58352513  0.25215167  0.30105363  1
  Se  Se194  1  0.58601433  0.25153205  0.81013263  1
  Se  Se195  1  0.57761826  0.58617148  0.30378155  1
  Se  Se196  1  0.57612637  0.56971492  0.80678523  1
  Se  Se197  1  0.58997803  0.91807688  0.30274361  1
  Se  Se198  1  0.58198558  0.92369757  0.80040344  1
  Se  Se199  1  0.91564721  0.25030686  0.30090897  1
  Se  Se200  1  0.91837275  0.24985868  0.80571884  1
  Se  Se201  1  0.90578119  0.57559936  0.30954279  1
  Se  Se202  1  0.91405064  0.57829209  0.80355633  1
  Se  Se203  1  0.91988072  0.92213928  0.30235731  1
  Se  Se204  1  0.92365858  0.92669684  0.80303936  1
  Se  Se205  1  0.07784964  0.07971585  0.29539320  1
  Se  Se206  1  0.08295315  0.08421447  0.80005694  1
  Se  Se207  1  0.07718280  0.41282239  0.30293187  1
  Se  Se208  1  0.08504969  0.40878561  0.79943537  1
  Se  Se209  1  0.09058448  0.76148699  0.30728065  1
  Se  Se210  1  0.06512803  0.74447525  0.80790463  1
  Se  Se211  1  0.41428159  0.08406119  0.29944582  1
  Se  Se212  1  0.41863365  0.09107546  0.80797882  1
  Se  Se213  1  0.42014474  0.41803010  0.30098822  1
  Se  Se214  1  0.42156138  0.41715472  0.81306649  1
  Se  Se215  1  0.42652287  0.75728902  0.31146532  1
  Se  Se216  1  0.42091183  0.74776091  0.80280123  1
  Se  Se217  1  0.74816345  0.08770858  0.30621639  1
  Se  Se218  1  0.74824379  0.08329310  0.80898408  1
  Se  Se219  1  0.74436927  0.41581846  0.30117075  1
  Se  Se220  1  0.74509395  0.41044520  0.79894521  1
  Se  Se221  1  0.76003733  0.75559208  0.30760823  1
  Se  Se222  1  0.75825174  0.76060137  0.80319325  1
  Se  Se223  1  0.24920209  0.07946902  0.18962153  1
  Se  Se224  1  0.25672805  0.10221563  0.68361229  1
  Se  Se225  1  0.25323131  0.40831610  0.20079993  1
  Se  Se226  1  0.24297666  0.42584263  0.68712941  1
  Se  Se227  1  0.24481657  0.75301850  0.18965783  1
  Se  Se228  1  0.25684178  0.74752093  0.71111549  1
  Se  Se229  1  0.58518067  0.08482111  0.19883628  1
  Se  Se230  1  0.58692971  0.08018948  0.70071644  1
  Se  Se231  1  0.58301695  0.41863332  0.19887747  1
  Se  Se232  1  0.56743881  0.41138417  0.69085608  1
  Se  Se233  1  0.57544311  0.75961145  0.18467970  1
  Se  Se234  1  0.58102758  0.75319535  0.68839132  1
  Se  Se235  1  0.91653152  0.08350095  0.19412029  1
  Se  Se236  1  0.91947153  0.08659075  0.69952502  1
  Se  Se237  1  0.92182625  0.41378645  0.19856038  1
  Se  Se238  1  0.91761642  0.41092528  0.69980909  1
  Se  Se239  1  0.91481919  0.75718908  0.18966200  1
  Se  Se240  1  0.93237217  0.74154924  0.70547798  1
  Se  Se241  1  0.07951542  0.24828616  0.19305954  1
  Se  Se242  1  0.08362358  0.25400948  0.69545836  1
  Se  Se243  1  0.09685295  0.57312327  0.19250452  1
  Se  Se244  1  0.08116156  0.58339373  0.70375539  1
  Se  Se245  1  0.07659321  0.91882246  0.18954331  1
  Se  Se246  1  0.11818961  0.90246083  0.69342595  1
  Se  Se247  1  0.41314586  0.24881727  0.19081364  1
  Se  Se248  1  0.42668515  0.24274594  0.68735346  1
  Se  Se249  1  0.42341399  0.58088229  0.19571875  1
  Se  Se250  1  0.40826376  0.58748539  0.70501998  1
  Se  Se251  1  0.41389874  0.91909136  0.19820658  1
  Se  Se252  1  0.42493203  0.91082521  0.68794180  1
  Se  Se253  1  0.74801800  0.25237449  0.19771412  1
  Se  Se254  1  0.74993247  0.24743157  0.69873274  1
  Se  Se255  1  0.76173694  0.57739294  0.18152413  1
  Se  Se256  1  0.75582761  0.57498364  0.68588793  1
  Se  Se257  1  0.74688086  0.92212979  0.19674721  1
  Se  Se258  1  0.75162549  0.91670299  0.70293014  1
