# generated using pymatgen
data_In86Cu29Se144
_symmetry_space_group_name_H-M   'P 1'
_cell_length_a   17.57567449
_cell_length_b   17.57664871
_cell_length_c   23.43136629
_cell_angle_alpha   90.00084526
_cell_angle_beta   89.99122533
_cell_angle_gamma   89.99734094
_symmetry_Int_Tables_number   1
_chemical_formula_structural   In86Cu29Se144
_chemical_formula_sum   'In86 Cu29 Se144'
_cell_volume   7238.45170039
_cell_formula_units_Z   1
loop_
 _symmetry_equiv_pos_site_id
 _symmetry_equiv_pos_as_xyz
  1  'x, y, z'
loop_
 _atom_site_type_symbol
 _atom_site_label
 _atom_site_symmetry_multiplicity
 _atom_site_fract_x
 _atom_site_fract_y
 _atom_site_fract_z
 _atom_site_occupancy
  In  In0  1  -0.00911322  0.16497467  0.13013346  1
  In  In1  1  -0.00228308  0.14748855  0.62799786  1
  In  In2  1  0.00392796  0.51496257  0.12175672  1
  In  In3  1  0.01136159  0.51377450  0.61850052  1
  In  In4  1  -0.00469775  0.82716253  0.12961175  1
  In  In5  1  -0.00107404  0.83273717  0.62148496  1
  In  In6  1  0.34913857  0.16677121  0.12063432  1
  In  In7  1  0.34750755  0.18042082  0.61412884  1
  In  In8  1  0.34237524  0.49108152  0.11150509  1
  In  In9  1  0.33110784  0.49338199  0.62599995  1
  In  In10  1  0.32411378  0.84512154  0.12118276  1
  In  In11  1  0.32741945  0.84581027  0.61739114  1
  In  In12  1  0.66298341  0.17164182  0.13339171  1
  In  In13  1  0.65769982  0.18108532  0.62287332  1
  In  In14  1  0.67603564  0.50441012  0.11904066  1
  In  In15  1  0.67817435  0.50787011  0.61392060  1
  In  In16  1  0.69385905  0.80983065  0.15137058  1
  In  In17  1  0.66671909  0.81534482  0.62204611  1
  In  In18  1  0.15565321  0.00836482  0.38306377  1
  In  In19  1  0.15001078  -0.00066106  0.87320915  1
  In  In20  1  0.15255134  0.33332062  0.39343956  1
  In  In21  1  0.18282978  0.33768846  0.87236328  1
  In  In22  1  0.14804457  0.67909272  0.38510026  1
  In  In23  1  0.15940130  0.67079701  0.87863462  1
  In  In24  1  0.51087796  0.00420877  0.37652139  1
  In  In25  1  0.50241340  0.01113564  0.88063037  1
  In  In26  1  0.50208704  0.32958319  0.37770461  1
  In  In27  1  0.49056018  0.34128807  0.88288685  1
  In  In28  1  0.50420404  0.65074851  0.37525868  1
  In  In29  1  0.50245539  0.64180480  0.86765047  1
  In  In30  1  0.82619073  -0.01416837  0.36553183  1
  In  In31  1  0.83300488  -0.01607430  0.87813357  1
  In  In32  1  0.83083533  0.35882919  0.37834663  1
  In  In33  1  0.83310785  0.34289149  0.88179414  1
  In  In34  1  0.83284909  0.66410935  0.36666153  1
  In  In35  1  0.83387772  0.66557512  0.87290822  1
  In  In36  1  0.01279293  0.16454940  0.37558031  1
  In  In37  1  0.01229533  0.16139399  0.86771622  1
  In  In38  1  -0.01308496  0.50756559  0.38918756  1
  In  In39  1  -0.01149123  0.51529008  0.88053537  1
  In  In40  1  -0.01088828  0.83197169  0.36743065  1
  In  In41  1  -0.00116416  0.82916284  0.87378377  1
  In  In42  1  0.32403553  0.16849996  0.38768638  1
  In  In43  1  0.34324967  0.18383729  0.86347555  1
  In  In44  1  0.33419876  0.49543409  0.38388863  1
  In  In45  1  0.34743988  0.48047618  0.89190819  1
  In  In46  1  0.32215963  0.83237497  0.38416417  1
  In  In47  1  0.32510596  0.81656433  0.87491562  1
  In  In48  1  0.65655959  0.16516688  0.37129914  1
  In  In49  1  0.64952686  0.17156262  0.88621571  1
  In  In50  1  0.66571838  0.50116948  0.36858190  1
  In  In51  1  0.65124718  0.50862320  0.88831336  1
  In  In52  1  0.68266667  0.83839560  0.36216874  1
  In  In53  1  0.68612134  0.83111745  0.88145023  1
  In  In54  1  0.16507585  -0.01233744  0.12349841  1
  In  In55  1  0.16193571  -0.01395701  0.61158267  1
  In  In56  1  0.16471378  0.34144408  0.12255498  1
  In  In57  1  0.17651686  0.35030445  0.61978770  1
  In  In58  1  0.15978143  0.65741395  0.12244220  1
  In  In59  1  0.15700896  0.66258349  0.62183302  1
  In  In60  1  0.50836951  0.01196524  0.12220823  1
  In  In61  1  0.49566763  0.01778645  0.62202902  1
  In  In62  1  0.53684702  0.36050324  0.08721044  1
  In  In63  1  0.48950552  0.32704823  0.62053202  1
  In  In64  1  0.51363811  0.66321980  0.12350636  1
  In  In65  1  0.51859009  0.66151857  0.62723351  1
  In  In66  1  0.85063330  -0.02151836  0.14856979  1
  In  In67  1  0.84698509  -0.00164414  0.62355586  1
  In  In68  1  0.81495157  0.33627333  0.12478006  1
  In  In69  1  0.82129565  0.34156532  0.62134703  1
  In  In70  1  0.83771993  0.67012195  0.12675397  1
  In  In71  1  0.83647478  0.67060383  0.62056785  1
  In  In72  1  0.67341812  -0.00248400  0.75081252  1
  In  In73  1  0.00246137  0.33474594  0.74740376  1
  In  In74  1  0.32838371  -0.00081950  0.74098377  1
  In  In75  1  0.50310829  0.83379489  0.00395280  1
  In  In76  1  -0.00527269  0.33288123  0.25712174  1
  In  In77  1  0.50189777  0.83203437  0.50132742  1
  In  In78  1  0.82979971  0.16429774  0.00585256  1
  In  In79  1  0.33223355  0.65824005  0.74658450  1
  In  In80  1  0.17067613  0.16874330  -0.00619758  1
  In  In81  1  0.83368074  0.16816466  0.49993736  1
  In  In82  1  0.33291798  0.66608616  0.25671412  1
  In  In83  1  0.33433284  0.33036444  0.24590386  1
  In  In84  1  0.33600810  0.00337888  0.25238869  1
  In  In85  1  0.65977827  0.34365022  0.75735741  1
  Cu  Cu86  1  0.15744278  0.83231340  0.25113506  1
  Cu  Cu87  1  0.83015930  0.16128560  0.75279706  1
  Cu  Cu88  1  0.32562318  -0.00008433  -0.00228997  1
  Cu  Cu89  1  -0.00393734  0.67387729  0.00162547  1
  Cu  Cu90  1  0.83447480  0.51292544  0.74603897  1
  Cu  Cu91  1  0.66878195  0.00140306  0.49375008  1
  Cu  Cu92  1  0.16686102  0.50438291  0.74931521  1
  Cu  Cu93  1  -0.00346376  0.67005075  0.49929877  1
  Cu  Cu94  1  0.83118020  0.50169039  0.24779733  1
  Cu  Cu95  1  0.50899151  0.49736793  0.24265857  1
  Cu  Cu96  1  0.50374350  0.83343880  0.25276957  1
  Cu  Cu97  1  0.66126448  0.34169310  0.49766651  1
  Cu  Cu98  1  0.32897268  0.66389342  -0.00254090  1
  Cu  Cu99  1  0.67462699  0.66560140  0.49381360  1
  Cu  Cu100  1  0.67161571  0.66947887  0.00148131  1
  Cu  Cu101  1  0.16957755  0.16289140  0.25590755  1
  Cu  Cu102  1  0.17017989  0.16253086  0.74561207  1
  Cu  Cu103  1  0.15887225  0.50893404  0.25296955  1
  Cu  Cu104  1  0.84162213  0.82678985  0.75152469  1
  Cu  Cu105  1  0.50482647  0.17609227  0.24900189  1
  Cu  Cu106  1  -0.00437950  -0.00996434  0.49623354  1
  Cu  Cu107  1  0.82952080  0.16340809  0.25326202  1
  Cu  Cu108  1  0.33135905  0.65921561  0.50355155  1
  Cu  Cu109  1  0.51100481  0.83227809  0.74971337  1
  Cu  Cu110  1  0.15638478  0.83224643  0.74672226  1
  Cu  Cu111  1  0.00220921  0.34727339  0.00069604  1
  Cu  Cu112  1  -0.00258729  -0.00795819  0.00186960  1
  Cu  Cu113  1  0.33181734  0.33824468  0.50144982  1
  Cu  Cu114  1  0.67506025  -0.00700063  0.01301643  1
  Se  Se115  1  0.07657262  0.08195041  0.05700830  1
  Se  Se116  1  0.07500703  0.07653794  0.55035190  1
  Se  Se117  1  0.08611860  0.42660868  0.05557762  1
  Se  Se118  1  0.07378181  0.41138290  0.55607622  1
  Se  Se119  1  0.08210118  0.75096635  0.05871324  1
  Se  Se120  1  0.08349632  0.75146893  0.55207135  1
  Se  Se121  1  0.41557786  0.07544537  0.04962706  1
  Se  Se122  1  0.40796570  0.07737776  0.54856170  1
  Se  Se123  1  0.41053221  0.40299881  0.04164227  1
  Se  Se124  1  0.41786563  0.42118333  0.55305728  1
  Se  Se125  1  0.40752001  0.74290397  0.06244836  1
  Se  Se126  1  0.41324334  0.73997798  0.56381197  1
  Se  Se127  1  0.75504130  0.07359214  0.07346276  1
  Se  Se128  1  0.74210765  0.07911637  0.56274068  1
  Se  Se129  1  0.74914794  0.41554488  0.04845148  1
  Se  Se130  1  0.75488504  0.42104489  0.54307693  1
  Se  Se131  1  0.74967004  0.75329718  0.05825736  1
  Se  Se132  1  0.75382634  0.75177069  0.54764045  1
  Se  Se133  1  0.25607829  0.25506556  0.05871742  1
  Se  Se134  1  0.24763605  0.25409164  0.55363333  1
  Se  Se135  1  0.25076900  0.58109533  0.05595546  1
  Se  Se136  1  0.24763522  0.57935942  0.55957712  1
  Se  Se137  1  0.24153851  0.91475224  0.04589176  1
  Se  Se138  1  0.24832553  0.91157468  0.54122159  1
  Se  Se139  1  0.57870023  0.22753558  0.05384262  1
  Se  Se140  1  0.57936189  0.25336588  0.54799850  1
  Se  Se141  1  0.58503067  0.58308019  0.04904977  1
  Se  Se142  1  0.58641112  0.58626000  0.54682674  1
  Se  Se143  1  0.59478366  0.90875240  0.07093436  1
  Se  Se144  1  0.59198128  0.92480784  0.56208956  1
  Se  Se145  1  0.92511077  0.26151676  0.05946747  1
  Se  Se146  1  0.91899401  0.25076934  0.56718758  1
  Se  Se147  1  0.91290113  0.58664336  0.05288472  1
  Se  Se148  1  0.91474114  0.58301433  0.55157253  1
  Se  Se149  1  0.91476777  0.91606060  0.06052405  1
  Se  Se150  1  0.91057783  0.90967072  0.55005108  1
  Se  Se151  1  0.08503199  0.23288761  0.45500601  1
  Se  Se152  1  0.07396936  0.26111110  0.93891086  1
  Se  Se153  1  0.08385870  0.58102354  0.45274941  1
  Se  Se154  1  0.07971061  0.58766493  0.94932005  1
  Se  Se155  1  0.07673312  0.90812533  0.43940077  1
  Se  Se156  1  0.08120200  0.91295928  0.94544127  1
  Se  Se157  1  0.41425836  0.25442951  0.44691718  1
  Se  Se158  1  0.42153394  0.23898048  0.94477211  1
  Se  Se159  1  0.41814334  0.58201146  0.44879414  1
  Se  Se160  1  0.42103488  0.58505550  0.94928523  1
  Se  Se161  1  0.41418784  0.92397500  0.44138162  1
  Se  Se162  1  0.40806256  0.91693022  0.93807406  1
  Se  Se163  1  0.74359756  0.25785220  0.43895115  1
  Se  Se164  1  0.74260418  0.25761691  0.94708357  1
  Se  Se165  1  0.75288506  0.57951125  0.43780316  1
  Se  Se166  1  0.75203280  0.58551802  0.94533158  1
  Se  Se167  1  0.74918224  0.91383811  0.44410760  1
  Se  Se168  1  0.75735515  0.91292437  0.95661883  1
  Se  Se169  1  0.25029102  0.07475703  0.44994149  1
  Se  Se170  1  0.25653002  0.07913980  0.92934347  1
  Se  Se171  1  0.24399791  0.42055734  0.45114089  1
  Se  Se172  1  0.24095209  0.41855168  0.95157847  1
  Se  Se173  1  0.24823035  0.74444570  0.45197762  1
  Se  Se174  1  0.24359916  0.75042725  0.95096858  1
  Se  Se175  1  0.58253879  0.08920785  0.44983871  1
  Se  Se176  1  0.59098996  0.07189938  0.95631494  1
  Se  Se177  1  0.57990740  0.42388576  0.44067480  1
  Se  Se178  1  0.58979247  0.40500403  0.95010753  1
  Se  Se179  1  0.59083332  0.74816102  0.43559934  1
  Se  Se180  1  0.58550700  0.74337617  0.93819905  1
  Se  Se181  1  0.91544787  0.07413367  0.43706811  1
  Se  Se182  1  0.92518771  0.08062046  0.94144227  1
  Se  Se183  1  0.93741160  0.39285897  0.44767140  1
  Se  Se184  1  0.91328469  0.42589228  0.94974394  1
  Se  Se185  1  0.91324627  0.74570250  0.43921769  1
  Se  Se186  1  0.91233514  0.75209206  0.94356323  1
  Se  Se187  1  0.24120971  0.25173588  0.31339851  1
  Se  Se188  1  0.24822836  0.25223719  0.79613376  1
  Se  Se189  1  0.24109653  0.58052332  0.31751681  1
  Se  Se190  1  0.24733658  0.57759098  0.81539529  1
  Se  Se191  1  0.24238506  0.91246821  0.30821530  1
  Se  Se192  1  0.24289133  0.90799593  0.80625820  1
  Se  Se193  1  0.58668750  0.26040116  0.30282415  1
  Se  Se194  1  0.57203696  0.24511852  0.80874599  1
  Se  Se195  1  0.58550433  0.58549026  0.29709174  1
  Se  Se196  1  0.59193234  0.57171068  0.79969663  1
  Se  Se197  1  0.58348894  0.92019250  0.30486479  1
  Se  Se198  1  0.58161295  0.91216658  0.81552663  1
  Se  Se199  1  0.90517887  0.24360960  0.31790750  1
  Se  Se200  1  0.90873043  0.24631123  0.81112778  1
  Se  Se201  1  0.92071147  0.57440017  0.30407837  1
  Se  Se202  1  0.92139462  0.59103971  0.80032543  1
  Se  Se203  1  0.91463345  0.91607781  0.29520518  1
  Se  Se204  1  0.91875432  0.91710117  0.80398609  1
  Se  Se205  1  0.08231758  0.07797198  0.30163806  1
  Se  Se206  1  0.08329875  0.07828081  0.79370992  1
  Se  Se207  1  0.08728314  0.42236134  0.31421868  1
  Se  Se208  1  0.08502918  0.42526573  0.81210981  1
  Se  Se209  1  0.07747988  0.74473880  0.30227318  1
  Se  Se210  1  0.08061474  0.74633079  0.80307555  1
  Se  Se211  1  0.42147322  0.09968300  0.31073980  1
  Se  Se212  1  0.42355586  0.08289198  0.80128592  1
  Se  Se213  1  0.42185205  0.42625079  0.30488086  1
  Se  Se214  1  0.42017161  0.42248078  0.80782936  1
  Se  Se215  1  0.42254803  0.75918323  0.31601170  1
  Se  Se216  1  0.42620696  0.75209213  0.80684981  1
  Se  Se217  1  0.74418452  0.08246341  0.30670607  1
  Se  Se218  1  0.75117000  0.09057664  0.82006807  1
  Se  Se219  1  0.74778323  0.41593431  0.29840267  1
  Se  Se220  1  0.76039368  0.43063396  0.80873772  1
  Se  Se221  1  0.75244244  0.74564769  0.29563213  1
  Se  Se222  1  0.75051872  0.75017570  0.80329663  1
  Se  Se223  1  0.24684360  0.09137876  0.18745622  1
  Se  Se224  1  0.24319064  0.08651741  0.67792362  1
  Se  Se225  1  0.24338460  0.43115382  0.19400777  1
  Se  Se226  1  0.25074296  0.41766873  0.70106767  1
  Se  Se227  1  0.24621496  0.75658577  0.19346489  1
  Se  Se228  1  0.24623590  0.75801715  0.68971799  1
  Se  Se229  1  0.58300385  0.08242452  0.20140080  1
  Se  Se230  1  0.58189181  0.09232105  0.69673918  1
  Se  Se231  1  0.58624855  0.41659491  0.18272095  1
  Se  Se232  1  0.58637406  0.41901132  0.67865107  1
  Se  Se233  1  0.57958554  0.74245016  0.20171529  1
  Se  Se234  1  0.59229654  0.74434154  0.70111831  1
  Se  Se235  1  0.92231950  0.08504072  0.20577493  1
  Se  Se236  1  0.91415890  0.07681832  0.70300121  1
  Se  Se237  1  0.91398146  0.42005356  0.18821865  1
  Se  Se238  1  0.91063968  0.42482605  0.68904077  1
  Se  Se239  1  0.90259939  0.76089899  0.20008343  1
  Se  Se240  1  0.92192300  0.74690005  0.69251377  1
  Se  Se241  1  0.09168508  0.24627372  0.19459451  1
  Se  Se242  1  0.08894354  0.24462358  0.68581631  1
  Se  Se243  1  0.07648477  0.59150579  0.20021281  1
  Se  Se244  1  0.08150579  0.58716500  0.69917695  1
  Se  Se245  1  0.07999599  0.91846807  0.19543266  1
  Se  Se246  1  0.08112769  0.91910716  0.69029505  1
  Se  Se247  1  0.43256309  0.25535032  0.18473927  1
  Se  Se248  1  0.41877085  0.24585196  0.69584445  1
  Se  Se249  1  0.41793864  0.57671504  0.18970207  1
  Se  Se250  1  0.42948038  0.57296061  0.69159322  1
  Se  Se251  1  0.42441972  0.91125658  0.19078475  1
  Se  Se252  1  0.43033591  0.90800562  0.68851401  1
  Se  Se253  1  0.75070228  0.25136535  0.20106583  1
  Se  Se254  1  0.75379960  0.24688443  0.69663495  1
  Se  Se255  1  0.74991109  0.58556855  0.19357135  1
  Se  Se256  1  0.74910087  0.58974447  0.68962851  1
  Se  Se257  1  0.72851138  0.93580027  0.20018134  1
  Se  Se258  1  0.75870816  0.90500499  0.68939478  1
