# generated using pymatgen
data_In86Cu29Se144
_symmetry_space_group_name_H-M   'P 1'
_cell_length_a   17.58595118
_cell_length_b   17.58449367
_cell_length_c   23.45083562
_cell_angle_alpha   89.98408746
_cell_angle_beta   90.01849608
_cell_angle_gamma   89.98910153
_symmetry_Int_Tables_number   1
_chemical_formula_structural   In86Cu29Se144
_chemical_formula_sum   'In86 Cu29 Se144'
_cell_volume   7251.93672335
_cell_formula_units_Z   1
loop_
 _symmetry_equiv_pos_site_id
 _symmetry_equiv_pos_as_xyz
  1  'x, y, z'
loop_
 _atom_site_type_symbol
 _atom_site_label
 _atom_site_symmetry_multiplicity
 _atom_site_fract_x
 _atom_site_fract_y
 _atom_site_fract_z
 _atom_site_occupancy
  In  In0  1  0.00325054  0.15441183  0.12986802  1
  In  In1  1  -0.00023293  0.16603598  0.62893953  1
  In  In2  1  0.00910860  0.50510647  0.12529162  1
  In  In3  1  -0.00254997  0.49762584  0.62194141  1
  In  In4  1  0.01906198  0.83654551  0.11913308  1
  In  In5  1  0.00781012  0.82623216  0.63271372  1
  In  In6  1  0.32254094  0.16963686  0.13041022  1
  In  In7  1  0.33270705  0.16876036  0.62341204  1
  In  In8  1  0.33662608  0.47785440  0.12674330  1
  In  In9  1  0.31400779  0.49493253  0.61763696  1
  In  In10  1  0.33573148  0.84224299  0.12036134  1
  In  In11  1  0.33080117  0.84504464  0.62388279  1
  In  In12  1  0.67563570  0.17313599  0.13243050  1
  In  In13  1  0.68016049  0.18488906  0.61223193  1
  In  In14  1  0.66266349  0.50447904  0.13192602  1
  In  In15  1  0.67700915  0.48981648  0.62996736  1
  In  In16  1  0.65134043  0.83436155  0.12642257  1
  In  In17  1  0.65691245  0.82510702  0.63189697  1
  In  In18  1  0.16261455  0.00514760  0.37399679  1
  In  In19  1  0.17072675  0.00334655  0.87376819  1
  In  In20  1  0.17388262  0.32805682  0.38066201  1
  In  In21  1  0.16130869  0.32031921  0.86715118  1
  In  In22  1  0.17419125  0.66902389  0.39194204  1
  In  In23  1  0.16956162  0.67751784  0.87185659  1
  In  In24  1  0.49996859  0.01946308  0.37349249  1
  In  In25  1  0.47985456  0.00261875  0.87860885  1
  In  In26  1  0.48472123  0.32486562  0.36840514  1
  In  In27  1  0.50302485  0.34034745  0.87058943  1
  In  In28  1  0.50747398  0.65674378  0.37324535  1
  In  In29  1  0.50121003  0.66219742  0.88221273  1
  In  In30  1  0.85734946  0.00249171  0.37329555  1
  In  In31  1  0.84308996  0.00196595  0.86708012  1
  In  In32  1  0.82793294  0.34308542  0.38632070  1
  In  In33  1  0.84421398  0.33310542  0.86183632  1
  In  In34  1  0.82201118  0.66583292  0.37599576  1
  In  In35  1  0.83171252  0.66109045  0.86378505  1
  In  In36  1  0.01077383  0.15917576  0.38739532  1
  In  In37  1  0.02234243  0.18267750  0.85762372  1
  In  In38  1  0.00468792  0.49264681  0.38833470  1
  In  In39  1  -0.00274699  0.49213592  0.86430391  1
  In  In40  1  0.00266652  0.85360704  0.37040757  1
  In  In41  1  0.01585102  0.84722968  0.86192026  1
  In  In42  1  0.32754677  0.16902167  0.37287026  1
  In  In43  1  0.31967381  0.15154523  0.86232820  1
  In  In44  1  0.33318240  0.49174277  0.37788927  1
  In  In45  1  0.34460741  0.50350784  0.87494156  1
  In  In46  1  0.31297576  0.83869475  0.37671914  1
  In  In47  1  0.31929681  0.85026836  0.89144960  1
  In  In48  1  0.65522501  0.17865013  0.38278191  1
  In  In49  1  0.66574579  0.17603110  0.86780065  1
  In  In50  1  0.67158035  0.50563194  0.37290511  1
  In  In51  1  0.65982926  0.49435186  0.86960104  1
  In  In52  1  0.67950280  0.82336803  0.36811168  1
  In  In53  1  0.66544827  0.81929278  0.87652138  1
  In  In54  1  0.17015734  -0.00207893  0.12761252  1
  In  In55  1  0.16713286  0.00301217  0.62423860  1
  In  In56  1  0.17884814  0.33153324  0.12887647  1
  In  In57  1  0.16590959  0.33000052  0.62406504  1
  In  In58  1  0.15873595  0.67562176  0.12273845  1
  In  In59  1  0.15833295  0.65285324  0.61205773  1
  In  In60  1  0.49071869  -0.01269790  0.12099684  1
  In  In61  1  0.48228392  0.00312376  0.62979631  1
  In  In62  1  0.49659136  0.33853504  0.12613652  1
  In  In63  1  0.51114032  0.32627383  0.63210993  1
  In  In64  1  0.50520091  0.67139047  0.12271419  1
  In  In65  1  0.50219537  0.67600435  0.63083019  1
  In  In66  1  0.83944011  0.01001076  0.13007346  1
  In  In67  1  0.84154615  0.02095514  0.62406992  1
  In  In68  1  0.83118326  0.32229167  0.13215623  1
  In  In69  1  0.83159585  0.33074846  0.62737794  1
  In  In70  1  0.83370031  0.65371875  0.12705531  1
  In  In71  1  0.84079283  0.65871078  0.63007467  1
  In  In72  1  0.83417856  0.83180748  -0.00587092  1
  In  In73  1  0.17260687  0.49831904  0.00578114  1
  In  In74  1  0.84189018  0.16714825  0.00098186  1
  In  In75  1  0.66490442  0.00159034  0.24857764  1
  In  In76  1  0.33591554  0.66444104  0.25751147  1
  In  In77  1  0.00611185  0.32717689  0.25658919  1
  In  In78  1  0.49514623  0.83808395  0.50452115  1
  In  In79  1  0.49073258  0.16701808  0.00365611  1
  In  In80  1  0.66545467  0.00182482  0.74505223  1
  In  In81  1  0.49686506  0.49953590  0.49557912  1
  In  In82  1  0.83618752  0.83697278  0.49412579  1
  In  In83  1  0.83305831  0.49175377  -0.01593948  1
  In  In84  1  -0.00303571  0.67110399  0.24864415  1
  In  In85  1  0.33284283  0.66730661  0.75043222  1
  Cu  Cu86  1  0.66558998  0.00544081  0.49965869  1
  Cu  Cu87  1  -0.00029580  0.33082876  0.50745067  1
  Cu  Cu88  1  0.33356260  0.32739680  -0.00103105  1
  Cu  Cu89  1  0.15937414  0.49546800  0.74087493  1
  Cu  Cu90  1  0.83175053  0.16919242  0.25755859  1
  Cu  Cu91  1  0.01108582  0.00235535  -0.00215537  1
  Cu  Cu92  1  0.66547671  0.33338338  0.50325866  1
  Cu  Cu93  1  0.50637944  0.49718434  0.25074676  1
  Cu  Cu94  1  0.00574059  0.00393986  0.50224699  1
  Cu  Cu95  1  0.83323844  0.50202200  0.74412587  1
  Cu  Cu96  1  0.49826883  0.17169681  0.74918011  1
  Cu  Cu97  1  0.49851650  0.50099130  0.75135602  1
  Cu  Cu98  1  0.32749595  0.00761013  0.49996084  1
  Cu  Cu99  1  0.83543410  0.83207553  0.74987418  1
  Cu  Cu100  1  0.16322132  0.84010066  0.25043110  1
  Cu  Cu101  1  0.00009375  0.66574489  -0.00925277  1
  Cu  Cu102  1  0.66738367  0.34058931  -0.00386894  1
  Cu  Cu103  1  0.49029311  0.17057196  0.24893575  1
  Cu  Cu104  1  0.16896148  0.83414065  0.74945191  1
  Cu  Cu105  1  -0.00142653  0.66736609  0.50524898  1
  Cu  Cu106  1  0.49791198  0.83035690  0.75709963  1
  Cu  Cu107  1  0.65939768  -0.00075509  -0.00177931  1
  Cu  Cu108  1  0.17178667  0.16321395  0.74354437  1
  Cu  Cu109  1  0.65636113  0.66685316  0.00482032  1
  Cu  Cu110  1  0.33969495  0.66793706  0.00109930  1
  Cu  Cu111  1  0.49881440  0.83169460  0.24592797  1
  Cu  Cu112  1  0.33244263  0.32767502  0.49843090  1
  Cu  Cu113  1  0.83249651  0.49496158  0.25482134  1
  Cu  Cu114  1  0.66981797  0.66136032  0.50148980  1
  Se  Se115  1  0.08782332  0.08358143  0.05701629  1
  Se  Se116  1  0.08561131  0.08898565  0.55683059  1
  Se  Se117  1  0.07811268  0.40683180  0.05954333  1
  Se  Se118  1  0.08588247  0.41724086  0.55543287  1
  Se  Se119  1  0.08325345  0.74779520  0.04455484  1
  Se  Se120  1  0.08200998  0.75468512  0.55367425  1
  Se  Se121  1  0.40124914  0.07464275  0.05843639  1
  Se  Se122  1  0.41626908  0.08500958  0.55292211  1
  Se  Se123  1  0.41874124  0.41206973  0.04886717  1
  Se  Se124  1  0.41419362  0.40781093  0.55962359  1
  Se  Se125  1  0.41918019  0.75289271  0.05682273  1
  Se  Se126  1  0.40746071  0.74223379  0.55974702  1
  Se  Se127  1  0.74139302  0.07722893  0.05733355  1
  Se  Se128  1  0.75337791  0.08603908  0.55032515  1
  Se  Se129  1  0.75119774  0.41250151  0.05989899  1
  Se  Se130  1  0.75208451  0.41555486  0.55385288  1
  Se  Se131  1  0.74648645  0.74369393  0.05968859  1
  Se  Se132  1  0.74639325  0.74933285  0.55882412  1
  Se  Se133  1  0.24887038  0.24901725  0.05330605  1
  Se  Se134  1  0.24731136  0.24696521  0.55327375  1
  Se  Se135  1  0.26220184  0.59042345  0.06649510  1
  Se  Se136  1  0.25410294  0.58569323  0.54563862  1
  Se  Se137  1  0.22749988  0.89610005  0.05930826  1
  Se  Se138  1  0.24774640  0.91986271  0.55195675  1
  Se  Se139  1  0.59441849  0.25386878  0.05683682  1
  Se  Se140  1  0.57557954  0.25038332  0.55007780  1
  Se  Se141  1  0.58068568  0.57641496  0.05717243  1
  Se  Se142  1  0.58526304  0.58662467  0.56152517  1
  Se  Se143  1  0.57990970  0.91425912  0.05100269  1
  Se  Se144  1  0.58997378  0.92676083  0.56326131  1
  Se  Se145  1  0.92854727  0.25689378  0.06303746  1
  Se  Se146  1  0.91506808  0.24731423  0.55883723  1
  Se  Se147  1  0.92227446  0.58407817  0.04948531  1
  Se  Se148  1  0.91261681  0.58233057  0.55297774  1
  Se  Se149  1  0.92084911  0.92649188  0.05470698  1
  Se  Se150  1  0.92313040  0.92069218  0.56083945  1
  Se  Se151  1  0.08580871  0.25333028  0.45076997  1
  Se  Se152  1  0.08870083  0.24373841  0.94325767  1
  Se  Se153  1  0.08392082  0.58395104  0.45235135  1
  Se  Se154  1  0.08238060  0.58044293  0.93626567  1
  Se  Se155  1  0.08518561  0.91879616  0.44713652  1
  Se  Se156  1  0.08819400  0.91511691  0.94275296  1
  Se  Se157  1  0.41610514  0.24479442  0.44517924  1
  Se  Se158  1  0.41039807  0.25104127  0.93330156  1
  Se  Se159  1  0.40688652  0.59678576  0.44220384  1
  Se  Se160  1  0.41908428  0.57881350  0.95142521  1
  Se  Se161  1  0.41126890  0.92777122  0.43963506  1
  Se  Se162  1  0.42219127  0.91436071  0.95349971  1
  Se  Se163  1  0.74990403  0.24902193  0.45004223  1
  Se  Se164  1  0.75001869  0.25837779  0.94062511  1
  Se  Se165  1  0.75277167  0.57849349  0.44895691  1
  Se  Se166  1  0.73932041  0.59372437  0.94090948  1
  Se  Se167  1  0.74211733  0.92739897  0.43629780  1
  Se  Se168  1  0.74403792  0.92753205  0.93637124  1
  Se  Se169  1  0.24476666  0.08801825  0.44351540  1
  Se  Se170  1  0.25702872  0.07961237  0.94377621  1
  Se  Se171  1  0.25039259  0.41751876  0.45052893  1
  Se  Se172  1  0.25526449  0.41149106  0.93819275  1
  Se  Se173  1  0.25063354  0.76055072  0.45534571  1
  Se  Se174  1  0.24927411  0.74436691  0.94936019  1
  Se  Se175  1  0.57810121  0.08860951  0.45073304  1
  Se  Se176  1  0.58700964  0.08505575  0.93808867  1
  Se  Se177  1  0.58612816  0.40865234  0.43676021  1
  Se  Se178  1  0.58021191  0.42064586  0.94537216  1
  Se  Se179  1  0.59044835  0.74701581  0.44439912  1
  Se  Se180  1  0.57832908  0.75336249  0.95031787  1
  Se  Se181  1  0.91485872  0.08493021  0.45351660  1
  Se  Se182  1  0.92869204  0.07998033  0.93823891  1
  Se  Se183  1  0.91592858  0.41733309  0.45595893  1
  Se  Se184  1  0.93341533  0.39864179  0.94089044  1
  Se  Se185  1  0.92644522  0.74483917  0.43628831  1
  Se  Se186  1  0.92330167  0.74722405  0.93001502  1
  Se  Se187  1  0.25623915  0.26151434  0.30465346  1
  Se  Se188  1  0.25319580  0.25090804  0.79697711  1
  Se  Se189  1  0.24028848  0.57977557  0.31433220  1
  Se  Se190  1  0.23985366  0.57242196  0.80638237  1
  Se  Se191  1  0.24747854  0.92390830  0.30229140  1
  Se  Se192  1  0.25250469  0.91398377  0.80572761  1
  Se  Se193  1  0.57857631  0.24803107  0.30312161  1
  Se  Se194  1  0.58276448  0.25602115  0.80012807  1
  Se  Se195  1  0.58901519  0.58437689  0.30021999  1
  Se  Se196  1  0.57854141  0.58597629  0.80625210  1
  Se  Se197  1  0.57642983  0.91091487  0.31187221  1
  Se  Se198  1  0.57993443  0.91560736  0.81291744  1
  Se  Se199  1  0.91183258  0.24700007  0.31979301  1
  Se  Se200  1  0.91242882  0.23749891  0.79780160  1
  Se  Se201  1  0.91655423  0.57424049  0.31268554  1
  Se  Se202  1  0.92024929  0.58244234  0.79833782  1
  Se  Se203  1  0.89521002  0.89726801  0.30371057  1
  Se  Se204  1  0.92001858  0.91933900  0.79671734  1
  Se  Se205  1  0.06420383  0.07344213  0.30841977  1
  Se  Se206  1  0.08968755  0.07786950  0.79841787  1
  Se  Se207  1  0.09049566  0.42437582  0.31231966  1
  Se  Se208  1  0.08315945  0.41000933  0.79921797  1
  Se  Se209  1  0.09138410  0.75320934  0.31212635  1
  Se  Se210  1  0.08410246  0.74606321  0.79796880  1
  Se  Se211  1  0.41059811  0.08460079  0.30169805  1
  Se  Se212  1  0.41818443  0.08050371  0.79731150  1
  Se  Se213  1  0.41506830  0.42141377  0.30232061  1
  Se  Se214  1  0.41316157  0.41722607  0.80167200  1
  Se  Se215  1  0.42352987  0.76026708  0.31611792  1
  Se  Se216  1  0.41321490  0.75552837  0.81803007  1
  Se  Se217  1  0.74988738  0.08698062  0.31600248  1
  Se  Se218  1  0.75643939  0.09220729  0.80342612  1
  Se  Se219  1  0.74889847  0.41237664  0.30766257  1
  Se  Se220  1  0.75377742  0.42107291  0.80407890  1
  Se  Se221  1  0.75537975  0.74304861  0.29758000  1
  Se  Se222  1  0.74840848  0.75103413  0.80109532  1
  Se  Se223  1  0.25458364  0.07555733  0.19753655  1
  Se  Se224  1  0.25707733  0.07913413  0.69315358  1
  Se  Se225  1  0.24371073  0.42254858  0.19924201  1
  Se  Se226  1  0.24961830  0.41330594  0.69489792  1
  Se  Se227  1  0.24538377  0.75383961  0.19566946  1
  Se  Se228  1  0.24285733  0.75073504  0.68627253  1
  Se  Se229  1  0.57127256  0.08989491  0.18710455  1
  Se  Se230  1  0.57849621  0.09333104  0.68527304  1
  Se  Se231  1  0.58643375  0.41085299  0.19649490  1
  Se  Se232  1  0.58461667  0.41899122  0.69853711  1
  Se  Se233  1  0.58427404  0.74583773  0.19925617  1
  Se  Se234  1  0.58273785  0.74603050  0.70713359  1
  Se  Se235  1  0.91566489  0.08654613  0.20447956  1
  Se  Se236  1  0.92109926  0.08384403  0.70131823  1
  Se  Se237  1  0.91612551  0.42240351  0.19268513  1
  Se  Se238  1  0.91693988  0.41674988  0.69345816  1
  Se  Se239  1  0.91474851  0.75795422  0.18106325  1
  Se  Se240  1  0.91819865  0.74654356  0.69772142  1
  Se  Se241  1  0.09367250  0.23925296  0.19558407  1
  Se  Se242  1  0.08553769  0.24982624  0.69607675  1
  Se  Se243  1  0.09638950  0.57865372  0.19720066  1
  Se  Se244  1  0.08021234  0.58464330  0.69061633  1
  Se  Se245  1  0.07743234  0.92080286  0.19756935  1
  Se  Se246  1  0.08673163  0.91893469  0.69563036  1
  Se  Se247  1  0.41241344  0.25518491  0.19223269  1
  Se  Se248  1  0.41353069  0.25273660  0.69464114  1
  Se  Se249  1  0.42217161  0.57735193  0.19106787  1
  Se  Se250  1  0.41746931  0.57438650  0.68702659  1
  Se  Se251  1  0.41287016  0.91607615  0.19833270  1
  Se  Se252  1  0.41581467  0.91059192  0.70053073  1
  Se  Se253  1  0.74745911  0.25402579  0.20737923  1
  Se  Se254  1  0.73918679  0.25670947  0.69498581  1
  Se  Se255  1  0.75229664  0.58096119  0.20013427  1
  Se  Se256  1  0.74514037  0.58759611  0.69640048  1
  Se  Se257  1  0.75382435  0.91197914  0.18756922  1
  Se  Se258  1  0.75849477  0.91157927  0.68543659  1
