# generated using pymatgen
data_In86Cu29Se144
_symmetry_space_group_name_H-M   'P 1'
_cell_length_a   17.59071325
_cell_length_b   17.58210850
_cell_length_c   23.44933561
_cell_angle_alpha   90.01080877
_cell_angle_beta   90.00788671
_cell_angle_gamma   90.00960489
_symmetry_Int_Tables_number   1
_chemical_formula_structural   In86Cu29Se144
_chemical_formula_sum   'In86 Cu29 Se144'
_cell_volume   7252.45310207
_cell_formula_units_Z   1
loop_
 _symmetry_equiv_pos_site_id
 _symmetry_equiv_pos_as_xyz
  1  'x, y, z'
loop_
 _atom_site_type_symbol
 _atom_site_label
 _atom_site_symmetry_multiplicity
 _atom_site_fract_x
 _atom_site_fract_y
 _atom_site_fract_z
 _atom_site_occupancy
  In  In0  1  0.00034820  0.16830543  0.12458389  1
  In  In1  1  -0.00742242  0.17865071  0.63644414  1
  In  In2  1  -0.01485861  0.48549890  0.11680259  1
  In  In3  1  0.01236604  0.48980248  0.63778818  1
  In  In4  1  0.00696107  0.84234880  0.12168645  1
  In  In5  1  -0.01054896  0.84255548  0.63397419  1
  In  In6  1  0.33615963  0.16313750  0.12111492  1
  In  In7  1  0.32226465  0.16923610  0.62737263  1
  In  In8  1  0.33921124  0.48634374  0.13502365  1
  In  In9  1  0.33467930  0.49465315  0.61573817  1
  In  In10  1  0.32554141  0.84041475  0.13629844  1
  In  In11  1  0.34419370  0.83415403  0.62421868  1
  In  In12  1  0.67781094  0.17486464  0.11192989  1
  In  In13  1  0.67766150  0.16077900  0.62793655  1
  In  In14  1  0.66166536  0.48796740  0.11931637  1
  In  In15  1  0.65482577  0.49614925  0.62461054  1
  In  In16  1  0.67602451  0.82654475  0.12428881  1
  In  In17  1  0.66874584  0.83338337  0.61456246  1
  In  In18  1  0.16713011  0.01426100  0.35856001  1
  In  In19  1  0.17731975  0.01464626  0.87296721  1
  In  In20  1  0.17285911  0.33864677  0.36369599  1
  In  In21  1  0.14977678  0.32743790  0.87069002  1
  In  In22  1  0.16366185  0.65070235  0.37697303  1
  In  In23  1  0.16161525  0.66898206  0.87019863  1
  In  In24  1  0.49031367  0.00205449  0.37401467  1
  In  In25  1  0.49356673  0.01736858  0.88062029  1
  In  In26  1  0.50580020  0.34057922  0.36790933  1
  In  In27  1  0.51058168  0.32020881  0.88190839  1
  In  In28  1  0.49440933  0.67472589  0.38021725  1
  In  In29  1  0.48971471  0.66103149  0.87859556  1
  In  In30  1  0.83969290  0.00021324  0.37786295  1
  In  In31  1  0.83406779  -0.00762554  0.88717191  1
  In  In32  1  0.81869080  0.32166695  0.36762150  1
  In  In33  1  0.83549563  0.32850830  0.87530660  1
  In  In34  1  0.84573153  0.67475638  0.37862921  1
  In  In35  1  0.85064323  0.65096184  0.89113719  1
  In  In36  1  -0.00628492  0.16120737  0.36532163  1
  In  In37  1  -0.00026224  0.16515807  0.87735275  1
  In  In38  1  0.01003025  0.50380888  0.37927680  1
  In  In39  1  -0.00160782  0.48701994  0.86791796  1
  In  In40  1  -0.00946902  0.84150635  0.37988483  1
  In  In41  1  -0.01230607  0.82813753  0.86878523  1
  In  In42  1  0.33048398  0.17139319  0.35590736  1
  In  In43  1  0.34503096  0.14843939  0.89912299  1
  In  In44  1  0.33346702  0.50188458  0.37130845  1
  In  In45  1  0.33655561  0.50708489  0.88155535  1
  In  In46  1  0.33970293  0.84364164  0.36996766  1
  In  In47  1  0.32048499  0.83891186  0.87526200  1
  In  In48  1  0.67181770  0.18815526  0.37441510  1
  In  In49  1  0.65279831  0.18011008  0.88703162  1
  In  In50  1  0.66061632  0.47618481  0.37588054  1
  In  In51  1  0.67845014  0.48645316  0.87899976  1
  In  In52  1  0.67126733  0.83138427  0.38224659  1
  In  In53  1  0.68173105  0.84454393  0.87779489  1
  In  In54  1  0.16545420  0.01042962  0.13248158  1
  In  In55  1  0.16092043  0.00414486  0.63369178  1
  In  In56  1  0.18068371  0.31004789  0.14355178  1
  In  In57  1  0.15927981  0.33365439  0.62465868  1
  In  In58  1  0.16842645  0.67551869  0.12744717  1
  In  In59  1  0.16485069  0.65154797  0.62717194  1
  In  In60  1  0.48299529  0.00343964  0.11926560  1
  In  In61  1  0.50828075  -0.00572432  0.62562005  1
  In  In62  1  0.50111217  0.33354775  0.12388578  1
  In  In63  1  0.49771008  0.34274132  0.62368150  1
  In  In64  1  0.49845968  0.65276237  0.12569175  1
  In  In65  1  0.49783333  0.66510817  0.61635760  1
  In  In66  1  0.84809666  0.01971942  0.10404345  1
  In  In67  1  0.83775101  0.00950977  0.62241751  1
  In  In68  1  0.83390481  0.32812206  0.12361530  1
  In  In69  1  0.83561375  0.32810450  0.62933417  1
  In  In70  1  0.84662920  0.66416246  0.10958316  1
  In  In71  1  0.83341107  0.67595897  0.62709084  1
  In  In72  1  0.00597634  0.66347066  0.25069010  1
  In  In73  1  0.33121701  0.32800179  0.75147427  1
  In  In74  1  0.16194905  0.83651011  0.00571412  1
  In  In75  1  0.32623627  0.67046265  0.75004235  1
  In  In76  1  0.66620838  0.00421731  0.24120552  1
  In  In77  1  0.16281999  0.17027294  0.48909521  1
  In  In78  1  0.50570949  0.16745287  0.49707857  1
  In  In79  1  0.16170711  0.49284383  -0.00235289  1
  In  In80  1  0.83099044  0.50385973  0.50059164  1
  In  In81  1  0.66638136  0.66031509  0.24773924  1
  In  In82  1  0.66995208  0.00775213  0.75617300  1
  In  In83  1  0.50403989  0.83175458  -0.00373977  1
  In  In84  1  0.66878554  0.66379640  0.74706915  1
  In  In85  1  0.16520419  0.83459321  0.49643301  1
  Cu  Cu86  1  0.83816183  0.49185417  0.75631699  1
  Cu  Cu87  1  -0.00497234  0.00889118  0.50168974  1
  Cu  Cu88  1  0.50096444  0.49447683  0.74962156  1
  Cu  Cu89  1  0.16000597  0.84201009  0.75392219  1
  Cu  Cu90  1  -0.00591072  0.33630499  0.50456789  1
  Cu  Cu91  1  0.84101133  0.84178162  0.25008191  1
  Cu  Cu92  1  0.00387600  -0.00099934  -0.00232193  1
  Cu  Cu93  1  0.83373576  0.83438055  0.75239270  1
  Cu  Cu94  1  0.49912388  0.84365872  0.74584052  1
  Cu  Cu95  1  0.00065666  0.66936260  0.50278307  1
  Cu  Cu96  1  0.49844809  0.17251138  0.24487821  1
  Cu  Cu97  1  0.82881428  0.49391757  0.24493744  1
  Cu  Cu98  1  0.16967972  0.83476736  0.25075509  1
  Cu  Cu99  1  0.33581187  0.66300503  0.49870263  1
  Cu  Cu100  1  0.33384039  0.33293612  0.00902374  1
  Cu  Cu101  1  0.16507148  0.49781916  0.25140364  1
  Cu  Cu102  1  -0.00314990  0.32816304  -0.00022668  1
  Cu  Cu103  1  0.83218597  0.16621393  0.24093185  1
  Cu  Cu104  1  0.33818562  -0.00333039  0.49700397  1
  Cu  Cu105  1  0.67269289  -0.00201310  0.49932482  1
  Cu  Cu106  1  0.66554116  0.66353516  0.49927005  1
  Cu  Cu107  1  0.33626537  0.66176021  0.00650523  1
  Cu  Cu108  1  0.49415870  0.49709876  0.24921473  1
  Cu  Cu109  1  0.67030758  0.66166474  0.00384992  1
  Cu  Cu110  1  0.83766422  0.16804765  0.75504130  1
  Cu  Cu111  1  0.33562703  0.34127924  0.48939191  1
  Cu  Cu112  1  0.66961105  0.34176840  0.00009195  1
  Cu  Cu113  1  0.49406164  0.83518009  0.25313704  1
  Cu  Cu114  1  0.16730734  0.16319965  0.75527548  1
  Se  Se115  1  0.08228491  0.08026905  0.05685686  1
  Se  Se116  1  0.07873404  0.08765305  0.56007536  1
  Se  Se117  1  0.08472546  0.39836313  0.06232804  1
  Se  Se118  1  0.08151658  0.41816454  0.55462347  1
  Se  Se119  1  0.07154005  0.73585712  0.05455179  1
  Se  Se120  1  0.07970866  0.75094401  0.56388083  1
  Se  Se121  1  0.42097524  0.09218021  0.04634529  1
  Se  Se122  1  0.41082852  0.08179846  0.55878665  1
  Se  Se123  1  0.41785269  0.42108956  0.05579784  1
  Se  Se124  1  0.42067553  0.41732920  0.54703145  1
  Se  Se125  1  0.41094590  0.75007175  0.06391167  1
  Se  Se126  1  0.41592009  0.75148653  0.55048783  1
  Se  Se127  1  0.73714468  0.07284380  0.04580169  1
  Se  Se128  1  0.75230338  0.08518758  0.55138763  1
  Se  Se129  1  0.75827966  0.41896383  0.05386201  1
  Se  Se130  1  0.74545414  0.41133725  0.55990630  1
  Se  Se131  1  0.75386020  0.74915829  0.05114543  1
  Se  Se132  1  0.75217949  0.74575596  0.55078593  1
  Se  Se133  1  0.24604134  0.24873764  0.05619097  1
  Se  Se134  1  0.25601392  0.26041287  0.55091246  1
  Se  Se135  1  0.25178678  0.58151976  0.06270916  1
  Se  Se136  1  0.25068813  0.58349316  0.55310987  1
  Se  Se137  1  0.25630611  0.92507771  0.05994958  1
  Se  Se138  1  0.25179918  0.92593266  0.55892380  1
  Se  Se139  1  0.58464461  0.25673487  0.05134894  1
  Se  Se140  1  0.59027133  0.25265194  0.56218831  1
  Se  Se141  1  0.58305525  0.58064579  0.05428074  1
  Se  Se142  1  0.58235690  0.58037564  0.55180153  1
  Se  Se143  1  0.58593991  0.91682331  0.06444368  1
  Se  Se144  1  0.58309123  0.91792890  0.54976180  1
  Se  Se145  1  0.91258538  0.24362881  0.05267740  1
  Se  Se146  1  0.91656795  0.24813012  0.55685332  1
  Se  Se147  1  0.92457911  0.57680198  0.04486334  1
  Se  Se148  1  0.92375183  0.58603110  0.56409672  1
  Se  Se149  1  0.92075414  0.91249055  0.04935336  1
  Se  Se150  1  0.91817069  0.92024938  0.55578939  1
  Se  Se151  1  0.07127284  0.26275515  0.43548378  1
  Se  Se152  1  0.08384027  0.24651481  0.94838122  1
  Se  Se153  1  0.08438530  0.58247032  0.45484390  1
  Se  Se154  1  0.07652145  0.58616995  0.93835714  1
  Se  Se155  1  0.08167968  0.93563957  0.44060846  1
  Se  Se156  1  0.08082587  0.91888832  0.93450002  1
  Se  Se157  1  0.40887229  0.24922561  0.43493379  1
  Se  Se158  1  0.41957065  0.25272971  0.95383219  1
  Se  Se159  1  0.41770283  0.58005698  0.44341133  1
  Se  Se160  1  0.42091602  0.57950107  0.95479926  1
  Se  Se161  1  0.42247169  0.91288844  0.44678232  1
  Se  Se162  1  0.40614088  0.92023286  0.94407671  1
  Se  Se163  1  0.75201677  0.25393687  0.45097769  1
  Se  Se164  1  0.75136533  0.25386123  0.94868147  1
  Se  Se165  1  0.74231054  0.58929268  0.43287635  1
  Se  Se166  1  0.75052450  0.57599097  0.94919811  1
  Se  Se167  1  0.75758354  0.91534573  0.44594447  1
  Se  Se168  1  0.74370111  0.92092815  0.95722157  1
  Se  Se169  1  0.26079708  0.07840032  0.43704004  1
  Se  Se170  1  0.23940934  0.08325673  0.95750039  1
  Se  Se171  1  0.24540624  0.41985427  0.43914653  1
  Se  Se172  1  0.25605791  0.40419914  0.93928096  1
  Se  Se173  1  0.25594742  0.74406929  0.43791129  1
  Se  Se174  1  0.25496577  0.73918859  0.94603960  1
  Se  Se175  1  0.59589463  0.07704546  0.43500618  1
  Se  Se176  1  0.59812396  0.06805624  0.94634737  1
  Se  Se177  1  0.57934152  0.40662701  0.44937431  1
  Se  Se178  1  0.58057610  0.42003157  0.94600165  1
  Se  Se179  1  0.58387892  0.75141388  0.44780189  1
  Se  Se180  1  0.59519375  0.73917280  0.93683394  1
  Se  Se181  1  0.91596014  0.09205524  0.44479109  1
  Se  Se182  1  0.91782420  0.08424116  0.94843653  1
  Se  Se183  1  0.91699971  0.41330691  0.43840646  1
  Se  Se184  1  0.91899382  0.41395547  0.94387515  1
  Se  Se185  1  0.91827626  0.75579727  0.45291616  1
  Se  Se186  1  0.90603107  0.76409896  0.94659620  1
  Se  Se187  1  0.22906128  0.23713763  0.29627184  1
  Se  Se188  1  0.25013476  0.23876486  0.81714830  1
  Se  Se189  1  0.24791789  0.58481182  0.30182780  1
  Se  Se190  1  0.24352638  0.57188855  0.80702663  1
  Se  Se191  1  0.25304159  0.92075113  0.30172448  1
  Se  Se192  1  0.25025409  0.92229768  0.80237898  1
  Se  Se193  1  0.58368408  0.25172684  0.29988945  1
  Se  Se194  1  0.58345516  0.24694692  0.80474418  1
  Se  Se195  1  0.57697577  0.57544443  0.31113295  1
  Se  Se196  1  0.57845437  0.57748584  0.81038571  1
  Se  Se197  1  0.58402577  0.91150923  0.30825144  1
  Se  Se198  1  0.57778437  0.91319193  0.81256397  1
  Se  Se199  1  0.91052703  0.24952764  0.30007738  1
  Se  Se200  1  0.92391726  0.25214938  0.80568707  1
  Se  Se201  1  0.90710252  0.57476576  0.30699552  1
  Se  Se202  1  0.91584382  0.58254149  0.80655578  1
  Se  Se203  1  0.92260875  0.92414664  0.30393173  1
  Se  Se204  1  0.90997662  0.92401715  0.80605046  1
  Se  Se205  1  0.07841182  0.08872914  0.29346350  1
  Se  Se206  1  0.07986941  0.08111172  0.80598705  1
  Se  Se207  1  0.07611823  0.41996084  0.30378853  1
  Se  Se208  1  0.09158988  0.42021432  0.79887827  1
  Se  Se209  1  0.08874035  0.75833682  0.31461958  1
  Se  Se210  1  0.08061874  0.75195694  0.80284125  1
  Se  Se211  1  0.42147620  0.08334004  0.29841971  1
  Se  Se212  1  0.41064295  0.09151067  0.81055543  1
  Se  Se213  1  0.41100166  0.41280662  0.30259062  1
  Se  Se214  1  0.42001239  0.42011587  0.81275730  1
  Se  Se215  1  0.41409841  0.74784732  0.30493952  1
  Se  Se216  1  0.42254704  0.76085251  0.80781280  1
  Se  Se217  1  0.75315878  0.08950717  0.30724501  1
  Se  Se218  1  0.75789393  0.09312152  0.81885252  1
  Se  Se219  1  0.74449758  0.41320634  0.29876918  1
  Se  Se220  1  0.75011704  0.40807332  0.80314544  1
  Se  Se221  1  0.75986197  0.75661642  0.30480816  1
  Se  Se222  1  0.75676931  0.74918296  0.81115995  1
  Se  Se223  1  0.26004831  0.08329396  0.19553278  1
  Se  Se224  1  0.25088613  0.08344024  0.69873937  1
  Se  Se225  1  0.25173336  0.41188239  0.20385400  1
  Se  Se226  1  0.24762421  0.42321579  0.69062261  1
  Se  Se227  1  0.25121065  0.74594605  0.20174387  1
  Se  Se228  1  0.23831821  0.76311796  0.68876408  1
  Se  Se229  1  0.57704581  0.09380965  0.18222577  1
  Se  Se230  1  0.57555793  0.09170565  0.69500521  1
  Se  Se231  1  0.58157565  0.41793959  0.19579286  1
  Se  Se232  1  0.58471729  0.41122651  0.69858297  1
  Se  Se233  1  0.57449222  0.75628078  0.19244515  1
  Se  Se234  1  0.57622403  0.75782411  0.68927334  1
  Se  Se235  1  0.91466989  0.07962591  0.19093984  1
  Se  Se236  1  0.91634676  0.08205547  0.69898744  1
  Se  Se237  1  0.91542013  0.41057082  0.19585165  1
  Se  Se238  1  0.91876400  0.40951871  0.69838283  1
  Se  Se239  1  0.91473932  0.75312568  0.19066487  1
  Se  Se240  1  0.91614080  0.74818122  0.70073394  1
  Se  Se241  1  0.06213759  0.26299450  0.19617999  1
  Se  Se242  1  0.09009817  0.25102513  0.70010975  1
  Se  Se243  1  0.08646743  0.57174315  0.18538022  1
  Se  Se244  1  0.07831456  0.59051293  0.70142855  1
  Se  Se245  1  0.08551656  0.91517436  0.19599309  1
  Se  Se246  1  0.07522791  0.92442876  0.70061328  1
  Se  Se247  1  0.41378983  0.25360239  0.19114381  1
  Se  Se248  1  0.42356452  0.24306798  0.68951885  1
  Se  Se249  1  0.41243187  0.58517461  0.19924739  1
  Se  Se250  1  0.42108915  0.57824368  0.69217905  1
  Se  Se251  1  0.41714033  0.92232013  0.19843100  1
  Se  Se252  1  0.41370083  0.92482493  0.69441946  1
  Se  Se253  1  0.74494211  0.24989225  0.19288398  1
  Se  Se254  1  0.75199442  0.24621512  0.69898004  1
  Se  Se255  1  0.75961425  0.58070212  0.18380076  1
  Se  Se256  1  0.75987092  0.56950957  0.69046247  1
  Se  Se257  1  0.76357822  0.91718631  0.18578175  1
  Se  Se258  1  0.75133597  0.91142288  0.69097854  1
