# generated using pymatgen
data_In86Cu29Se144
_symmetry_space_group_name_H-M   'P 1'
_cell_length_a   17.57460326
_cell_length_b   17.57804713
_cell_length_c   23.43407212
_cell_angle_alpha   89.99488774
_cell_angle_beta   90.00326577
_cell_angle_gamma   89.99809797
_symmetry_Int_Tables_number   1
_chemical_formula_structural   In86Cu29Se144
_chemical_formula_sum   'In86 Cu29 Se144'
_cell_volume   7239.42234608
_cell_formula_units_Z   1
loop_
 _symmetry_equiv_pos_site_id
 _symmetry_equiv_pos_as_xyz
  1  'x, y, z'
loop_
 _atom_site_type_symbol
 _atom_site_label
 _atom_site_symmetry_multiplicity
 _atom_site_fract_x
 _atom_site_fract_y
 _atom_site_fract_z
 _atom_site_occupancy
  In  In0  1  -0.01738272  0.18692087  0.13852821  1
  In  In1  1  -0.00004698  0.15436182  0.62019438  1
  In  In2  1  0.00511130  0.49808297  0.12731277  1
  In  In3  1  0.00759633  0.49001638  0.62005647  1
  In  In4  1  -0.00112471  0.83390420  0.13596859  1
  In  In5  1  -0.00197074  0.84593678  0.62223569  1
  In  In6  1  0.34180308  0.17130941  0.12846337  1
  In  In7  1  0.31877694  0.16696800  0.62124015  1
  In  In8  1  0.33390997  0.51561776  0.12447680  1
  In  In9  1  0.34102501  0.50361519  0.61414445  1
  In  In10  1  0.33823512  0.81038564  0.12385346  1
  In  In11  1  0.34416638  0.82291689  0.62857252  1
  In  In12  1  0.66597738  0.16754452  0.13125412  1
  In  In13  1  0.66560722  0.16347526  0.63240669  1
  In  In14  1  0.64442118  0.51747842  0.15087639  1
  In  In15  1  0.65086958  0.50675415  0.62605745  1
  In  In16  1  0.65777401  0.84298218  0.12636781  1
  In  In17  1  0.67270520  0.84097636  0.61445314  1
  In  In18  1  0.17230427  0.01951412  0.37803424  1
  In  In19  1  0.16413292  -0.00322787  0.86407699  1
  In  In20  1  0.17657424  0.33649222  0.36690294  1
  In  In21  1  0.17596899  0.33921375  0.88300554  1
  In  In22  1  0.16133409  0.65542593  0.36811326  1
  In  In23  1  0.17013514  0.65247139  0.87989032  1
  In  In24  1  0.49458042  -0.02004819  0.37915340  1
  In  In25  1  0.49456303  -0.00983886  0.86542652  1
  In  In26  1  0.50675943  0.34843185  0.36248485  1
  In  In27  1  0.50894713  0.33362893  0.87977361  1
  In  In28  1  0.50102234  0.66553676  0.36517459  1
  In  In29  1  0.48783860  0.68181769  0.89466080  1
  In  In30  1  0.83161926  -0.00459661  0.37352003  1
  In  In31  1  0.84372350  0.00579452  0.86589448  1
  In  In32  1  0.83685221  0.32737933  0.36607620  1
  In  In33  1  0.81139207  0.33247706  0.88233071  1
  In  In34  1  0.83730333  0.67776260  0.36750265  1
  In  In35  1  0.83417394  0.67365377  0.87761366  1
  In  In36  1  0.02689731  0.18202359  0.35452996  1
  In  In37  1  0.00221501  0.15378525  0.87791733  1
  In  In38  1  0.01110766  0.50617301  0.36752571  1
  In  In39  1  0.01246096  0.50881117  0.88661744  1
  In  In40  1  -0.00764824  0.82660204  0.36948193  1
  In  In41  1  -0.00773710  0.84155932  0.87317211  1
  In  In42  1  0.30909619  0.16657245  0.37405843  1
  In  In43  1  0.34167645  0.16268403  0.87524742  1
  In  In44  1  0.33949832  0.49918617  0.36473697  1
  In  In45  1  0.32726917  0.51351679  0.89077488  1
  In  In46  1  0.35746070  0.83599490  0.38055008  1
  In  In47  1  0.33788246  0.83462745  0.86632798  1
  In  In48  1  0.67361053  0.16743078  0.36903017  1
  In  In49  1  0.67182301  0.17414381  0.87513923  1
  In  In50  1  0.64985306  0.49873404  0.36032816  1
  In  In51  1  0.66049481  0.49086073  0.88027712  1
  In  In52  1  0.66393255  0.83518719  0.37252898  1
  In  In53  1  0.66017249  0.82750251  0.87307838  1
  In  In54  1  0.16246279  -0.00650327  0.13001037  1
  In  In55  1  0.15692432  0.00317304  0.62681279  1
  In  In56  1  0.14186424  0.35353520  0.13737536  1
  In  In57  1  0.17486891  0.33547697  0.60969421  1
  In  In58  1  0.17343324  0.65782491  0.13172464  1
  In  In59  1  0.18362353  0.67038924  0.62202831  1
  In  In60  1  0.51032157  0.00531611  0.12357161  1
  In  In61  1  0.51081920  -0.01037659  0.62960041  1
  In  In62  1  0.46931826  0.37145369  0.16546453  1
  In  In63  1  0.49642284  0.34662109  0.62391846  1
  In  In64  1  0.49659033  0.66639573  0.12374568  1
  In  In65  1  0.49213714  0.65574607  0.61662360  1
  In  In66  1  0.82462229  0.01172165  0.12712708  1
  In  In67  1  0.83718821  -0.01025033  0.63177724  1
  In  In68  1  0.83769731  0.32885525  0.12796770  1
  In  In69  1  0.83217803  0.32096353  0.62409124  1
  In  In70  1  0.83563585  0.65897166  0.13438266  1
  In  In71  1  0.81831127  0.67315859  0.62054886  1
  In  In72  1  0.33403901  -0.00323711  0.25772374  1
  In  In73  1  0.33639554  0.32956849  0.75149867  1
  In  In74  1  0.83168887  0.83050343  -0.00665305  1
  In  In75  1  -0.00166592  0.32707871  0.75339974  1
  In  In76  1  0.50752934  0.17487722  0.00381114  1
  In  In77  1  0.66277890  0.66855946  0.75522639  1
  In  In78  1  0.83572687  0.48876383  0.01015584  1
  In  In79  1  0.16877012  0.82721762  0.00284364  1
  In  In80  1  0.82906149  0.50826807  0.49081575  1
  In  In81  1  0.16034070  0.17315491  0.00636087  1
  In  In82  1  0.83892329  0.15988202  0.49879957  1
  In  In83  1  0.17001861  0.83312471  0.50026164  1
  In  In84  1  0.00441798  0.67256607  0.75313053  1
  In  In85  1  0.49482481  0.16908136  0.49763800  1
  Cu  Cu86  1  -0.00964778  0.00497725  0.00097743  1
  Cu  Cu87  1  0.49736970  0.50124819  0.74956764  1
  Cu  Cu88  1  0.66149294  0.33488632  0.01320970  1
  Cu  Cu89  1  0.33381150  -0.00700470  -0.00853696  1
  Cu  Cu90  1  0.33175446  0.34572862  0.01192161  1
  Cu  Cu91  1  0.50139039  0.15927035  0.75209963  1
  Cu  Cu92  1  0.00124053  0.00466316  0.49720910  1
  Cu  Cu93  1  0.82432307  0.83525776  0.24846346  1
  Cu  Cu94  1  0.65538045  0.67278987  0.49344026  1
  Cu  Cu95  1  0.66668063  0.66019882  0.00751235  1
  Cu  Cu96  1  0.16843975  0.50021742  0.24808509  1
  Cu  Cu97  1  0.50394976  0.82772239  0.74856940  1
  Cu  Cu98  1  0.82876147  0.49288164  0.75936234  1
  Cu  Cu99  1  0.66281287  0.34350817  0.49707039  1
  Cu  Cu100  1  0.83980736  0.15772287  0.24971550  1
  Cu  Cu101  1  0.16738526  0.82800281  0.25366007  1
  Cu  Cu102  1  0.01573129  0.33637912  0.48922219  1
  Cu  Cu103  1  0.50424802  0.16567797  0.25340695  1
  Cu  Cu104  1  0.66322228  -0.00843167  0.49838341  1
  Cu  Cu105  1  0.16006123  0.16146100  0.74575132  1
  Cu  Cu106  1  0.50240225  0.83159790  0.24876152  1
  Cu  Cu107  1  0.66457634  0.00211923  0.00210725  1
  Cu  Cu108  1  0.17596417  0.50343837  0.75192193  1
  Cu  Cu109  1  0.17396739  0.83407796  0.74414752  1
  Cu  Cu110  1  0.33387428  0.65832322  0.49337503  1
  Cu  Cu111  1  -0.00287688  0.66667795  0.49152293  1
  Cu  Cu112  1  0.82492509  0.16550308  0.74918273  1
  Cu  Cu113  1  0.33520317  0.33855683  0.49054809  1
  Cu  Cu114  1  0.83461891  0.49769816  0.25219076  1
  Se  Se115  1  0.07440224  0.07692406  0.06313609  1
  Se  Se116  1  0.08867941  0.08583461  0.54857435  1
  Se  Se117  1  0.07228809  0.41239978  0.05250777  1
  Se  Se118  1  0.09169972  0.42339542  0.54524067  1
  Se  Se119  1  0.07783425  0.74575173  0.06598770  1
  Se  Se120  1  0.07542293  0.74220037  0.55918163  1
  Se  Se121  1  0.40908259  0.07746260  0.05310705  1
  Se  Se122  1  0.41776997  0.08057492  0.56576334  1
  Se  Se123  1  0.42173996  0.41885546  0.06676967  1
  Se  Se124  1  0.42112855  0.41776697  0.54585530  1
  Se  Se125  1  0.42375288  0.74938631  0.04895709  1
  Se  Se126  1  0.41265996  0.74405221  0.54947962  1
  Se  Se127  1  0.74321771  0.08883056  0.05472338  1
  Se  Se128  1  0.74256098  0.07599543  0.55782719  1
  Se  Se129  1  0.73643689  0.41932301  0.07383503  1
  Se  Se130  1  0.74788120  0.41667725  0.55975695  1
  Se  Se131  1  0.74892825  0.74438913  0.06270181  1
  Se  Se132  1  0.74674462  0.75017990  0.54450223  1
  Se  Se133  1  0.25276437  0.25914262  0.06642431  1
  Se  Se134  1  0.25520836  0.25014599  0.54275981  1
  Se  Se135  1  0.25435159  0.59557994  0.05291116  1
  Se  Se136  1  0.24760141  0.58036549  0.54901469  1
  Se  Se137  1  0.25986597  0.92070303  0.06089500  1
  Se  Se138  1  0.25425914  0.91673326  0.56650962  1
  Se  Se139  1  0.57538771  0.26378622  0.07531657  1
  Se  Se140  1  0.59043220  0.25717783  0.55879230  1
  Se  Se141  1  0.58475373  0.57660002  0.06010831  1
  Se  Se142  1  0.58167622  0.58064749  0.54675605  1
  Se  Se143  1  0.57854860  0.91769944  0.05008634  1
  Se  Se144  1  0.57491667  0.91039259  0.54850855  1
  Se  Se145  1  0.91569526  0.25031819  0.05448858  1
  Se  Se146  1  0.93249488  0.26039358  0.55165122  1
  Se  Se147  1  0.92233613  0.59174221  0.05785894  1
  Se  Se148  1  0.92080540  0.58917809  0.55956411  1
  Se  Se149  1  0.91644409  0.91786076  0.05990045  1
  Se  Se150  1  0.91561776  0.92353728  0.55064200  1
  Se  Se151  1  0.09536393  0.24916521  0.43797158  1
  Se  Se152  1  0.07322344  0.25897800  0.94037600  1
  Se  Se153  1  0.08397966  0.58196283  0.44604671  1
  Se  Se154  1  0.09155980  0.58528844  0.95718877  1
  Se  Se155  1  0.07878939  0.91901893  0.43802550  1
  Se  Se156  1  0.07831179  0.92622584  0.94476504  1
  Se  Se157  1  0.41527158  0.25812301  0.42993372  1
  Se  Se158  1  0.40436832  0.26184559  0.94738302  1
  Se  Se159  1  0.41996733  0.58192042  0.43643577  1
  Se  Se160  1  0.44104120  0.56334998  0.94805154  1
  Se  Se161  1  0.40761324  0.92715195  0.45791533  1
  Se  Se162  1  0.41898328  0.91171659  0.94061887  1
  Se  Se163  1  0.74653013  0.25874114  0.44530559  1
  Se  Se164  1  0.73977627  0.25005204  0.95681041  1
  Se  Se165  1  0.73597971  0.59299389  0.43105060  1
  Se  Se166  1  0.74846011  0.58550153  0.94439756  1
  Se  Se167  1  0.75024508  0.91409053  0.44365734  1
  Se  Se168  1  0.74330946  0.92575920  0.93741842  1
  Se  Se169  1  0.26927717  0.06965124  0.45115479  1
  Se  Se170  1  0.24846671  0.07863073  0.94108964  1
  Se  Se171  1  0.25268736  0.42291331  0.43726602  1
  Se  Se172  1  0.24627266  0.42334381  0.95547285  1
  Se  Se173  1  0.25423463  0.74309628  0.43567641  1
  Se  Se174  1  0.26056783  0.74544240  0.93993342  1
  Se  Se175  1  0.59031938  0.08031848  0.43994774  1
  Se  Se176  1  0.58219553  0.07825401  0.93814865  1
  Se  Se177  1  0.58101953  0.42289839  0.44154172  1
  Se  Se178  1  0.58068605  0.41531934  0.95502089  1
  Se  Se179  1  0.57328995  0.75431099  0.43785655  1
  Se  Se180  1  0.59290582  0.75150027  0.95291059  1
  Se  Se181  1  0.93031186  0.08625718  0.43081192  1
  Se  Se182  1  0.90770432  0.08620101  0.94664846  1
  Se  Se183  1  0.92180788  0.41234073  0.43775211  1
  Se  Se184  1  0.91908987  0.41001464  0.93719692  1
  Se  Se185  1  0.91195140  0.75285468  0.44598914  1
  Se  Se186  1  0.93487618  0.73956447  0.94548098  1
  Se  Se187  1  0.24692746  0.24603921  0.29593211  1
  Se  Se188  1  0.23864823  0.23991271  0.80911859  1
  Se  Se189  1  0.25298924  0.58493330  0.29916935  1
  Se  Se190  1  0.25827419  0.58366375  0.80705206  1
  Se  Se191  1  0.24515078  0.90576597  0.31848752  1
  Se  Se192  1  0.25491762  0.91956502  0.79932186  1
  Se  Se193  1  0.58898387  0.25123702  0.30397005  1
  Se  Se194  1  0.57853076  0.24757485  0.80659607  1
  Se  Se195  1  0.56955117  0.57922031  0.29001729  1
  Se  Se196  1  0.57308501  0.58025904  0.81481984  1
  Se  Se197  1  0.58131751  0.91969798  0.30204711  1
  Se  Se198  1  0.58708891  0.91215795  0.80072213  1
  Se  Se199  1  0.92175605  0.25084311  0.29629443  1
  Se  Se200  1  0.90386852  0.24352626  0.81355684  1
  Se  Se201  1  0.91702366  0.58400823  0.30508150  1
  Se  Se202  1  0.91354104  0.57475660  0.81189456  1
  Se  Se203  1  0.91244682  0.91399200  0.30242929  1
  Se  Se204  1  0.91837412  0.91569912  0.79856122  1
  Se  Se205  1  0.08047279  0.06596599  0.30070537  1
  Se  Se206  1  0.07563244  0.08048178  0.79969448  1
  Se  Se207  1  0.08389046  0.41493647  0.29995624  1
  Se  Se208  1  0.09183147  0.42332483  0.80855322  1
  Se  Se209  1  0.07940262  0.74458153  0.30352704  1
  Se  Se210  1  0.09780983  0.75939041  0.81353717  1
  Se  Se211  1  0.42381958  0.08911937  0.31747795  1
  Se  Se212  1  0.41092876  0.07987039  0.80133563  1
  Se  Se213  1  0.41435593  0.41383102  0.29139563  1
  Se  Se214  1  0.41900969  0.42163870  0.81357223  1
  Se  Se215  1  0.41327167  0.75271306  0.30003020  1
  Se  Se216  1  0.42443019  0.74323367  0.80544418  1
  Se  Se217  1  0.75171766  0.07903384  0.30309168  1
  Se  Se218  1  0.74467009  0.08313585  0.80597940  1
  Se  Se219  1  0.75072106  0.41600733  0.30569571  1
  Se  Se220  1  0.73937934  0.41205941  0.80609511  1
  Se  Se221  1  0.74262736  0.75039269  0.30172470  1
  Se  Se222  1  0.76347006  0.76045062  0.80375378  1
  Se  Se223  1  0.24975629  0.08427533  0.19215872  1
  Se  Se224  1  0.24793679  0.08183844  0.69430366  1
  Se  Se225  1  0.25164947  0.42262350  0.19029261  1
  Se  Se226  1  0.24783790  0.41895794  0.68906307  1
  Se  Se227  1  0.25233657  0.74729265  0.19997812  1
  Se  Se228  1  0.25726196  0.74404131  0.69916443  1
  Se  Se229  1  0.58450783  0.08053267  0.19985514  1
  Se  Se230  1  0.58678294  0.07735573  0.69955072  1
  Se  Se231  1  0.60607675  0.39281534  0.20143310  1
  Se  Se232  1  0.58183146  0.41710702  0.69810459  1
  Se  Se233  1  0.58354581  0.75046070  0.19197792  1
  Se  Se234  1  0.57939474  0.74834295  0.68365682  1
  Se  Se235  1  0.92279610  0.07439234  0.19584835  1
  Se  Se236  1  0.91265621  0.08881109  0.69339568  1
  Se  Se237  1  0.91718604  0.41810388  0.19500305  1
  Se  Se238  1  0.90958163  0.42204443  0.69272036  1
  Se  Se239  1  0.91277133  0.75029045  0.20053011  1
  Se  Se240  1  0.91199849  0.75230888  0.68783591  1
  Se  Se241  1  0.09786705  0.23670912  0.19499928  1
  Se  Se242  1  0.09066109  0.24988018  0.68492093  1
  Se  Se243  1  0.08007390  0.58457538  0.19868704  1
  Se  Se244  1  0.09066695  0.57788128  0.69082180  1
  Se  Se245  1  0.08511738  0.91462368  0.20306827  1
  Se  Se246  1  0.08228028  0.91454852  0.69696561  1
  Se  Se247  1  0.41223356  0.24569857  0.20719099  1
  Se  Se248  1  0.42455056  0.24032532  0.68843704  1
  Se  Se249  1  0.43022156  0.57611309  0.19688455  1
  Se  Se250  1  0.41377605  0.57971289  0.69260335  1
  Se  Se251  1  0.42022508  0.91358214  0.18812479  1
  Se  Se252  1  0.41961244  0.91278746  0.69703215  1
  Se  Se253  1  0.75751957  0.24422779  0.19778320  1
  Se  Se254  1  0.74600643  0.25435784  0.69736042  1
  Se  Se255  1  0.75003889  0.58823641  0.20727975  1
  Se  Se256  1  0.75538157  0.57530534  0.69505791  1
  Se  Se257  1  0.74581247  0.92173718  0.19325445  1
  Se  Se258  1  0.74142064  0.91472114  0.69292380  1
