# generated using pymatgen
data_In86Cu29Se144
_symmetry_space_group_name_H-M   'P 1'
_cell_length_a   17.58041171
_cell_length_b   17.58559663
_cell_length_c   23.44091289
_cell_angle_alpha   89.99287836
_cell_angle_beta   89.99761913
_cell_angle_gamma   89.99236002
_symmetry_Int_Tables_number   1
_chemical_formula_structural   In86Cu29Se144
_chemical_formula_sum   'In86 Cu29 Se144'
_cell_volume   7247.04006176
_cell_formula_units_Z   1
loop_
 _symmetry_equiv_pos_site_id
 _symmetry_equiv_pos_as_xyz
  1  'x, y, z'
loop_
 _atom_site_type_symbol
 _atom_site_label
 _atom_site_symmetry_multiplicity
 _atom_site_fract_x
 _atom_site_fract_y
 _atom_site_fract_z
 _atom_site_occupancy
  In  In0  1  0.01949665  0.15591550  0.13583941  1
  In  In1  1  0.01060326  0.15264535  0.62690670  1
  In  In2  1  0.00674394  0.49522665  0.12835727  1
  In  In3  1  0.01523914  0.50504207  0.61949013  1
  In  In4  1  0.01207602  0.83389725  0.13563859  1
  In  In5  1  0.03031104  0.81423078  0.64643747  1
  In  In6  1  0.31665718  0.16818834  0.12623543  1
  In  In7  1  0.34533521  0.18266680  0.60440968  1
  In  In8  1  0.33160112  0.51439724  0.13105738  1
  In  In9  1  0.33396741  0.50420556  0.62067078  1
  In  In10  1  0.33486206  0.82422648  0.13893916  1
  In  In11  1  0.32451303  0.82446922  0.62442487  1
  In  In12  1  0.67527794  0.17061280  0.12932214  1
  In  In13  1  0.65664805  0.18341416  0.62153321  1
  In  In14  1  0.66966513  0.50052963  0.13626901  1
  In  In15  1  0.65752285  0.50949958  0.62614035  1
  In  In16  1  0.64903642  0.82790592  0.12441889  1
  In  In17  1  0.65223545  0.82743839  0.62610625  1
  In  In18  1  0.17385475  -0.00619013  0.36990178  1
  In  In19  1  0.16814799  0.01063797  0.87551534  1
  In  In20  1  0.16863553  0.34478381  0.38991292  1
  In  In21  1  0.17352787  0.33031937  0.87673342  1
  In  In22  1  0.17175412  0.66761883  0.37310786  1
  In  In23  1  0.15484088  0.65443770  0.86592001  1
  In  In24  1  0.48694002  0.00800887  0.38150376  1
  In  In25  1  0.48355722  -0.00607918  0.87325635  1
  In  In26  1  0.50836187  0.32511928  0.39413343  1
  In  In27  1  0.49913786  0.33712659  0.85873581  1
  In  In28  1  0.49768516  0.66633042  0.38012081  1
  In  In29  1  0.49649538  0.67500141  0.86238061  1
  In  In30  1  0.84120671  -0.01227608  0.37053374  1
  In  In31  1  0.84301335  -0.00877308  0.87876081  1
  In  In32  1  0.83019203  0.33275351  0.37108618  1
  In  In33  1  0.82612187  0.34447858  0.87399252  1
  In  In34  1  0.84038215  0.67088947  0.36868835  1
  In  In35  1  0.83689701  0.67202766  0.86820648  1
  In  In36  1  0.00568792  0.17363857  0.36986399  1
  In  In37  1  0.01319688  0.16602978  0.87541563  1
  In  In38  1  0.01296073  0.51210249  0.36933618  1
  In  In39  1  0.01021116  0.51586049  0.87481770  1
  In  In40  1  0.02956867  0.84680151  0.34781117  1
  In  In41  1  0.00752175  0.83069308  0.86613423  1
  In  In42  1  0.34110114  0.16202799  0.38378881  1
  In  In43  1  0.32100819  0.16269574  0.87034030  1
  In  In44  1  0.32650948  0.50474634  0.38726191  1
  In  In45  1  0.32894041  0.49787947  0.86809595  1
  In  In46  1  0.32987213  0.83532228  0.37288855  1
  In  In47  1  0.33912131  0.83011702  0.87200626  1
  In  In48  1  0.65660395  0.17249890  0.38012071  1
  In  In49  1  0.65086847  0.17148387  0.86831740  1
  In  In50  1  0.65490974  0.49307076  0.37625899  1
  In  In51  1  0.66276593  0.50121906  0.86436893  1
  In  In52  1  0.66461206  0.82047409  0.37600418  1
  In  In53  1  0.65847457  0.81704390  0.87017251  1
  In  In54  1  0.15882718  0.00534269  0.13513613  1
  In  In55  1  0.16384640  -0.00478812  0.61919008  1
  In  In56  1  0.16122535  0.32295152  0.12144174  1
  In  In57  1  0.18784631  0.35073086  0.60201875  1
  In  In58  1  0.17529935  0.66729269  0.13283411  1
  In  In59  1  0.17308461  0.66962204  0.62641610  1
  In  In60  1  0.50152124  -0.01783304  0.12665839  1
  In  In61  1  0.48860608  -0.00924871  0.61557147  1
  In  In62  1  0.50146339  0.34453340  0.13210284  1
  In  In63  1  0.49152622  0.34268005  0.61373674  1
  In  In64  1  0.48811756  0.67383187  0.13784977  1
  In  In65  1  0.49861337  0.67003686  0.62453681  1
  In  In66  1  0.84447309  0.00654540  0.12798614  1
  In  In67  1  0.85122612  0.00190814  0.62464709  1
  In  In68  1  0.83340170  0.33719379  0.13391944  1
  In  In69  1  0.82420626  0.32967598  0.62595478  1
  In  In70  1  0.83857122  0.65926599  0.13010521  1
  In  In71  1  0.83507408  0.66681579  0.63206331  1
  In  In72  1  0.84384718  0.82886682  0.00739400  1
  In  In73  1  0.83379740  0.16498364  0.50063594  1
  In  In74  1  0.83162273  0.50301716  0.50484532  1
  In  In75  1  0.66867201  0.00430541  0.24970624  1
  In  In76  1  0.33709243  0.33657099  0.26480237  1
  In  In77  1  0.49176277  0.16281599  -0.00739901  1
  In  In78  1  0.66833563  -0.00172831  0.75190258  1
  In  In79  1  0.84016437  0.83102209  0.49289825  1
  In  In80  1  0.32582275  -0.00606516  0.74364210  1
  In  In81  1  0.83855300  0.16787267  0.00457785  1
  In  In82  1  0.00024260  0.33209734  0.74471248  1
  In  In83  1  0.83928314  0.50098902  -0.00229603  1
  In  In84  1  0.16746693  0.83435570  0.00227823  1
  In  In85  1  0.49223915  0.50360718  0.00352339  1
  Cu  Cu86  1  0.49346753  0.50213200  0.74115398  1
  Cu  Cu87  1  0.33230629  0.67195402  0.00662492  1
  Cu  Cu88  1  0.17146292  0.17091380  0.74582460  1
  Cu  Cu89  1  0.01591327  0.67517752  0.49435782  1
  Cu  Cu90  1  0.83622331  0.17520340  0.25060046  1
  Cu  Cu91  1  0.32132437  0.33687185  -0.00567355  1
  Cu  Cu92  1  0.65677361  0.66548734  -0.00228253  1
  Cu  Cu93  1  0.65936983  0.66543894  0.50084451  1
  Cu  Cu94  1  0.49752754  0.17341823  0.73641925  1
  Cu  Cu95  1  0.16963140  0.49540064  0.25447597  1
  Cu  Cu96  1  0.00885535  -0.01119178  0.49644621  1
  Cu  Cu97  1  0.83668748  0.83175155  0.24769272  1
  Cu  Cu98  1  0.49666865  0.16973757  0.25984541  1
  Cu  Cu99  1  0.17208058  0.50227045  0.74243843  1
  Cu  Cu100  1  0.83568604  0.83389167  0.75178559  1
  Cu  Cu101  1  0.01091417  0.33048446  0.00454449  1
  Cu  Cu102  1  0.65875366  0.33415335  0.00038898  1
  Cu  Cu103  1  0.33197786  0.67071385  0.50120005  1
  Cu  Cu104  1  -0.00124921  0.33452735  0.49658162  1
  Cu  Cu105  1  0.83228616  0.50092473  0.25342772  1
  Cu  Cu106  1  0.32878176  -0.00655238  0.49733619  1
  Cu  Cu107  1  0.83278012  0.16747540  0.74583921  1
  Cu  Cu108  1  0.66417909  -0.01559429  0.00094539  1
  Cu  Cu109  1  0.32920092  -0.00324250  0.00015542  1
  Cu  Cu110  1  0.49880000  0.83103414  0.25527418  1
  Cu  Cu111  1  0.82707291  0.49891142  0.74983361  1
  Cu  Cu112  1  0.50778816  0.50380031  0.25752189  1
  Cu  Cu113  1  0.16507240  0.16564893  0.25286699  1
  Cu  Cu114  1  0.65816564  0.00360957  0.50207538  1
  Se  Se115  1  0.09146830  0.08564568  0.05748308  1
  Se  Se116  1  0.08416843  0.08093143  0.54788972  1
  Se  Se117  1  0.08998125  0.41953115  0.05563595  1
  Se  Se118  1  0.08327265  0.42303929  0.54429238  1
  Se  Se119  1  0.07965292  0.74285583  0.06149057  1
  Se  Se120  1  0.09098927  0.75622547  0.55605184  1
  Se  Se121  1  0.41126195  0.07657525  0.06180410  1
  Se  Se122  1  0.41613860  0.07861089  0.54601071  1
  Se  Se123  1  0.40219028  0.40805275  0.06029068  1
  Se  Se124  1  0.39099279  0.40719942  0.54649401  1
  Se  Se125  1  0.41574020  0.75269600  0.06119006  1
  Se  Se126  1  0.41618576  0.75333095  0.55511062  1
  Se  Se127  1  0.74058392  0.07102950  0.05727691  1
  Se  Se128  1  0.74390078  0.07556435  0.56361977  1
  Se  Se129  1  0.74261765  0.41268288  0.05746434  1
  Se  Se130  1  0.73856206  0.41134260  0.55799622  1
  Se  Se131  1  0.74198002  0.73952015  0.05934564  1
  Se  Se132  1  0.74858482  0.74435854  0.55612832  1
  Se  Se133  1  0.24730866  0.24770146  0.04951625  1
  Se  Se134  1  0.22128356  0.22372818  0.55409712  1
  Se  Se135  1  0.24979288  0.58555297  0.05687975  1
  Se  Se136  1  0.24732904  0.58641250  0.55317025  1
  Se  Se137  1  0.25600395  0.91957960  0.06686618  1
  Se  Se138  1  0.24819407  0.91143506  0.55339587  1
  Se  Se139  1  0.58144849  0.25136675  0.05908799  1
  Se  Se140  1  0.57324429  0.25115519  0.54963810  1
  Se  Se141  1  0.58524204  0.58762469  0.06527819  1
  Se  Se142  1  0.57524024  0.58251781  0.55219314  1
  Se  Se143  1  0.57402691  0.90595284  0.04905967  1
  Se  Se144  1  0.58221174  0.91157509  0.55244440  1
  Se  Se145  1  0.92619912  0.25673635  0.06604001  1
  Se  Se146  1  0.92572880  0.25535250  0.56151557  1
  Se  Se147  1  0.92818669  0.58975864  0.05627922  1
  Se  Se148  1  0.92818036  0.60057287  0.55424941  1
  Se  Se149  1  0.93295691  0.92501085  0.06071898  1
  Se  Se150  1  0.93052979  0.91093377  0.55888847  1
  Se  Se151  1  0.08169960  0.24882925  0.44595871  1
  Se  Se152  1  0.08943403  0.24861565  0.94602987  1
  Se  Se153  1  0.09329944  0.58116191  0.44625019  1
  Se  Se154  1  0.09086916  0.58371923  0.94972833  1
  Se  Se155  1  0.08835201  0.90811157  0.43805182  1
  Se  Se156  1  0.07812505  0.92269716  0.94022519  1
  Se  Se157  1  0.41159886  0.24958250  0.45388038  1
  Se  Se158  1  0.40904481  0.26222661  0.93528568  1
  Se  Se159  1  0.41709374  0.58522134  0.45143384  1
  Se  Se160  1  0.40830619  0.59248673  0.94045243  1
  Se  Se161  1  0.41597399  0.91122761  0.44558272  1
  Se  Se162  1  0.41190298  0.91309368  0.94765575  1
  Se  Se163  1  0.74365179  0.26033279  0.44765028  1
  Se  Se164  1  0.74017242  0.25281684  0.94229019  1
  Se  Se165  1  0.74814131  0.59381255  0.44058228  1
  Se  Se166  1  0.74098301  0.58819973  0.93957911  1
  Se  Se167  1  0.74072304  0.92572285  0.44178811  1
  Se  Se168  1  0.74623630  0.90865684  0.94081639  1
  Se  Se169  1  0.24769814  0.07780897  0.44330664  1
  Se  Se170  1  0.25135642  0.08576445  0.94856495  1
  Se  Se171  1  0.27209241  0.40145278  0.45685349  1
  Se  Se172  1  0.24468772  0.42674928  0.94288581  1
  Se  Se173  1  0.24961173  0.75138932  0.44433878  1
  Se  Se174  1  0.25241958  0.74362449  0.93976502  1
  Se  Se175  1  0.57805626  0.08680304  0.44727955  1
  Se  Se176  1  0.58960105  0.06888276  0.93916518  1
  Se  Se177  1  0.58256563  0.42386376  0.45505910  1
  Se  Se178  1  0.58159281  0.41404481  0.93949216  1
  Se  Se179  1  0.57881198  0.75378435  0.44986462  1
  Se  Se180  1  0.57357420  0.74571253  0.94321565  1
  Se  Se181  1  0.92331474  0.07184853  0.44156419  1
  Se  Se182  1  0.92763843  0.07769051  0.94590526  1
  Se  Se183  1  0.91963699  0.41793742  0.43889698  1
  Se  Se184  1  0.93055189  0.40630969  0.94039803  1
  Se  Se185  1  0.93636060  0.75174000  0.43187227  1
  Se  Se186  1  0.92801811  0.74247494  0.94115076  1
  Se  Se187  1  0.24256638  0.24434376  0.31678315  1
  Se  Se188  1  0.25241643  0.25445863  0.80089834  1
  Se  Se189  1  0.25514877  0.57722480  0.30716857  1
  Se  Se190  1  0.25171900  0.58536203  0.79938107  1
  Se  Se191  1  0.24029699  0.90068895  0.29881310  1
  Se  Se192  1  0.23846293  0.91068190  0.80967098  1
  Se  Se193  1  0.57928494  0.25574342  0.30928028  1
  Se  Se194  1  0.58349784  0.25274920  0.79238491  1
  Se  Se195  1  0.58841816  0.59136172  0.30961591  1
  Se  Se196  1  0.57655389  0.58186613  0.79972445  1
  Se  Se197  1  0.58003246  0.91695319  0.31219534  1
  Se  Se198  1  0.57177321  0.91009611  0.80585821  1
  Se  Se199  1  0.92025247  0.25741616  0.30402683  1
  Se  Se200  1  0.91022390  0.24630688  0.81128702  1
  Se  Se201  1  0.91986516  0.58379614  0.30201827  1
  Se  Se202  1  0.91315300  0.57708286  0.80521322  1
  Se  Se203  1  0.92074194  0.92039956  0.29404539  1
  Se  Se204  1  0.91918800  0.91798776  0.80352281  1
  Se  Se205  1  0.08315030  0.08078081  0.30643072  1
  Se  Se206  1  0.08889620  0.08831777  0.80056422  1
  Se  Se207  1  0.08980519  0.41179100  0.31030547  1
  Se  Se208  1  0.09005369  0.42242605  0.80470817  1
  Se  Se209  1  0.06907498  0.72084169  0.30289536  1
  Se  Se210  1  0.08437936  0.74666773  0.79813295  1
  Se  Se211  1  0.41096415  0.08295178  0.30467009  1
  Se  Se212  1  0.42172861  0.09229728  0.80045427  1
  Se  Se213  1  0.42969191  0.42478587  0.32128121  1
  Se  Se214  1  0.41102464  0.41873435  0.79650441  1
  Se  Se215  1  0.41644413  0.74712814  0.30855460  1
  Se  Se216  1  0.40629933  0.74907837  0.79608115  1
  Se  Se217  1  0.75810090  0.09365074  0.31320382  1
  Se  Se218  1  0.75849841  0.08997343  0.81376092  1
  Se  Se219  1  0.74698779  0.42010711  0.30712041  1
  Se  Se220  1  0.74333479  0.41187317  0.79865837  1
  Se  Se221  1  0.75242976  0.75335049  0.30320035  1
  Se  Se222  1  0.74880374  0.74850830  0.80000027  1
  Se  Se223  1  0.25155108  0.08386161  0.20131793  1
  Se  Se224  1  0.25050587  0.09254570  0.68242688  1
  Se  Se225  1  0.24968810  0.41496869  0.19308820  1
  Se  Se226  1  0.25105625  0.41566675  0.68898060  1
  Se  Se227  1  0.24464232  0.75311437  0.20645426  1
  Se  Se228  1  0.23515063  0.76364175  0.69877189  1
  Se  Se229  1  0.57240083  0.09307556  0.19115385  1
  Se  Se230  1  0.57703474  0.08185181  0.68594741  1
  Se  Se231  1  0.58641856  0.41605315  0.20324643  1
  Se  Se232  1  0.57612066  0.41713430  0.68838536  1
  Se  Se233  1  0.58450753  0.74815564  0.20295407  1
  Se  Se234  1  0.59100099  0.73713612  0.69692354  1
  Se  Se235  1  0.91830184  0.08779232  0.20021351  1
  Se  Se236  1  0.92126119  0.08458195  0.69981051  1
  Se  Se237  1  0.91792303  0.42034390  0.19858508  1
  Se  Se238  1  0.91086055  0.42721118  0.68576819  1
  Se  Se239  1  0.91914405  0.74849462  0.19434390  1
  Se  Se240  1  0.91890476  0.74748004  0.70045114  1
  Se  Se241  1  0.08479352  0.25602990  0.20189065  1
  Se  Se242  1  0.09552200  0.25344600  0.68309524  1
  Se  Se243  1  0.09004892  0.57787765  0.19649804  1
  Se  Se244  1  0.08381746  0.58595315  0.69456158  1
  Se  Se245  1  0.09086412  0.91423515  0.20527810  1
  Se  Se246  1  0.07194678  0.93832359  0.69455185  1
  Se  Se247  1  0.41848848  0.24661545  0.19307708  1
  Se  Se248  1  0.41172095  0.25606451  0.68612527  1
  Se  Se249  1  0.41696036  0.58083168  0.20572923  1
  Se  Se250  1  0.41032622  0.58871585  0.69184259  1
  Se  Se251  1  0.41781118  0.91727306  0.20208850  1
  Se  Se252  1  0.42415996  0.90443793  0.69291021  1
  Se  Se253  1  0.74639384  0.25558648  0.20082557  1
  Se  Se254  1  0.74573006  0.24800502  0.69662819  1
  Se  Se255  1  0.75031755  0.58774792  0.20093519  1
  Se  Se256  1  0.74699812  0.58405654  0.69542749  1
  Se  Se257  1  0.75354849  0.91024777  0.18647164  1
  Se  Se258  1  0.75876181  0.91238598  0.68748516  1
