# generated using pymatgen
data_In86Cu29Se144
_symmetry_space_group_name_H-M   'P 1'
_cell_length_a   17.57177419
_cell_length_b   17.57095664
_cell_length_c   23.42793867
_cell_angle_alpha   90.02220970
_cell_angle_beta   90.01128237
_cell_angle_gamma   90.00761420
_symmetry_Int_Tables_number   1
_chemical_formula_structural   In86Cu29Se144
_chemical_formula_sum   'In86 Cu29 Se144'
_cell_volume   7233.44284595
_cell_formula_units_Z   1
loop_
 _symmetry_equiv_pos_site_id
 _symmetry_equiv_pos_as_xyz
  1  'x, y, z'
loop_
 _atom_site_type_symbol
 _atom_site_label
 _atom_site_symmetry_multiplicity
 _atom_site_fract_x
 _atom_site_fract_y
 _atom_site_fract_z
 _atom_site_occupancy
  In  In0  1  0.01494511  0.18874969  0.08888098  1
  In  In1  1  -0.00379524  0.16937212  0.64010161  1
  In  In2  1  0.02209267  0.51975090  0.09609141  1
  In  In3  1  -0.00948415  0.50629585  0.63398848  1
  In  In4  1  -0.00821522  0.83512294  0.12758696  1
  In  In5  1  -0.00036795  0.83229116  0.62436048  1
  In  In6  1  0.34950235  0.18182518  0.11087394  1
  In  In7  1  0.33613799  0.15293716  0.63091952  1
  In  In8  1  0.33061214  0.49990242  0.12393111  1
  In  In9  1  0.35556461  0.49644624  0.63794957  1
  In  In10  1  0.32571475  0.82816008  0.12912039  1
  In  In11  1  0.33142172  0.83268969  0.62950888  1
  In  In12  1  0.67739926  0.17400295  0.10606086  1
  In  In13  1  0.65567113  0.17480384  0.63582849  1
  In  In14  1  0.66115523  0.50716044  0.11478830  1
  In  In15  1  0.66004072  0.49557480  0.62640195  1
  In  In16  1  0.67145525  0.82979875  0.12367362  1
  In  In17  1  0.67623921  0.83833788  0.61954482  1
  In  In18  1  0.15541546  -0.00384056  0.37799670  1
  In  In19  1  0.17909370  0.01156612  0.86782414  1
  In  In20  1  0.17289785  0.31824116  0.37091052  1
  In  In21  1  0.15036683  0.34527166  0.88569021  1
  In  In22  1  0.17363967  0.66701213  0.37134484  1
  In  In23  1  0.16889361  0.63600094  0.87405778  1
  In  In24  1  0.50108528  -0.00457274  0.38893698  1
  In  In25  1  0.51193267  0.01199404  0.84940106  1
  In  In26  1  0.49387926  0.34487190  0.38214331  1
  In  In27  1  0.51021315  0.33003573  0.87624899  1
  In  In28  1  0.49077408  0.67123040  0.38737021  1
  In  In29  1  0.48732046  0.66371547  0.86793187  1
  In  In30  1  0.82122771  0.00082850  0.37288416  1
  In  In31  1  0.82800902  -0.00827349  0.87338086  1
  In  In32  1  0.84377987  0.34481863  0.37436125  1
  In  In33  1  0.83666439  0.33424346  0.87618363  1
  In  In34  1  0.83759127  0.66332842  0.37821960  1
  In  In35  1  0.84412043  0.66623005  0.88985290  1
  In  In36  1  -0.00043498  0.16848527  0.37371405  1
  In  In37  1  -0.00036850  0.16799414  0.87761643  1
  In  In38  1  -0.02051677  0.50308149  0.37720938  1
  In  In39  1  0.01201583  0.48831257  0.89609642  1
  In  In40  1  0.01587053  0.82493741  0.38484780  1
  In  In41  1  -0.01761480  0.82712254  0.87713087  1
  In  In42  1  0.33727296  0.17686645  0.37301642  1
  In  In43  1  0.34418863  0.16443813  0.88043267  1
  In  In44  1  0.33422143  0.50340373  0.36872466  1
  In  In45  1  0.32716724  0.50643157  0.87633939  1
  In  In46  1  0.34235604  0.82041615  0.38902008  1
  In  In47  1  0.34123172  0.82870830  0.85671227  1
  In  In48  1  0.66522561  0.15207060  0.37291371  1
  In  In49  1  0.66179544  0.15928435  0.87385084  1
  In  In50  1  0.66151921  0.51346019  0.39266514  1
  In  In51  1  0.67515703  0.49260136  0.87710618  1
  In  In52  1  0.67156478  0.82040472  0.40473856  1
  In  In53  1  0.66854603  0.85956930  0.86716254  1
  In  In54  1  0.15738759  -0.00286111  0.11857655  1
  In  In55  1  0.17238640  -0.01437842  0.63854354  1
  In  In56  1  0.17767077  0.34530973  0.11161679  1
  In  In57  1  0.17092364  0.32419039  0.63307510  1
  In  In58  1  0.17722949  0.65752809  0.13368308  1
  In  In59  1  0.15835778  0.67663857  0.62742232  1
  In  In60  1  0.49614692  0.00378832  0.11911299  1
  In  In61  1  0.49588702  -0.00235220  0.62752291  1
  In  In62  1  0.49681266  0.33181179  0.11839545  1
  In  In63  1  0.51918136  0.34791661  0.61996164  1
  In  In64  1  0.49537258  0.65642081  0.12471248  1
  In  In65  1  0.49687289  0.65946020  0.62315544  1
  In  In66  1  0.83883810  0.00937783  0.10533543  1
  In  In67  1  0.83883864  -0.00586238  0.63616925  1
  In  In68  1  0.85921742  0.35328320  0.09549772  1
  In  In69  1  0.82221353  0.34060270  0.64088020  1
  In  In70  1  0.85030298  0.67879207  0.10911561  1
  In  In71  1  0.82042964  0.66228626  0.61111433  1
  In  In72  1  0.66387612  0.66859320  0.74765336  1
  In  In73  1  -0.00425328  0.00258845  0.24588141  1
  In  In74  1  0.16994813  0.50135888  0.50306586  1
  In  In75  1  0.16791500  0.83069407  -0.00524779  1
  In  In76  1  0.33218728  -0.00197973  0.24940754  1
  In  In77  1  0.50566296  0.83858851  -0.00808835  1
  In  In78  1  0.66641291  0.66319810  0.25861595  1
  In  In79  1  0.00146863  0.66782638  0.75311945  1
  In  In80  1  0.00998033  0.34786397  0.23511583  1
  In  In81  1  0.83114780  0.16852716  0.49710390  1
  In  In82  1  0.33225579  0.33207523  0.75724534  1
  In  In83  1  0.16932058  0.15732370  0.50009840  1
  In  In84  1  0.66931392  0.33278691  0.24657302  1
  In  In85  1  0.65988991  -0.00649607  0.24725713  1
  Cu  Cu86  1  0.83799985  0.49363032  0.75645736  1
  Cu  Cu87  1  0.49773724  0.17340560  0.24398003  1
  Cu  Cu88  1  0.16079581  0.83472116  0.75314163  1
  Cu  Cu89  1  0.00134634  -0.00781024  0.51195427  1
  Cu  Cu90  1  0.32892507  0.66342493  0.50455622  1
  Cu  Cu91  1  0.66496277  0.00843026  0.50706613  1
  Cu  Cu92  1  0.34073598  0.00387205  -0.00842934  1
  Cu  Cu93  1  0.18013873  0.17026184  0.23872303  1
  Cu  Cu94  1  0.33585270  0.34003723  -0.00583678  1
  Cu  Cu95  1  0.34368672  0.33261166  0.50150754  1
  Cu  Cu96  1  -0.00736539  0.34045021  0.50812927  1
  Cu  Cu97  1  0.49560210  0.16814133  0.74931619  1
  Cu  Cu98  1  0.82690749  0.50877562  0.24916194  1
  Cu  Cu99  1  0.83978153  0.82904224  0.24841382  1
  Cu  Cu100  1  -0.00622925  0.66907191  0.50230988  1
  Cu  Cu101  1  0.48674426  0.49659760  0.25082853  1
  Cu  Cu102  1  0.17164977  0.81894181  0.25822342  1
  Cu  Cu103  1  0.66861161  0.33094269  0.50717306  1
  Cu  Cu104  1  0.33132488  0.66481151  -0.00267374  1
  Cu  Cu105  1  0.83121495  0.16289886  0.75938309  1
  Cu  Cu106  1  0.00110942  0.00068623  -0.00815960  1
  Cu  Cu107  1  0.84292555  0.17625848  0.23088367  1
  Cu  Cu108  1  0.15450742  0.17397364  0.75814391  1
  Cu  Cu109  1  0.66322988  0.67017713  -0.00451653  1
  Cu  Cu110  1  0.82756830  0.82902999  0.75069455  1
  Cu  Cu111  1  0.65971976  0.32921681  -0.00857579  1
  Cu  Cu112  1  0.16116273  0.49537659  0.24427013  1
  Cu  Cu113  1  0.33484574  -0.00695906  0.50971724  1
  Cu  Cu114  1  0.49917256  0.82624391  0.26273567  1
  Se  Se115  1  0.09201544  0.07908033  0.04194527  1
  Se  Se116  1  0.07854639  0.08048511  0.56788398  1
  Se  Se117  1  0.06034162  0.39049809  0.05470812  1
  Se  Se118  1  0.08106472  0.41190460  0.56597343  1
  Se  Se119  1  0.08985519  0.75094840  0.06843596  1
  Se  Se120  1  0.08071240  0.75115065  0.55258918  1
  Se  Se121  1  0.42352315  0.08619022  0.04621323  1
  Se  Se122  1  0.41730428  0.08434495  0.55467220  1
  Se  Se123  1  0.41594008  0.42143174  0.05395308  1
  Se  Se124  1  0.41975755  0.41981636  0.55631028  1
  Se  Se125  1  0.41083073  0.75000467  0.05547466  1
  Se  Se126  1  0.41033900  0.74767817  0.55930508  1
  Se  Se127  1  0.74303159  0.07702889  0.04119262  1
  Se  Se128  1  0.74908588  0.08584346  0.56641196  1
  Se  Se129  1  0.73644233  0.41170341  0.05181880  1
  Se  Se130  1  0.75154912  0.41375039  0.56055154  1
  Se  Se131  1  0.74758145  0.75201987  0.05031457  1
  Se  Se132  1  0.75376134  0.75866239  0.54694789  1
  Se  Se133  1  0.25271026  0.25189417  0.04606613  1
  Se  Se134  1  0.25955896  0.25249974  0.55804603  1
  Se  Se135  1  0.24863060  0.58353995  0.05358178  1
  Se  Se136  1  0.25689580  0.58362055  0.56990994  1
  Se  Se137  1  0.26358367  0.92343148  0.05383469  1
  Se  Se138  1  0.24371275  0.91396654  0.55810180  1
  Se  Se139  1  0.57611074  0.24841802  0.04818349  1
  Se  Se140  1  0.58283089  0.24510229  0.55452155  1
  Se  Se141  1  0.57603385  0.58970025  0.04766589  1
  Se  Se142  1  0.59171216  0.58725436  0.55826563  1
  Se  Se143  1  0.59385661  0.92498519  0.05699497  1
  Se  Se144  1  0.58330079  0.92096568  0.55733732  1
  Se  Se145  1  0.88954725  0.22817152  0.04285253  1
  Se  Se146  1  0.91608297  0.25346590  0.56502494  1
  Se  Se147  1  0.89392813  0.56078984  0.05358595  1
  Se  Se148  1  0.91873763  0.57894684  0.55524634  1
  Se  Se149  1  0.92529928  0.91503746  0.04964452  1
  Se  Se150  1  0.90925805  0.91345987  0.55894698  1
  Se  Se151  1  0.07416557  0.25856353  0.44804836  1
  Se  Se152  1  0.07874888  0.24936246  0.94918232  1
  Se  Se153  1  0.07538935  0.58622212  0.44216701  1
  Se  Se154  1  0.07514146  0.59886269  0.95265886  1
  Se  Se155  1  0.08861845  0.91567211  0.45479507  1
  Se  Se156  1  0.08360634  0.92116156  0.93223523  1
  Se  Se157  1  0.42188742  0.24638395  0.44644172  1
  Se  Se158  1  0.42147935  0.25439558  0.94602280  1
  Se  Se159  1  0.40629215  0.57751883  0.44747577  1
  Se  Se160  1  0.41799283  0.58328361  0.94555208  1
  Se  Se161  1  0.42004203  0.91003922  0.45538999  1
  Se  Se162  1  0.41250210  0.92017129  0.93026062  1
  Se  Se163  1  0.74241156  0.25969133  0.43437876  1
  Se  Se164  1  0.74453646  0.24891849  0.93799641  1
  Se  Se165  1  0.76039314  0.58483873  0.45073638  1
  Se  Se166  1  0.74738400  0.58376638  0.94681183  1
  Se  Se167  1  0.75225310  0.92755108  0.45267197  1
  Se  Se168  1  0.76143228  0.89867019  0.94493460  1
  Se  Se169  1  0.26342113  0.07056468  0.43847543  1
  Se  Se170  1  0.25032637  0.08789556  0.94645095  1
  Se  Se171  1  0.25422385  0.40406865  0.44228661  1
  Se  Se172  1  0.24756514  0.42355873  0.94707160  1
  Se  Se173  1  0.24350861  0.74421147  0.44997241  1
  Se  Se174  1  0.25882482  0.74541908  0.93308126  1
  Se  Se175  1  0.58240052  0.08882452  0.45074956  1
  Se  Se176  1  0.57612052  0.07048054  0.93618175  1
  Se  Se177  1  0.58524594  0.41482726  0.45151787  1
  Se  Se178  1  0.57967907  0.42314772  0.94612475  1
  Se  Se179  1  0.57821904  0.73828840  0.45983873  1
  Se  Se180  1  0.58903710  0.74617435  0.92957684  1
  Se  Se181  1  0.92847195  0.07242006  0.44350743  1
  Se  Se182  1  0.91303926  0.07820057  0.93955048  1
  Se  Se183  1  0.90927382  0.42208368  0.45436338  1
  Se  Se184  1  0.89822241  0.42910834  0.94794449  1
  Se  Se185  1  0.91532709  0.75384717  0.44565289  1
  Se  Se186  1  0.92794864  0.74616958  0.95833160  1
  Se  Se187  1  0.25900647  0.25134459  0.29670592  1
  Se  Se188  1  0.24051443  0.24777301  0.81972475  1
  Se  Se189  1  0.24438214  0.57775207  0.30075295  1
  Se  Se190  1  0.26644457  0.59502994  0.79943208  1
  Se  Se191  1  0.24750861  0.90879007  0.31491355  1
  Se  Se192  1  0.25050501  0.91856222  0.79981539  1
  Se  Se193  1  0.57975061  0.24472551  0.30994679  1
  Se  Se194  1  0.58290272  0.24626570  0.80299120  1
  Se  Se195  1  0.56943086  0.57355722  0.31285696  1
  Se  Se196  1  0.58237640  0.57428258  0.80868258  1
  Se  Se197  1  0.58478827  0.90494756  0.31999719  1
  Se  Se198  1  0.56099326  0.89245717  0.79823858  1
  Se  Se199  1  0.91776249  0.25225536  0.29991423  1
  Se  Se200  1  0.91725694  0.24986910  0.80632803  1
  Se  Se201  1  0.91542553  0.58883207  0.30110435  1
  Se  Se202  1  0.91460524  0.57825727  0.81442986  1
  Se  Se203  1  0.91450897  0.91226282  0.31220905  1
  Se  Se204  1  0.91445179  0.91142951  0.80202576  1
  Se  Se205  1  0.09600012  0.09574768  0.30224578  1
  Se  Se206  1  0.07719688  0.08111525  0.80625895  1
  Se  Se207  1  0.08761348  0.42293186  0.31654204  1
  Se  Se208  1  0.08440332  0.43192951  0.81124134  1
  Se  Se209  1  0.07766840  0.74186770  0.30576769  1
  Se  Se210  1  0.09172200  0.75277284  0.81854369  1
  Se  Se211  1  0.42915024  0.08423969  0.30766926  1
  Se  Se212  1  0.40426578  0.08691116  0.79720350  1
  Se  Se213  1  0.40960644  0.40779650  0.30399347  1
  Se  Se214  1  0.42379639  0.42268580  0.81269676  1
  Se  Se215  1  0.41135736  0.74248004  0.30989169  1
  Se  Se216  1  0.41702727  0.73940404  0.78943165  1
  Se  Se217  1  0.76208141  0.09530569  0.29361093  1
  Se  Se218  1  0.74505113  0.07554330  0.80429153  1
  Se  Se219  1  0.74873143  0.43003839  0.31111373  1
  Se  Se220  1  0.74922836  0.41000049  0.80353647  1
  Se  Se221  1  0.75152574  0.76416752  0.31369832  1
  Se  Se222  1  0.75651382  0.74735171  0.81499794  1
  Se  Se223  1  0.25301463  0.08481933  0.17883064  1
  Se  Se224  1  0.23430418  0.09489502  0.69758228  1
  Se  Se225  1  0.24774680  0.41434037  0.19337137  1
  Se  Se226  1  0.24503084  0.42431181  0.69534703  1
  Se  Se227  1  0.25853129  0.74259854  0.20265259  1
  Se  Se228  1  0.24242671  0.75218993  0.69783674  1
  Se  Se229  1  0.58224056  0.09479986  0.18553206  1
  Se  Se230  1  0.57927743  0.07983172  0.69870300  1
  Se  Se231  1  0.57664047  0.42695469  0.19141260  1
  Se  Se232  1  0.58932371  0.41313537  0.70171487  1
  Se  Se233  1  0.57803527  0.75438838  0.19525494  1
  Se  Se234  1  0.58063871  0.75854231  0.68489486  1
  Se  Se235  1  0.92532361  0.09481475  0.17535568  1
  Se  Se236  1  0.91661477  0.08050427  0.70490097  1
  Se  Se237  1  0.90703138  0.43069421  0.18584437  1
  Se  Se238  1  0.92336085  0.41224085  0.70265376  1
  Se  Se239  1  0.91936189  0.74300412  0.19569641  1
  Se  Se240  1  0.90298200  0.74590215  0.68877357  1
  Se  Se241  1  0.09033084  0.24311088  0.18097829  1
  Se  Se242  1  0.07738802  0.26073792  0.70337612  1
  Se  Se243  1  0.07655279  0.57578232  0.18966542  1
  Se  Se244  1  0.09409626  0.57530934  0.69704333  1
  Se  Se245  1  0.09556598  0.90519374  0.19742210  1
  Se  Se246  1  0.07235396  0.91293820  0.70031784  1
  Se  Se247  1  0.41436733  0.25661510  0.19326496  1
  Se  Se248  1  0.42152558  0.25254234  0.68731668  1
  Se  Se249  1  0.41007844  0.58478974  0.19639748  1
  Se  Se250  1  0.41774585  0.59487340  0.70428279  1
  Se  Se251  1  0.42954607  0.90621674  0.19423827  1
  Se  Se252  1  0.39378471  0.93656339  0.69305067  1
  Se  Se253  1  0.76066933  0.25918913  0.17672404  1
  Se  Se254  1  0.74821361  0.24547709  0.70405608  1
  Se  Se255  1  0.75061811  0.58787868  0.18530518  1
  Se  Se256  1  0.76246190  0.57607313  0.69400371  1
  Se  Se257  1  0.76422743  0.91532689  0.18858524  1
  Se  Se258  1  0.74504534  0.91590088  0.69994154  1
