# generated using pymatgen
data_In86Cu29Se144
_symmetry_space_group_name_H-M   'P 1'
_cell_length_a   17.58979692
_cell_length_b   17.58654217
_cell_length_c   23.44728339
_cell_angle_alpha   90.02923989
_cell_angle_beta   90.01528016
_cell_angle_gamma   89.98001387
_symmetry_Int_Tables_number   1
_chemical_formula_structural   In86Cu29Se144
_chemical_formula_sum   'In86 Cu29 Se144'
_cell_volume   7253.26788059
_cell_formula_units_Z   1
loop_
 _symmetry_equiv_pos_site_id
 _symmetry_equiv_pos_as_xyz
  1  'x, y, z'
loop_
 _atom_site_type_symbol
 _atom_site_label
 _atom_site_symmetry_multiplicity
 _atom_site_fract_x
 _atom_site_fract_y
 _atom_site_fract_z
 _atom_site_occupancy
  In  In0  1  -0.00155255  0.17997444  0.12687281  1
  In  In1  1  -0.01428241  0.16134145  0.62178863  1
  In  In2  1  0.00377904  0.50070426  0.12702018  1
  In  In3  1  -0.00321271  0.49947242  0.61647180  1
  In  In4  1  -0.00638124  0.82248045  0.11937364  1
  In  In5  1  0.01450287  0.84655892  0.61500540  1
  In  In6  1  0.33388722  0.16672408  0.13238653  1
  In  In7  1  0.35246632  0.16880735  0.62159198  1
  In  In8  1  0.32696392  0.49623886  0.11899631  1
  In  In9  1  0.33174527  0.49947258  0.62878827  1
  In  In10  1  0.32446545  0.84690905  0.12065273  1
  In  In11  1  0.31348914  0.82661323  0.62873280  1
  In  In12  1  0.67415071  0.15718879  0.12334608  1
  In  In13  1  0.66434522  0.16845968  0.62900325  1
  In  In14  1  0.66608442  0.50157244  0.11101370  1
  In  In15  1  0.64776404  0.48108876  0.60819635  1
  In  In16  1  0.67109880  0.81606393  0.11752440  1
  In  In17  1  0.68747422  0.83352566  0.62713333  1
  In  In18  1  0.16260991  -0.01623468  0.37794198  1
  In  In19  1  0.15705551  -0.00000312  0.87320118  1
  In  In20  1  0.18002591  0.34737222  0.36858942  1
  In  In21  1  0.17948447  0.33313184  0.87265025  1
  In  In22  1  0.16070074  0.67615823  0.37745503  1
  In  In23  1  0.18106285  0.66403885  0.88760005  1
  In  In24  1  0.50302841  0.01475054  0.37700323  1
  In  In25  1  0.50884980  -0.01016467  0.87062082  1
  In  In26  1  0.48563605  0.34839751  0.39192339  1
  In  In27  1  0.50619224  0.34137927  0.87031910  1
  In  In28  1  0.48998747  0.65312279  0.37479757  1
  In  In29  1  0.48032506  0.66473036  0.87876784  1
  In  In30  1  0.84303018  0.00506009  0.39209582  1
  In  In31  1  0.83515211  0.00168211  0.87297301  1
  In  In32  1  0.83645705  0.32858176  0.38218598  1
  In  In33  1  0.82602609  0.34440777  0.87881067  1
  In  In34  1  0.84250749  0.65506851  0.37598586  1
  In  In35  1  0.83318763  0.66102994  0.88498711  1
  In  In36  1  -0.01594804  0.17110390  0.37983963  1
  In  In37  1  0.00013441  0.15180120  0.87001234  1
  In  In38  1  0.00362464  0.50297171  0.36996104  1
  In  In39  1  -0.00176569  0.50630964  0.88089007  1
  In  In40  1  0.00658669  0.82850238  0.37985754  1
  In  In41  1  -0.00398576  0.83681990  0.87772847  1
  In  In42  1  0.33712224  0.17798733  0.37113110  1
  In  In43  1  0.32009187  0.17405656  0.87180320  1
  In  In44  1  0.34204637  0.48811313  0.38011995  1
  In  In45  1  0.33562320  0.49953584  0.88054741  1
  In  In46  1  0.31539498  0.82922063  0.37306270  1
  In  In47  1  0.33483174  0.82371533  0.87712027  1
  In  In48  1  0.66813213  0.18000784  0.39509526  1
  In  In49  1  0.67349860  0.17578204  0.86786526  1
  In  In50  1  0.66090918  0.49378267  0.38540880  1
  In  In51  1  0.67332923  0.49323605  0.87919761  1
  In  In52  1  0.67056056  0.84781659  0.37802833  1
  In  In53  1  0.66847168  0.84606200  0.86841800  1
  In  In54  1  0.17757945  -0.00231624  0.12240589  1
  In  In55  1  0.16471570  -0.02053820  0.62842860  1
  In  In56  1  0.15863709  0.33825929  0.13390307  1
  In  In57  1  0.16351695  0.35230173  0.62370266  1
  In  In58  1  0.16056600  0.65113059  0.11089281  1
  In  In59  1  0.17239594  0.67231154  0.62480490  1
  In  In60  1  0.48942446  -0.00697702  0.12436851  1
  In  In61  1  0.50352703  0.01635017  0.62519644  1
  In  In62  1  0.48907240  0.33936961  0.13125579  1
  In  In63  1  0.49993350  0.33211212  0.62794444  1
  In  In64  1  0.49950012  0.64878075  0.11633097  1
  In  In65  1  0.49802973  0.64882032  0.62587054  1
  In  In66  1  0.83351643  -0.00304988  0.11630646  1
  In  In67  1  0.83846136  -0.00303801  0.63147689  1
  In  In68  1  0.84324246  0.34392900  0.11997648  1
  In  In69  1  0.80832322  0.31553381  0.60301099  1
  In  In70  1  0.84004620  0.67516538  0.11515628  1
  In  In71  1  0.83420289  0.66576100  0.61985567  1
  In  In72  1  0.50377215  0.82946979  -0.00333253  1
  In  In73  1  -0.00520598  0.33321375  0.74263161  1
  In  In74  1  0.66541734  0.33263429  0.25695018  1
  In  In75  1  0.66785938  0.66177537  0.24821334  1
  In  In76  1  0.16255136  0.16316213  0.49914139  1
  In  In77  1  0.50026876  0.16983023  0.00733951  1
  In  In78  1  0.16134251  0.16674069  -0.00311123  1
  In  In79  1  0.33797654  0.00206312  0.74879058  1
  In  In80  1  0.66746086  0.00490049  0.25417343  1
  In  In81  1  0.32616469  0.66113785  0.23873561  1
  In  In82  1  0.49966960  0.83009563  0.49885042  1
  In  In83  1  -0.00021575  0.00388175  0.25781290  1
  In  In84  1  0.00212839  0.66827169  0.75879125  1
  In  In85  1  0.66331982  0.66329218  0.75101059  1
  Cu  Cu86  1  0.16776274  0.17037369  0.25121197  1
  Cu  Cu87  1  0.49950916  0.83168309  0.75019108  1
  Cu  Cu88  1  0.66809836  0.66558394  0.50213831  1
  Cu  Cu89  1  0.83161415  0.16971645  0.25663754  1
  Cu  Cu90  1  0.15884864  0.83342772  0.25077411  1
  Cu  Cu91  1  0.00472396  0.34419496  0.49631249  1
  Cu  Cu92  1  0.83524262  0.82877854  0.24591522  1
  Cu  Cu93  1  0.84219785  0.50064786  0.24754071  1
  Cu  Cu94  1  -0.00006266  0.66669516  0.49684284  1
  Cu  Cu95  1  0.67534567  0.00180010  0.50733318  1
  Cu  Cu96  1  0.50463360  0.17342613  0.74859859  1
  Cu  Cu97  1  0.33183403  0.33830486  0.00187903  1
  Cu  Cu98  1  0.16920610  0.16721377  0.74728808  1
  Cu  Cu99  1  0.67512628  0.00177776  -0.00484012  1
  Cu  Cu100  1  0.66912061  0.33199480  -0.00525355  1
  Cu  Cu101  1  0.17069767  0.50246454  0.75346055  1
  Cu  Cu102  1  0.33539031  0.33408883  0.50271041  1
  Cu  Cu103  1  0.48787617  0.83268055  0.24327504  1
  Cu  Cu104  1  -0.00473308  -0.00330044  -0.00309363  1
  Cu  Cu105  1  0.32931029  0.65894852  0.49991089  1
  Cu  Cu106  1  0.33345341  -0.00202748  0.50493581  1
  Cu  Cu107  1  -0.00096299  0.33705969  0.00334399  1
  Cu  Cu108  1  0.49331364  0.49456112  0.75013838  1
  Cu  Cu109  1  0.00475154  0.66325840  0.00011564  1
  Cu  Cu110  1  0.82047668  0.49093982  0.74513557  1
  Cu  Cu111  1  0.49189658  0.16958225  0.25478541  1
  Cu  Cu112  1  0.84230899  0.83807681  0.74945719  1
  Cu  Cu113  1  0.82915231  0.16677459  0.74639831  1
  Cu  Cu114  1  0.16946602  0.50315537  0.24786372  1
  Se  Se115  1  0.07221066  0.07780977  0.06056939  1
  Se  Se116  1  0.07978659  0.07282999  0.56211362  1
  Se  Se117  1  0.08624239  0.41560974  0.05684069  1
  Se  Se118  1  0.08915039  0.42746363  0.54742087  1
  Se  Se119  1  0.08587344  0.75159065  0.05110039  1
  Se  Se120  1  0.08466394  0.74555935  0.55373367  1
  Se  Se121  1  0.40306683  0.07598080  0.05551573  1
  Se  Se122  1  0.42217448  0.08343666  0.54762001  1
  Se  Se123  1  0.42097711  0.41761870  0.05340607  1
  Se  Se124  1  0.41550063  0.41718662  0.55981572  1
  Se  Se125  1  0.41371402  0.74978837  0.06289927  1
  Se  Se126  1  0.40952196  0.74244558  0.56043604  1
  Se  Se127  1  0.75619275  0.08695978  0.04910230  1
  Se  Se128  1  0.75377544  0.08331060  0.56493438  1
  Se  Se129  1  0.75299576  0.41444850  0.05009804  1
  Se  Se130  1  0.76873807  0.44042293  0.55496742  1
  Se  Se131  1  0.75712533  0.75323498  0.04463023  1
  Se  Se132  1  0.75266723  0.75030824  0.55063149  1
  Se  Se133  1  0.25205315  0.25401923  0.05995502  1
  Se  Se134  1  0.25175661  0.25399419  0.56114035  1
  Se  Se135  1  0.26655851  0.59235084  0.04943125  1
  Se  Se136  1  0.24717688  0.57983584  0.55817705  1
  Se  Se137  1  0.24201156  0.91576661  0.04609988  1
  Se  Se138  1  0.24893632  0.91187952  0.55208365  1
  Se  Se139  1  0.59303600  0.26076167  0.06488031  1
  Se  Se140  1  0.57943525  0.24674923  0.56036258  1
  Se  Se141  1  0.60319341  0.60419639  0.04800368  1
  Se  Se142  1  0.57693049  0.58298665  0.54698762  1
  Se  Se143  1  0.59328390  0.92559195  0.05817748  1
  Se  Se144  1  0.58914738  0.91806308  0.56174824  1
  Se  Se145  1  0.91572773  0.24918927  0.05208484  1
  Se  Se146  1  0.92708008  0.25897437  0.55223322  1
  Se  Se147  1  0.92152163  0.58040601  0.05522233  1
  Se  Se148  1  0.91548520  0.58477425  0.54957555  1
  Se  Se149  1  0.91492615  0.91091010  0.05155166  1
  Se  Se150  1  0.89988104  0.90066370  0.56115278  1
  Se  Se151  1  0.08456175  0.26122944  0.43650305  1
  Se  Se152  1  0.07305428  0.25865382  0.93556978  1
  Se  Se153  1  0.08422609  0.58414271  0.44253703  1
  Se  Se154  1  0.08873256  0.57907108  0.94849908  1
  Se  Se155  1  0.07258147  0.92227489  0.44907838  1
  Se  Se156  1  0.08353364  0.91723833  0.94631120  1
  Se  Se157  1  0.41477599  0.24452698  0.45098016  1
  Se  Se158  1  0.40988277  0.25478513  0.94217397  1
  Se  Se159  1  0.41770790  0.57701040  0.45099012  1
  Se  Se160  1  0.41106820  0.58372880  0.95312010  1
  Se  Se161  1  0.40997476  0.91905265  0.43775777  1
  Se  Se162  1  0.41420564  0.92600808  0.94149533  1
  Se  Se163  1  0.76244797  0.25163049  0.45808030  1
  Se  Se164  1  0.75285853  0.24778882  0.94432690  1
  Se  Se165  1  0.74818162  0.58474268  0.44323309  1
  Se  Se166  1  0.74936446  0.57755605  0.94827978  1
  Se  Se167  1  0.75374411  0.91667860  0.45167755  1
  Se  Se168  1  0.75408170  0.91471474  0.94225510  1
  Se  Se169  1  0.25645971  0.07631251  0.43929889  1
  Se  Se170  1  0.25574412  0.07648312  0.94117205  1
  Se  Se171  1  0.25080881  0.41762982  0.45024840  1
  Se  Se172  1  0.24526362  0.41694845  0.94777430  1
  Se  Se173  1  0.24862678  0.74876720  0.45003252  1
  Se  Se174  1  0.25307951  0.75906161  0.95348054  1
  Se  Se175  1  0.58910965  0.07952568  0.45138056  1
  Se  Se176  1  0.58777321  0.08198054  0.94114924  1
  Se  Se177  1  0.59807852  0.39607751  0.45161095  1
  Se  Se178  1  0.58152462  0.41602887  0.94705329  1
  Se  Se179  1  0.58927538  0.74158052  0.43557593  1
  Se  Se180  1  0.59080714  0.74581080  0.93070878  1
  Se  Se181  1  0.92300935  0.09014147  0.45767750  1
  Se  Se182  1  0.91607536  0.08502695  0.94506628  1
  Se  Se183  1  0.91950795  0.42337110  0.44077258  1
  Se  Se184  1  0.91671577  0.41911568  0.94637064  1
  Se  Se185  1  0.91455365  0.74842511  0.44324652  1
  Se  Se186  1  0.92142709  0.74645833  0.94600352  1
  Se  Se187  1  0.25380902  0.25543407  0.30078803  1
  Se  Se188  1  0.25146966  0.25474286  0.79533175  1
  Se  Se189  1  0.24835777  0.57934745  0.31296977  1
  Se  Se190  1  0.25130860  0.58247927  0.81069967  1
  Se  Se191  1  0.24539112  0.91651710  0.30051705  1
  Se  Se192  1  0.24986591  0.91418586  0.80902263  1
  Se  Se193  1  0.57871087  0.24021859  0.31543580  1
  Se  Se194  1  0.58724767  0.25729669  0.80209169  1
  Se  Se195  1  0.57838217  0.57097043  0.30711177  1
  Se  Se196  1  0.57296953  0.57573323  0.81217015  1
  Se  Se197  1  0.57017860  0.90909919  0.30550893  1
  Se  Se198  1  0.58668735  0.91890636  0.79368266  1
  Se  Se199  1  0.91616799  0.25580602  0.30467965  1
  Se  Se200  1  0.91013327  0.24633864  0.80901387  1
  Se  Se201  1  0.92344379  0.58797306  0.29855169  1
  Se  Se202  1  0.90209740  0.57091530  0.80495077  1
  Se  Se203  1  0.90468974  0.91277906  0.31138288  1
  Se  Se204  1  0.92271896  0.92120277  0.80470531  1
  Se  Se205  1  0.09072126  0.09463277  0.31668553  1
  Se  Se206  1  0.08634502  0.08195699  0.79726195  1
  Se  Se207  1  0.08625157  0.41834308  0.30095201  1
  Se  Se208  1  0.08321078  0.42112723  0.80821422  1
  Se  Se209  1  0.07759023  0.74866805  0.30273931  1
  Se  Se210  1  0.09480173  0.75262025  0.81750078  1
  Se  Se211  1  0.41201266  0.08097619  0.30604882  1
  Se  Se212  1  0.42560828  0.09391996  0.81200833  1
  Se  Se213  1  0.42339782  0.41456413  0.30686198  1
  Se  Se214  1  0.40972124  0.41412839  0.80647146  1
  Se  Se215  1  0.41573900  0.75061824  0.30668851  1
  Se  Se216  1  0.41570203  0.75001865  0.80207323  1
  Se  Se217  1  0.75486591  0.09080529  0.31869579  1
  Se  Se218  1  0.74979132  0.08252888  0.80354356  1
  Se  Se219  1  0.75909822  0.42684653  0.31010684  1
  Se  Se220  1  0.74089899  0.40991747  0.80193313  1
  Se  Se221  1  0.75178805  0.75660538  0.30964591  1
  Se  Se222  1  0.76186738  0.75193228  0.80698013  1
  Se  Se223  1  0.24545415  0.08410593  0.19651796  1
  Se  Se224  1  0.24856769  0.08850876  0.68380795  1
  Se  Se225  1  0.25292984  0.41855066  0.19537441  1
  Se  Se226  1  0.24941723  0.41553344  0.69945629  1
  Se  Se227  1  0.23622584  0.75606435  0.18568817  1
  Se  Se228  1  0.24767612  0.74321640  0.70282890  1
  Se  Se229  1  0.57183100  0.09100246  0.19233920  1
  Se  Se230  1  0.58587793  0.08309999  0.70121951  1
  Se  Se231  1  0.58688339  0.42462047  0.19030672  1
  Se  Se232  1  0.58316900  0.41924655  0.69573664  1
  Se  Se233  1  0.57198575  0.75204298  0.18912837  1
  Se  Se234  1  0.57832849  0.75443122  0.68565738  1
  Se  Se235  1  0.90637288  0.08673009  0.19364522  1
  Se  Se236  1  0.91919435  0.08356628  0.70095557  1
  Se  Se237  1  0.92369085  0.41307674  0.19650127  1
  Se  Se238  1  0.90361800  0.41801468  0.68239935  1
  Se  Se239  1  0.91766385  0.74489321  0.19494737  1
  Se  Se240  1  0.91610178  0.75134569  0.69108197  1
  Se  Se241  1  0.07897642  0.25098172  0.20165073  1
  Se  Se242  1  0.08910517  0.24382772  0.68418396  1
  Se  Se243  1  0.08738622  0.58715020  0.19420010  1
  Se  Se244  1  0.08343329  0.57522893  0.69340216  1
  Se  Se245  1  0.08115022  0.91628111  0.18963136  1
  Se  Se246  1  0.08179223  0.90849735  0.70067411  1
  Se  Se247  1  0.41236604  0.25389348  0.20000335  1
  Se  Se248  1  0.41423194  0.25242585  0.69931343  1
  Se  Se249  1  0.42540864  0.56901509  0.19270651  1
  Se  Se250  1  0.41243472  0.58357054  0.70052971  1
  Se  Se251  1  0.40526056  0.92106829  0.19682478  1
  Se  Se252  1  0.42304570  0.91050134  0.68425836  1
  Se  Se253  1  0.75530561  0.24677579  0.19145056  1
  Se  Se254  1  0.75083447  0.25576181  0.69431888  1
  Se  Se255  1  0.75928220  0.57627113  0.18627288  1
  Se  Se256  1  0.74577029  0.57628476  0.68475353  1
  Se  Se257  1  0.75084738  0.90963339  0.19032057  1
  Se  Se258  1  0.75043386  0.91914236  0.70290848  1
