# generated using pymatgen
data_In86Cu29Se144
_symmetry_space_group_name_H-M   'P 1'
_cell_length_a   17.57879121
_cell_length_b   17.58110115
_cell_length_c   23.44271735
_cell_angle_alpha   89.99668257
_cell_angle_beta   89.99201923
_cell_angle_gamma   89.98178305
_symmetry_Int_Tables_number   1
_chemical_formula_structural   In86Cu29Se144
_chemical_formula_sum   'In86 Cu29 Se144'
_cell_volume   7245.07698923
_cell_formula_units_Z   1
loop_
 _symmetry_equiv_pos_site_id
 _symmetry_equiv_pos_as_xyz
  1  'x, y, z'
loop_
 _atom_site_type_symbol
 _atom_site_label
 _atom_site_symmetry_multiplicity
 _atom_site_fract_x
 _atom_site_fract_y
 _atom_site_fract_z
 _atom_site_occupancy
  In  In0  1  0.00136070  0.16771617  0.12736615  1
  In  In1  1  -0.00719963  0.16067843  0.61716711  1
  In  In2  1  0.01076781  0.48914743  0.13153423  1
  In  In3  1  0.01374877  0.50082455  0.62614025  1
  In  In4  1  0.00843174  0.82927044  0.13482312  1
  In  In5  1  0.01889261  0.82424642  0.62959897  1
  In  In6  1  0.31628933  0.16982302  0.12600963  1
  In  In7  1  0.33271995  0.16688086  0.62001936  1
  In  In8  1  0.33793500  0.51349821  0.11214535  1
  In  In9  1  0.33015593  0.49668719  0.62760745  1
  In  In10  1  0.33135731  0.83527059  0.13356183  1
  In  In11  1  0.31848887  0.84235229  0.62451571  1
  In  In12  1  0.68275514  0.16713027  0.12389313  1
  In  In13  1  0.65852911  0.15885982  0.62008258  1
  In  In14  1  0.64040290  0.49720791  0.12906803  1
  In  In15  1  0.65714945  0.50999084  0.62543891  1
  In  In16  1  0.66216150  0.83184033  0.12366052  1
  In  In17  1  0.67712400  0.83970561  0.62845468  1
  In  In18  1  0.17114010  0.00120285  0.38154060  1
  In  In19  1  0.17160331  0.00577927  0.86573047  1
  In  In20  1  0.16134634  0.33760449  0.37793152  1
  In  In21  1  0.17418412  0.32311449  0.87908186  1
  In  In22  1  0.17036872  0.66717221  0.37823774  1
  In  In23  1  0.16754248  0.66286569  0.87189115  1
  In  In24  1  0.49506570  0.01374440  0.38001255  1
  In  In25  1  0.49707886  -0.00119866  0.86356142  1
  In  In26  1  0.50018431  0.33165707  0.37716203  1
  In  In27  1  0.49680023  0.34787397  0.87902641  1
  In  In28  1  0.47761488  0.66273273  0.37725367  1
  In  In29  1  0.48756076  0.66376988  0.87771630  1
  In  In30  1  0.84980930  0.00095525  0.37515222  1
  In  In31  1  0.84181703  0.00690677  0.87072984  1
  In  In32  1  0.83004991  0.32441992  0.36956902  1
  In  In33  1  0.82170708  0.33062623  0.87949058  1
  In  In34  1  0.84251481  0.65379857  0.37366326  1
  In  In35  1  0.84752752  0.65546701  0.87169293  1
  In  In36  1  0.00453943  0.16331742  0.37871417  1
  In  In37  1  0.00930771  0.16039689  0.87896258  1
  In  In38  1  0.01551629  0.50659058  0.36419228  1
  In  In39  1  0.00123591  0.51713208  0.87017292  1
  In  In40  1  0.01828406  0.84630446  0.36811665  1
  In  In41  1  0.00203587  0.83506296  0.86848109  1
  In  In42  1  0.33807132  0.15623353  0.38680864  1
  In  In43  1  0.32220021  0.15769538  0.86530851  1
  In  In44  1  0.32908649  0.50788581  0.38315980  1
  In  In45  1  0.33317181  0.49911859  0.87392870  1
  In  In46  1  0.31871128  0.82360125  0.37553845  1
  In  In47  1  0.33026213  0.82915626  0.86303470  1
  In  In48  1  0.65874067  0.17743282  0.38254940  1
  In  In49  1  0.67684235  0.16557965  0.88029395  1
  In  In50  1  0.66235989  0.48583163  0.36862512  1
  In  In51  1  0.66513098  0.49173086  0.88036770  1
  In  In52  1  0.66321048  0.83566304  0.37410048  1
  In  In53  1  0.65673264  0.83840702  0.87150470  1
  In  In54  1  0.15886694  0.00433067  0.13130767  1
  In  In55  1  0.16975790  -0.00122544  0.62052295  1
  In  In56  1  0.15864099  0.32653740  0.12050824  1
  In  In57  1  0.17721897  0.34960278  0.61608168  1
  In  In58  1  0.17988481  0.65315324  0.13206679  1
  In  In59  1  0.17186238  0.66348778  0.62402830  1
  In  In60  1  0.49464343  -0.00944469  0.12640508  1
  In  In61  1  0.48113665  0.01899237  0.63486850  1
  In  In62  1  0.49578280  0.35742976  0.13541245  1
  In  In63  1  0.48951235  0.31957463  0.61766459  1
  In  In64  1  0.48844654  0.64713564  0.11931047  1
  In  In65  1  0.48697749  0.64881358  0.61699820  1
  In  In66  1  0.83386364  0.01801775  0.12169566  1
  In  In67  1  0.83170825  0.00733828  0.63239717  1
  In  In68  1  0.84036658  0.32445762  0.13290286  1
  In  In69  1  0.84522612  0.32772994  0.62308512  1
  In  In70  1  0.83788693  0.67409162  0.12597335  1
  In  In71  1  0.83725103  0.67675058  0.62940295  1
  In  In72  1  0.66964763  0.00359388  0.24169103  1
  In  In73  1  0.32763321  0.33729472  0.25453583  1
  In  In74  1  0.66671620  0.67237102  0.75160538  1
  In  In75  1  0.83981326  0.83443033  0.50364584  1
  In  In76  1  0.66567626  0.66586444  0.24231013  1
  In  In77  1  0.48983665  0.84127845  0.51043163  1
  In  In78  1  0.66441658  0.33283342  0.75907358  1
  In  In79  1  0.82984126  0.83937480  0.00280827  1
  In  In80  1  0.49962197  0.83041183  0.00332298  1
  In  In81  1  0.49978123  0.17119709  -0.00204004  1
  In  In82  1  0.83266146  0.49729044  -0.00182537  1
  In  In83  1  0.00345962  0.33468782  0.74555001  1
  In  In84  1  0.83603883  0.49325658  0.49932959  1
  In  In85  1  0.16994524  0.83194127  -0.00926948  1
  Cu  Cu86  1  0.49531699  0.16678927  0.74552340  1
  Cu  Cu87  1  0.16313737  0.15913981  0.25334979  1
  Cu  Cu88  1  0.65354162  0.66256104  0.49648971  1
  Cu  Cu89  1  0.16502540  0.83520789  0.74622324  1
  Cu  Cu90  1  0.17065369  0.50345112  0.74741526  1
  Cu  Cu91  1  0.49735762  0.17124023  0.25758898  1
  Cu  Cu92  1  0.84118888  0.84140232  0.74922604  1
  Cu  Cu93  1  0.66753241  0.33212444  0.49504509  1
  Cu  Cu94  1  0.00557769  0.00096693  0.49957011  1
  Cu  Cu95  1  0.48722560  0.83626886  0.25341074  1
  Cu  Cu96  1  0.00009002  0.33118101  0.00535831  1
  Cu  Cu97  1  0.84037521  0.49483393  0.24968935  1
  Cu  Cu98  1  0.84376977  0.82906499  0.25100667  1
  Cu  Cu99  1  0.16789403  0.49810893  0.25080962  1
  Cu  Cu100  1  0.32817323  0.33778884  0.00221568  1
  Cu  Cu101  1  0.50018699  0.83151237  0.74521415  1
  Cu  Cu102  1  0.83935289  0.16319703  0.25250459  1
  Cu  Cu103  1  0.00805008  0.66414782  0.00000686  1
  Cu  Cu104  1  0.33480915  0.33368384  0.49853797  1
  Cu  Cu105  1  0.16626479  0.16611252  0.74309299  1
  Cu  Cu106  1  0.00819066  0.66916578  0.49790928  1
  Cu  Cu107  1  0.83282086  0.16560314  0.75115055  1
  Cu  Cu108  1  0.16722994  0.83207549  0.25525853  1
  Cu  Cu109  1  0.00192093  0.32911196  0.49720527  1
  Cu  Cu110  1  0.67038085  0.00836674  0.50422410  1
  Cu  Cu111  1  -0.00144074  0.01187164  0.00247047  1
  Cu  Cu112  1  0.66540929  0.33220908  0.00596141  1
  Cu  Cu113  1  0.49166404  0.49563203  0.74864866  1
  Cu  Cu114  1  0.32760552  0.00270465  -0.00653729  1
  Se  Se115  1  0.08753544  0.08772037  0.05687857  1
  Se  Se116  1  0.08693578  0.08648186  0.55265515  1
  Se  Se117  1  0.08482694  0.41899423  0.05168046  1
  Se  Se118  1  0.07942092  0.41880999  0.54936181  1
  Se  Se119  1  0.08480316  0.74725955  0.05900863  1
  Se  Se120  1  0.09179356  0.74983419  0.55246697  1
  Se  Se121  1  0.40836641  0.07835961  0.05731944  1
  Se  Se122  1  0.42308794  0.09064744  0.55178695  1
  Se  Se123  1  0.41800968  0.41598595  0.05253348  1
  Se  Se124  1  0.41538178  0.41672822  0.55590377  1
  Se  Se125  1  0.40245627  0.74512766  0.05858207  1
  Se  Se126  1  0.39984822  0.74194074  0.55838844  1
  Se  Se127  1  0.74333606  0.07899317  0.04981512  1
  Se  Se128  1  0.75840741  0.08721407  0.55665369  1
  Se  Se129  1  0.74741671  0.41278951  0.06582792  1
  Se  Se130  1  0.74142720  0.40993410  0.56279002  1
  Se  Se131  1  0.73985667  0.73975586  0.05520187  1
  Se  Se132  1  0.73934629  0.73975129  0.55437685  1
  Se  Se133  1  0.24579017  0.24875532  0.05009222  1
  Se  Se134  1  0.24935102  0.25273637  0.55233621  1
  Se  Se135  1  0.24178643  0.58368247  0.04818876  1
  Se  Se136  1  0.23239328  0.56012663  0.55963407  1
  Se  Se137  1  0.25264215  0.92159858  0.05756835  1
  Se  Se138  1  0.25248604  0.92304122  0.54786168  1
  Se  Se139  1  0.58134274  0.25731875  0.06744509  1
  Se  Se140  1  0.58592685  0.24954109  0.55201198  1
  Se  Se141  1  0.59430730  0.59357398  0.05541010  1
  Se  Se142  1  0.57552933  0.57406179  0.54748590  1
  Se  Se143  1  0.59335960  0.92898608  0.05415432  1
  Se  Se144  1  0.59153283  0.92666148  0.56342845  1
  Se  Se145  1  0.91572300  0.24773901  0.05659747  1
  Se  Se146  1  0.91425426  0.24796479  0.54740048  1
  Se  Se147  1  0.92458309  0.58587345  0.05932199  1
  Se  Se148  1  0.92118502  0.59298872  0.55677929  1
  Se  Se149  1  0.92890153  0.92136342  0.06187360  1
  Se  Se150  1  0.92716795  0.92261705  0.56461203  1
  Se  Se151  1  0.08848976  0.24635580  0.44708261  1
  Se  Se152  1  0.08272969  0.25000460  0.94756522  1
  Se  Se153  1  0.08454522  0.57941199  0.44459907  1
  Se  Se154  1  0.08800351  0.58140646  0.94500323  1
  Se  Se155  1  0.08798974  0.91313924  0.45020844  1
  Se  Se156  1  0.07510058  0.92876526  0.94091081  1
  Se  Se157  1  0.42043460  0.24976873  0.44727759  1
  Se  Se158  1  0.40395187  0.25469735  0.93835566  1
  Se  Se159  1  0.41695466  0.58042445  0.45427500  1
  Se  Se160  1  0.42595845  0.56754992  0.94458923  1
  Se  Se161  1  0.40807938  0.92076039  0.43898105  1
  Se  Se162  1  0.40960700  0.91945729  0.93849463  1
  Se  Se163  1  0.75602317  0.24894618  0.44760358  1
  Se  Se164  1  0.74975282  0.24945960  0.95416290  1
  Se  Se165  1  0.74193883  0.58539264  0.44036185  1
  Se  Se166  1  0.74568108  0.59356926  0.94033264  1
  Se  Se167  1  0.74489945  0.92352334  0.44307789  1
  Se  Se168  1  0.74478059  0.92475534  0.93756107  1
  Se  Se169  1  0.24056268  0.09167771  0.45226113  1
  Se  Se170  1  0.24310791  0.08611964  0.94288203  1
  Se  Se171  1  0.24868371  0.41523713  0.44600285  1
  Se  Se172  1  0.24705645  0.41826494  0.94379958  1
  Se  Se173  1  0.24936151  0.74524025  0.45143969  1
  Se  Se174  1  0.26540391  0.73991842  0.94019182  1
  Se  Se175  1  0.58362162  0.08581254  0.44944024  1
  Se  Se176  1  0.58292002  0.07438010  0.93937920  1
  Se  Se177  1  0.58314812  0.41720888  0.44582260  1
  Se  Se178  1  0.58352925  0.41661795  0.95303475  1
  Se  Se179  1  0.57900487  0.75197669  0.44177589  1
  Se  Se180  1  0.58936512  0.74232315  0.94061980  1
  Se  Se181  1  0.91765191  0.08344516  0.45004855  1
  Se  Se182  1  0.91350392  0.08959357  0.94625859  1
  Se  Se183  1  0.92599383  0.41259212  0.43426088  1
  Se  Se184  1  0.92671969  0.41008601  0.93796649  1
  Se  Se185  1  0.92554033  0.74731518  0.43790221  1
  Se  Se186  1  0.92473977  0.74690628  0.94458235  1
  Se  Se187  1  0.24528172  0.23979441  0.31321663  1
  Se  Se188  1  0.24632365  0.25015148  0.79914747  1
  Se  Se189  1  0.24860409  0.58045034  0.30703606  1
  Se  Se190  1  0.25448507  0.58503157  0.80308029  1
  Se  Se191  1  0.24880843  0.91811322  0.30783237  1
  Se  Se192  1  0.25101750  0.91858565  0.79875034  1
  Se  Se193  1  0.58485087  0.25318659  0.30535550  1
  Se  Se194  1  0.57139198  0.24055151  0.81511610  1
  Se  Se195  1  0.57873430  0.58637128  0.31047485  1
  Se  Se196  1  0.57945591  0.57282386  0.80686530  1
  Se  Se197  1  0.57670175  0.91674070  0.30525794  1
  Se  Se198  1  0.58344802  0.91666962  0.79643835  1
  Se  Se199  1  0.92301625  0.24557301  0.30659991  1
  Se  Se200  1  0.91144627  0.24901148  0.81023834  1
  Se  Se201  1  0.92201976  0.58349138  0.29833920  1
  Se  Se202  1  0.92203398  0.58630979  0.79448550  1
  Se  Se203  1  0.92168583  0.91817266  0.30232829  1
  Se  Se204  1  0.92495029  0.92468455  0.80220662  1
  Se  Se205  1  0.08265272  0.07623533  0.30945639  1
  Se  Se206  1  0.08231137  0.08684982  0.79997080  1
  Se  Se207  1  0.08476686  0.40860160  0.29863465  1
  Se  Se208  1  0.09091937  0.42200854  0.80938736  1
  Se  Se209  1  0.08439448  0.74408032  0.30571486  1
  Se  Se210  1  0.08720722  0.75084296  0.80480159  1
  Se  Se211  1  0.41303429  0.08546201  0.30521280  1
  Se  Se212  1  0.41149811  0.08066335  0.79802212  1
  Se  Se213  1  0.41924696  0.42587534  0.31166488  1
  Se  Se214  1  0.41149192  0.41061386  0.80292952  1
  Se  Se215  1  0.40804730  0.74832969  0.30436205  1
  Se  Se216  1  0.42109356  0.74646627  0.80075809  1
  Se  Se217  1  0.75241087  0.08640246  0.31232405  1
  Se  Se218  1  0.74775502  0.08447633  0.80483261  1
  Se  Se219  1  0.75387702  0.41425383  0.30158515  1
  Se  Se220  1  0.76219766  0.42945936  0.80647397  1
  Se  Se221  1  0.75758989  0.75379694  0.30927104  1
  Se  Se222  1  0.76266349  0.75990105  0.81165313  1
  Se  Se223  1  0.25044314  0.08108082  0.19859130  1
  Se  Se224  1  0.25146400  0.08323772  0.69058573  1
  Se  Se225  1  0.24462616  0.42044990  0.18546966  1
  Se  Se226  1  0.25078653  0.41203640  0.69962096  1
  Se  Se227  1  0.24900811  0.74954245  0.19882987  1
  Se  Se228  1  0.24938774  0.75042697  0.69473801  1
  Se  Se229  1  0.57267674  0.09488939  0.18844275  1
  Se  Se230  1  0.58557831  0.08376037  0.69836680  1
  Se  Se231  1  0.59015499  0.41140636  0.20869772  1
  Se  Se232  1  0.57639010  0.41620086  0.69129573  1
  Se  Se233  1  0.56647164  0.75740880  0.18996701  1
  Se  Se234  1  0.57571594  0.75014329  0.68240458  1
  Se  Se235  1  0.92018067  0.08071625  0.19697452  1
  Se  Se236  1  0.92122054  0.08786545  0.69793599  1
  Se  Se237  1  0.92414670  0.40931132  0.19862816  1
  Se  Se238  1  0.90952512  0.42778239  0.69068711  1
  Se  Se239  1  0.92383938  0.74223144  0.19913587  1
  Se  Se240  1  0.92167873  0.75414771  0.69723173  1
  Se  Se241  1  0.08685525  0.24704721  0.19748991  1
  Se  Se242  1  0.08955262  0.24824481  0.68130408  1
  Se  Se243  1  0.08324567  0.58341218  0.19805274  1
  Se  Se244  1  0.08456987  0.58745914  0.69747074  1
  Se  Se245  1  0.08447555  0.91757090  0.20206139  1
  Se  Se246  1  0.08446713  0.92369258  0.69479731  1
  Se  Se247  1  0.41807733  0.24650791  0.19118036  1
  Se  Se248  1  0.41099465  0.25039020  0.69504610  1
  Se  Se249  1  0.41420846  0.57399399  0.19496754  1
  Se  Se250  1  0.41143767  0.58345557  0.69772955  1
  Se  Se251  1  0.40882378  0.92512679  0.20091034  1
  Se  Se252  1  0.41420853  0.91345001  0.69298310  1
  Se  Se253  1  0.75180426  0.24564918  0.20141918  1
  Se  Se254  1  0.75272994  0.24738212  0.69209924  1
  Se  Se255  1  0.75863342  0.57168771  0.18665848  1
  Se  Se256  1  0.75579957  0.57902337  0.69242797  1
  Se  Se257  1  0.76277647  0.90630153  0.18852624  1
  Se  Se258  1  0.75075736  0.92165379  0.70114253  1
