# generated using pymatgen
data_In86Cu29Se144
_symmetry_space_group_name_H-M   'P 1'
_cell_length_a   17.57861752
_cell_length_b   17.57909386
_cell_length_c   23.44187084
_cell_angle_alpha   90.00879150
_cell_angle_beta   90.03180410
_cell_angle_gamma   89.97283200
_symmetry_Int_Tables_number   1
_chemical_formula_structural   In86Cu29Se144
_chemical_formula_sum   'In86 Cu29 Se144'
_cell_volume   7243.91506263
_cell_formula_units_Z   1
loop_
 _symmetry_equiv_pos_site_id
 _symmetry_equiv_pos_as_xyz
  1  'x, y, z'
loop_
 _atom_site_type_symbol
 _atom_site_label
 _atom_site_symmetry_multiplicity
 _atom_site_fract_x
 _atom_site_fract_y
 _atom_site_fract_z
 _atom_site_occupancy
  In  In0  1  0.01197370  0.16425342  0.12132601  1
  In  In1  1  0.00772508  0.15457540  0.62790656  1
  In  In2  1  -0.00005902  0.49991869  0.12191443  1
  In  In3  1  0.00547039  0.49114207  0.62582892  1
  In  In4  1  -0.00803469  0.81731590  0.12425395  1
  In  In5  1  0.02447911  0.82857798  0.62958442  1
  In  In6  1  0.32177286  0.15715497  0.11839628  1
  In  In7  1  0.31931583  0.15895605  0.62197435  1
  In  In8  1  0.33358165  0.50335119  0.11672543  1
  In  In9  1  0.34530576  0.50918067  0.61441862  1
  In  In10  1  0.34267541  0.84189757  0.11640069  1
  In  In11  1  0.31194021  0.84493732  0.64417972  1
  In  In12  1  0.66357920  0.16866736  0.12163113  1
  In  In13  1  0.66954863  0.16118276  0.63735553  1
  In  In14  1  0.65876719  0.49185898  0.11907765  1
  In  In15  1  0.65643187  0.50847490  0.63858882  1
  In  In16  1  0.66626864  0.85213426  0.11946109  1
  In  In17  1  0.66026903  0.83867071  0.64362766  1
  In  In18  1  0.18015520  -0.00356285  0.38366589  1
  In  In19  1  0.17096322  -0.00393596  0.87307395  1
  In  In20  1  0.16239904  0.34146178  0.37322426  1
  In  In21  1  0.16377812  0.32992518  0.88761920  1
  In  In22  1  0.16490451  0.67327252  0.37800100  1
  In  In23  1  0.17027323  0.66660232  0.87288139  1
  In  In24  1  0.50413683  0.00049011  0.36522233  1
  In  In25  1  0.49887221  -0.00209467  0.87734437  1
  In  In26  1  0.51209998  0.34155715  0.37124079  1
  In  In27  1  0.50760780  0.32144996  0.88279670  1
  In  In28  1  0.48240237  0.66607963  0.38138602  1
  In  In29  1  0.49689158  0.66673996  0.87725144  1
  In  In30  1  0.83370243  0.01208472  0.37089604  1
  In  In31  1  0.82713672  -0.01535358  0.86075283  1
  In  In32  1  0.83095693  0.32938145  0.36046466  1
  In  In33  1  0.83402983  0.35064877  0.88487342  1
  In  In34  1  0.83621425  0.65287438  0.37366653  1
  In  In35  1  0.82029945  0.66713612  0.87394004  1
  In  In36  1  -0.00047845  0.17665472  0.36904340  1
  In  In37  1  0.01517736  0.16269667  0.88274864  1
  In  In38  1  0.00852322  0.50612281  0.36255438  1
  In  In39  1  0.00350755  0.49071891  0.88955845  1
  In  In40  1  0.01942559  0.84125903  0.37166211  1
  In  In41  1  0.00160048  0.84846458  0.86767422  1
  In  In42  1  0.33419059  0.15326697  0.37285909  1
  In  In43  1  0.34334738  0.15462071  0.88300901  1
  In  In44  1  0.32917095  0.51361433  0.38926699  1
  In  In45  1  0.32399500  0.50838180  0.88134821  1
  In  In46  1  0.32272823  0.83840204  0.37725426  1
  In  In47  1  0.32849725  0.83657463  0.87102738  1
  In  In48  1  0.66468545  0.16864356  0.36489614  1
  In  In49  1  0.64881735  0.15384671  0.87250488  1
  In  In50  1  0.67074296  0.49437818  0.37544895  1
  In  In51  1  0.66287280  0.50024051  0.87890163  1
  In  In52  1  0.65536259  0.84127841  0.37293823  1
  In  In53  1  0.66414223  0.82149740  0.86900121  1
  In  In54  1  0.17679148  0.00592454  0.11749955  1
  In  In55  1  0.16972378  -0.00562657  0.62812649  1
  In  In56  1  0.15332289  0.32749865  0.11464852  1
  In  In57  1  0.16851014  0.33740404  0.61696457  1
  In  In58  1  0.15744632  0.65862209  0.11759090  1
  In  In59  1  0.18683807  0.67983564  0.61079210  1
  In  In60  1  0.49753539  -0.00032133  0.11905010  1
  In  In61  1  0.49573667  -0.00245500  0.63328441  1
  In  In62  1  0.50878315  0.34235106  0.11941455  1
  In  In63  1  0.50039860  0.34418627  0.62977633  1
  In  In64  1  0.49902838  0.66712827  0.11347498  1
  In  In65  1  0.49886309  0.66415325  0.63603799  1
  In  In66  1  0.81191988  -0.01098958  0.12274838  1
  In  In67  1  0.83887944  -0.00916549  0.64369694  1
  In  In68  1  0.82616393  0.33644142  0.12618017  1
  In  In69  1  0.83185775  0.32135111  0.62902309  1
  In  In70  1  0.85262382  0.67536003  0.12491937  1
  In  In71  1  0.82864966  0.65917660  0.63089083  1
  In  In72  1  -0.00214679  -0.00246155  0.24588848  1
  In  In73  1  0.33831260  0.33389349  0.24594041  1
  In  In74  1  0.67259369  0.67109654  0.24915903  1
  In  In75  1  0.32908214  0.67371358  0.25529797  1
  In  In76  1  0.83955979  0.49788729  0.50055156  1
  In  In77  1  0.48662731  0.83201996  0.50668966  1
  In  In78  1  0.83239254  0.16343775  0.00226727  1
  In  In79  1  0.83669573  0.16796122  0.49580040  1
  In  In80  1  0.33792529  0.32855169  0.75228102  1
  In  In81  1  -0.00318654  0.33171466  0.75836723  1
  In  In82  1  -0.00047919  0.67130526  0.75402975  1
  In  In83  1  0.83206518  0.82878499  -0.00509185  1
  In  In84  1  0.83946236  0.83325181  0.50321354  1
  In  In85  1  0.49452029  0.17031836  0.50706881  1
  Cu  Cu86  1  0.16667551  0.16479410  0.24329459  1
  Cu  Cu87  1  0.66535168  0.66131449  -0.00364203  1
  Cu  Cu88  1  0.50320972  0.50209886  0.24753566  1
  Cu  Cu89  1  0.33528579  0.33366188  0.00292548  1
  Cu  Cu90  1  0.15638019  0.49755460  0.24352779  1
  Cu  Cu91  1  0.49980186  0.16116792  0.75644524  1
  Cu  Cu92  1  0.50478164  0.16431790  0.24340300  1
  Cu  Cu93  1  0.82669100  0.17174005  0.75700302  1
  Cu  Cu94  1  0.16912887  0.16060761  0.75343864  1
  Cu  Cu95  1  0.01696449  -0.00386355  0.50479164  1
  Cu  Cu96  1  0.17359976  0.50569487  0.74883269  1
  Cu  Cu97  1  0.50077511  0.49957038  0.75612221  1
  Cu  Cu98  1  0.66716369  0.00639183  0.50451171  1
  Cu  Cu99  1  0.00638305  0.66398232  -0.00131162  1
  Cu  Cu100  1  0.33257786  0.33206704  0.49860167  1
  Cu  Cu101  1  0.01079105  0.66838781  0.49537299  1
  Cu  Cu102  1  0.50318019  0.84732014  0.24209022  1
  Cu  Cu103  1  0.66700963  0.33249853  -0.00027147  1
  Cu  Cu104  1  0.33163035  0.67230165  -0.00587907  1
  Cu  Cu105  1  0.49530165  0.82806421  0.75713588  1
  Cu  Cu106  1  0.16743706  0.83209639  0.24950020  1
  Cu  Cu107  1  0.82298117  0.50313212  0.75804902  1
  Cu  Cu108  1  0.33111208  -0.00357807  -0.00488607  1
  Cu  Cu109  1  0.65638409  0.66766917  0.51285678  1
  Cu  Cu110  1  0.82808002  0.16610311  0.24326316  1
  Cu  Cu111  1  0.66368548  0.34409788  0.50077357  1
  Cu  Cu112  1  0.83428500  0.49848999  0.24490735  1
  Cu  Cu113  1  0.00761518  0.33395466  0.49172308  1
  Cu  Cu114  1  0.00353095  -0.00171645  -0.00372620  1
  Se  Se115  1  0.08638553  0.08225434  0.04903314  1
  Se  Se116  1  0.09433209  0.08624023  0.55622427  1
  Se  Se117  1  0.09716675  0.43517774  0.05400004  1
  Se  Se118  1  0.08280019  0.41916250  0.54937918  1
  Se  Se119  1  0.08291430  0.75383804  0.05151125  1
  Se  Se120  1  0.09084208  0.75544182  0.54731281  1
  Se  Se121  1  0.41141654  0.08157477  0.05092308  1
  Se  Se122  1  0.40839839  0.06935513  0.55671511  1
  Se  Se123  1  0.41945375  0.41996724  0.05216755  1
  Se  Se124  1  0.42002854  0.41048016  0.55239797  1
  Se  Se125  1  0.41774414  0.75284069  0.04779586  1
  Se  Se126  1  0.40577228  0.74822651  0.57301914  1
  Se  Se127  1  0.73374494  0.07009302  0.04950842  1
  Se  Se128  1  0.75454904  0.07880230  0.56306115  1
  Se  Se129  1  0.75054276  0.41680079  0.05158526  1
  Se  Se130  1  0.74738603  0.41546958  0.56452565  1
  Se  Se131  1  0.74324883  0.74150419  0.06009919  1
  Se  Se132  1  0.74104526  0.75099925  0.56482058  1
  Se  Se133  1  0.24773920  0.24967599  0.05217898  1
  Se  Se134  1  0.25002759  0.24967811  0.55199021  1
  Se  Se135  1  0.25146770  0.58798493  0.05050632  1
  Se  Se136  1  0.23031293  0.55954621  0.55837193  1
  Se  Se137  1  0.24727322  0.91276892  0.04925803  1
  Se  Se138  1  0.25150616  0.91237324  0.55835997  1
  Se  Se139  1  0.58175173  0.24970465  0.05158213  1
  Se  Se140  1  0.59522632  0.25548150  0.56242421  1
  Se  Se141  1  0.58100799  0.57857115  0.05004186  1
  Se  Se142  1  0.57666530  0.58022811  0.56252030  1
  Se  Se143  1  0.56841548  0.90587014  0.05047125  1
  Se  Se144  1  0.58964597  0.92068748  0.56056323  1
  Se  Se145  1  0.92145254  0.25398309  0.05992516  1
  Se  Se146  1  0.92935626  0.25702259  0.55657596  1
  Se  Se147  1  0.91779304  0.58665158  0.05211488  1
  Se  Se148  1  0.92896702  0.59389958  0.55848643  1
  Se  Se149  1  0.92005584  0.92246649  0.05753183  1
  Se  Se150  1  0.92627403  0.92484461  0.56335165  1
  Se  Se151  1  0.08748152  0.24680714  0.44008732  1
  Se  Se152  1  0.07458669  0.25501943  0.95403990  1
  Se  Se153  1  0.08433360  0.57864543  0.44037394  1
  Se  Se154  1  0.09167043  0.58347995  0.94468968  1
  Se  Se155  1  0.09508340  0.91066526  0.44956797  1
  Se  Se156  1  0.08575598  0.91423742  0.94358198  1
  Se  Se157  1  0.41552689  0.25786965  0.43579509  1
  Se  Se158  1  0.41629333  0.24739925  0.94998670  1
  Se  Se159  1  0.42013662  0.58370801  0.45754141  1
  Se  Se160  1  0.41677428  0.58286350  0.94793840  1
  Se  Se161  1  0.41402976  0.92883697  0.43947070  1
  Se  Se162  1  0.41484962  0.91189454  0.94365926  1
  Se  Se163  1  0.74094921  0.26076840  0.44029401  1
  Se  Se164  1  0.74255421  0.24929304  0.93803754  1
  Se  Se165  1  0.73986258  0.59263129  0.45001710  1
  Se  Se166  1  0.75341164  0.57952504  0.94707711  1
  Se  Se167  1  0.74675277  0.92603882  0.44345217  1
  Se  Se168  1  0.74085859  0.92002987  0.93944428  1
  Se  Se169  1  0.24973399  0.09238649  0.44856872  1
  Se  Se170  1  0.24492230  0.08305765  0.94614240  1
  Se  Se171  1  0.24860923  0.41478590  0.44478438  1
  Se  Se172  1  0.25105671  0.41630329  0.94906292  1
  Se  Se173  1  0.27708076  0.72585506  0.43742429  1
  Se  Se174  1  0.24624453  0.75443020  0.94256739  1
  Se  Se175  1  0.58820880  0.08401092  0.44255540  1
  Se  Se176  1  0.56735102  0.08991555  0.94874843  1
  Se  Se177  1  0.58081462  0.42564161  0.44718175  1
  Se  Se178  1  0.58098148  0.41666351  0.94818746  1
  Se  Se179  1  0.58597583  0.74713645  0.44566559  1
  Se  Se180  1  0.58468529  0.74873891  0.94508704  1
  Se  Se181  1  0.93366312  0.07343054  0.44341062  1
  Se  Se182  1  0.91468447  0.07023765  0.93670568  1
  Se  Se183  1  0.92005643  0.40833615  0.43341149  1
  Se  Se184  1  0.91953303  0.41480359  0.95862183  1
  Se  Se185  1  0.92492785  0.74528181  0.43739168  1
  Se  Se186  1  0.92761136  0.74295775  0.93484885  1
  Se  Se187  1  0.24686875  0.24463588  0.30547463  1
  Se  Se188  1  0.24509985  0.24380202  0.81401359  1
  Se  Se189  1  0.24116505  0.57221065  0.30585571  1
  Se  Se190  1  0.25586452  0.58730521  0.80266084  1
  Se  Se191  1  0.24715330  0.91839777  0.30302521  1
  Se  Se192  1  0.26028878  0.92898503  0.80071250  1
  Se  Se193  1  0.58085967  0.25290049  0.29913873  1
  Se  Se194  1  0.58230937  0.25102683  0.80290768  1
  Se  Se195  1  0.57613558  0.58572690  0.31141913  1
  Se  Se196  1  0.58368948  0.58477852  0.80872657  1
  Se  Se197  1  0.59224581  0.92476854  0.29576585  1
  Se  Se198  1  0.58002454  0.91313113  0.80763397  1
  Se  Se199  1  0.91631297  0.24693146  0.29435523  1
  Se  Se200  1  0.90883808  0.24360790  0.82012227  1
  Se  Se201  1  0.91607764  0.58370815  0.29764374  1
  Se  Se202  1  0.91709602  0.57211988  0.81436593  1
  Se  Se203  1  0.91113184  0.91052488  0.31103628  1
  Se  Se204  1  0.92041093  0.91720001  0.79282776  1
  Se  Se205  1  0.08915471  0.08443848  0.30754343  1
  Se  Se206  1  0.08194502  0.08123799  0.80624611  1
  Se  Se207  1  0.07832501  0.40868104  0.29674006  1
  Se  Se208  1  0.09462944  0.42399959  0.80927825  1
  Se  Se209  1  0.08538879  0.74705440  0.30171691  1
  Se  Se210  1  0.09555188  0.76338542  0.80410050  1
  Se  Se211  1  0.42011468  0.08502121  0.29911433  1
  Se  Se212  1  0.41348484  0.07785789  0.80487545  1
  Se  Se213  1  0.41627198  0.43131289  0.31007792  1
  Se  Se214  1  0.42084593  0.41871545  0.81676554  1
  Se  Se215  1  0.42751265  0.76701519  0.30698365  1
  Se  Se216  1  0.41057080  0.74364018  0.80703593  1
  Se  Se217  1  0.74773945  0.08269646  0.29914777  1
  Se  Se218  1  0.74434075  0.08336690  0.80551442  1
  Se  Se219  1  0.74644212  0.41981332  0.29927184  1
  Se  Se220  1  0.74594734  0.41402457  0.80998532  1
  Se  Se221  1  0.75639451  0.75688954  0.31689367  1
  Se  Se222  1  0.76335010  0.75884082  0.80140692  1
  Se  Se223  1  0.25186867  0.07850216  0.19663688  1
  Se  Se224  1  0.25259777  0.07905271  0.69933863  1
  Se  Se225  1  0.24527189  0.42191439  0.18717293  1
  Se  Se226  1  0.24997647  0.41892964  0.69088837  1
  Se  Se227  1  0.24607442  0.75483269  0.18509048  1
  Se  Se228  1  0.24510420  0.73768748  0.70062086  1
  Se  Se229  1  0.58510405  0.07941284  0.18882364  1
  Se  Se230  1  0.58249687  0.07778230  0.70034468  1
  Se  Se231  1  0.58509014  0.41622923  0.19758199  1
  Se  Se232  1  0.58383403  0.41338708  0.70460057  1
  Se  Se233  1  0.57634009  0.75387830  0.18847971  1
  Se  Se234  1  0.58217349  0.74504897  0.70518615  1
  Se  Se235  1  0.90650053  0.08470483  0.18219477  1
  Se  Se236  1  0.91281163  0.09588562  0.69898208  1
  Se  Se237  1  0.91726778  0.41574965  0.19131567  1
  Se  Se238  1  0.90500654  0.42444966  0.69658436  1
  Se  Se239  1  0.91502116  0.75415588  0.20433325  1
  Se  Se240  1  0.91238997  0.75727099  0.68728702  1
  Se  Se241  1  0.08284609  0.25038065  0.19435164  1
  Se  Se242  1  0.09258050  0.24946770  0.69518100  1
  Se  Se243  1  0.07706519  0.58811416  0.19402481  1
  Se  Se244  1  0.08642170  0.58087005  0.69107315  1
  Se  Se245  1  0.08945093  0.91076061  0.18488311  1
  Se  Se246  1  0.07081705  0.93248383  0.69704594  1
  Se  Se247  1  0.42284129  0.24344944  0.18298990  1
  Se  Se248  1  0.42325424  0.23655210  0.68802233  1
  Se  Se249  1  0.42021201  0.58415485  0.19225752  1
  Se  Se250  1  0.41328377  0.57489390  0.69962287  1
  Se  Se251  1  0.41092844  0.92420920  0.19288503  1
  Se  Se252  1  0.41642237  0.91479832  0.70270869  1
  Se  Se253  1  0.74335685  0.25107035  0.19270182  1
  Se  Se254  1  0.74554604  0.25525571  0.70238376  1
  Se  Se255  1  0.75418576  0.57956906  0.18462019  1
  Se  Se256  1  0.74442663  0.58965355  0.70439166  1
  Se  Se257  1  0.75957289  0.89694594  0.19758821  1
  Se  Se258  1  0.74074734  0.92545013  0.70704727  1
