# generated using pymatgen
data_In86Cu29Se144
_symmetry_space_group_name_H-M   'P 1'
_cell_length_a   17.59123628
_cell_length_b   17.58963267
_cell_length_c   23.44286039
_cell_angle_alpha   90.00908171
_cell_angle_beta   89.98261003
_cell_angle_gamma   89.97769347
_symmetry_Int_Tables_number   1
_chemical_formula_structural   In86Cu29Se144
_chemical_formula_sum   'In86 Cu29 Se144'
_cell_volume   7253.76822803
_cell_formula_units_Z   1
loop_
 _symmetry_equiv_pos_site_id
 _symmetry_equiv_pos_as_xyz
  1  'x, y, z'
loop_
 _atom_site_type_symbol
 _atom_site_label
 _atom_site_symmetry_multiplicity
 _atom_site_fract_x
 _atom_site_fract_y
 _atom_site_fract_z
 _atom_site_occupancy
  In  In0  1  -0.01075409  0.17258816  0.13025991  1
  In  In1  1  0.00226921  0.17308633  0.60656480  1
  In  In2  1  -0.00905416  0.49999615  0.14374539  1
  In  In3  1  -0.00764680  0.49019147  0.62083196  1
  In  In4  1  -0.00499467  0.84319602  0.12332208  1
  In  In5  1  0.00177805  0.83963430  0.62000148  1
  In  In6  1  0.34750303  0.15266022  0.13391048  1
  In  In7  1  0.34063461  0.17432711  0.61562090  1
  In  In8  1  0.34020256  0.49034343  0.13425875  1
  In  In9  1  0.34326682  0.50398401  0.61914539  1
  In  In10  1  0.32087673  0.84747761  0.13070824  1
  In  In11  1  0.32764709  0.81906333  0.62753091  1
  In  In12  1  0.66849211  0.16345087  0.12951378  1
  In  In13  1  0.66731526  0.16396198  0.61361612  1
  In  In14  1  0.66055251  0.50821920  0.13862623  1
  In  In15  1  0.65759872  0.50985139  0.61877408  1
  In  In16  1  0.67242723  0.82996029  0.13110810  1
  In  In17  1  0.67116573  0.84180813  0.61168904  1
  In  In18  1  0.17539117  0.01409946  0.36683685  1
  In  In19  1  0.16453658  -0.01059530  0.88666033  1
  In  In20  1  0.15378883  0.31272293  0.36951995  1
  In  In21  1  0.16924461  0.34337444  0.87210492  1
  In  In22  1  0.16408557  0.66306817  0.36789204  1
  In  In23  1  0.17612174  0.66703981  0.87782612  1
  In  In24  1  0.50014241  -0.00042287  0.37123361  1
  In  In25  1  0.50106042  0.00986258  0.87962096  1
  In  In26  1  0.50081426  0.33261267  0.37218065  1
  In  In27  1  0.50583780  0.33088304  0.88721342  1
  In  In28  1  0.50347703  0.67027271  0.37011032  1
  In  In29  1  0.48483797  0.66953103  0.87976988  1
  In  In30  1  0.83181230  -0.00144457  0.37027259  1
  In  In31  1  0.82909706  0.00892491  0.90667760  1
  In  In32  1  0.82096794  0.32864467  0.36252846  1
  In  In33  1  0.84173340  0.31700657  0.87953339  1
  In  In34  1  0.83921571  0.67239250  0.36256385  1
  In  In35  1  0.84134025  0.67392643  0.87852886  1
  In  In36  1  -0.00002539  0.16428424  0.37437211  1
  In  In37  1  -0.00404568  0.16332913  0.87763990  1
  In  In38  1  -0.02031275  0.48758278  0.35409161  1
  In  In39  1  0.01403241  0.49540701  0.87529843  1
  In  In40  1  -0.01064624  0.82643598  0.36742929  1
  In  In41  1  -0.00688051  0.84464908  0.89501349  1
  In  In42  1  0.33445382  0.16722652  0.37198548  1
  In  In43  1  0.33812859  0.17773110  0.87698019  1
  In  In44  1  0.34326660  0.50661100  0.36884156  1
  In  In45  1  0.33201115  0.50845435  0.87977514  1
  In  In46  1  0.34364252  0.84531470  0.36482328  1
  In  In47  1  0.33348274  0.81808068  0.87523968  1
  In  In48  1  0.66398010  0.16510484  0.37099798  1
  In  In49  1  0.66760143  0.16527667  0.88872643  1
  In  In50  1  0.65996132  0.48959842  0.36056776  1
  In  In51  1  0.66320940  0.48559100  0.88366174  1
  In  In52  1  0.66620264  0.83656946  0.36909142  1
  In  In53  1  0.67302009  0.84685851  0.88360504  1
  In  In54  1  0.17548790  -0.01054651  0.12608823  1
  In  In55  1  0.15584172  0.00036887  0.62589360  1
  In  In56  1  0.16082674  0.33926000  0.13482475  1
  In  In57  1  0.15948388  0.32114767  0.61699449  1
  In  In58  1  0.15620820  0.67961435  0.13390892  1
  In  In59  1  0.18013018  0.67988995  0.62323441  1
  In  In60  1  0.49227639  0.00885419  0.12921291  1
  In  In61  1  0.50715062  0.00376352  0.61689510  1
  In  In62  1  0.50255643  0.33007217  0.13056798  1
  In  In63  1  0.49544737  0.33478262  0.61255203  1
  In  In64  1  0.50713630  0.65955777  0.13285367  1
  In  In65  1  0.49211993  0.66045280  0.61694155  1
  In  In66  1  0.82813780  0.00436211  0.12589046  1
  In  In67  1  0.83729923  0.00117422  0.61046929  1
  In  In68  1  0.84031814  0.32114764  0.13940943  1
  In  In69  1  0.84303036  0.32800910  0.62228065  1
  In  In70  1  0.82029799  0.67125189  0.14344522  1
  In  In71  1  0.82445546  0.66917361  0.61793548  1
  In  In72  1  -0.00041738  -0.00197965  0.75357643  1
  In  In73  1  0.66541226  0.32900192  0.75046210  1
  In  In74  1  0.00830287  0.66942124  0.75309317  1
  In  In75  1  0.16749678  0.83771321  0.50106958  1
  In  In76  1  0.66818616  0.00403637  0.75401584  1
  In  In77  1  0.33204119  -0.00255555  0.75800038  1
  In  In78  1  0.82790443  0.50303342  0.01566378  1
  In  In79  1  0.66055697  0.66430293  0.74616577  1
  In  In80  1  0.16466399  0.49364856  0.49411078  1
  In  In81  1  0.17085569  0.50334152  0.00269564  1
  In  In82  1  0.49770653  0.83707823  0.00505803  1
  In  In83  1  0.82426987  0.49237583  0.48111817  1
  In  In84  1  0.16923847  0.16547275  0.00689980  1
  In  In85  1  0.33544873  0.34041297  0.73849394  1
  Cu  Cu86  1  0.49603245  0.82840894  0.74817329  1
  Cu  Cu87  1  0.16285267  0.16608086  0.24486197  1
  Cu  Cu88  1  0.17374490  0.49901472  0.25532984  1
  Cu  Cu89  1  0.16428089  0.83566063  0.25132556  1
  Cu  Cu90  1  0.84313196  0.16302566  0.75358969  1
  Cu  Cu91  1  0.34047657  0.67544579  0.49128158  1
  Cu  Cu92  1  -0.00156776  -0.00294801  0.49166505  1
  Cu  Cu93  1  -0.00187735  0.33473200  0.00459135  1
  Cu  Cu94  1  0.16396494  0.16661634  0.74258962  1
  Cu  Cu95  1  0.84222285  0.48884157  0.74757579  1
  Cu  Cu96  1  0.66583782  0.33472241  0.49059129  1
  Cu  Cu97  1  0.50210065  0.83205609  0.24632545  1
  Cu  Cu98  1  0.33863782  0.00328601  0.49277463  1
  Cu  Cu99  1  0.49695845  0.49905188  0.25157663  1
  Cu  Cu100  1  0.82959466  0.15894518  0.25162406  1
  Cu  Cu101  1  0.33616587  0.33400943  0.49173407  1
  Cu  Cu102  1  0.66052118  0.33072914  0.00973307  1
  Cu  Cu103  1  0.66504541  0.66467217  0.00987030  1
  Cu  Cu104  1  0.66350502  -0.00086219  0.48924408  1
  Cu  Cu105  1  0.83677886  0.83782351  0.75263194  1
  Cu  Cu106  1  0.66288933  0.67405157  0.49361033  1
  Cu  Cu107  1  0.83602631  0.84100531  0.24742188  1
  Cu  Cu108  1  0.15976797  0.50012331  0.74797231  1
  Cu  Cu109  1  -0.00154196  0.67875719  0.00987805  1
  Cu  Cu110  1  -0.00575372  0.66070350  0.48787335  1
  Cu  Cu111  1  0.50174025  0.16865779  0.25212874  1
  Cu  Cu112  1  0.34531927  0.32623787  0.01108623  1
  Cu  Cu113  1  0.33468415  0.66594283  0.00485703  1
  Cu  Cu114  1  0.49304991  0.50509663  0.74940266  1
  Se  Se115  1  0.07895301  0.08150271  0.06746066  1
  Se  Se116  1  0.08376269  0.07543894  0.54924578  1
  Se  Se117  1  0.07314045  0.42049128  0.06139962  1
  Se  Se118  1  0.06892123  0.40402775  0.54847893  1
  Se  Se119  1  0.08744457  0.76060781  0.05729402  1
  Se  Se120  1  0.07453263  0.73603610  0.55249239  1
  Se  Se121  1  0.41173937  0.07865954  0.05262355  1
  Se  Se122  1  0.42104005  0.08604455  0.55079240  1
  Se  Se123  1  0.42292528  0.41812778  0.06004773  1
  Se  Se124  1  0.41586772  0.42152818  0.54575614  1
  Se  Se125  1  0.41333435  0.74546335  0.06733616  1
  Se  Se126  1  0.41634878  0.75624509  0.55290441  1
  Se  Se127  1  0.76424021  0.10350646  0.05799876  1
  Se  Se128  1  0.74781455  0.08033098  0.54596002  1
  Se  Se129  1  0.74241578  0.40720708  0.07125950  1
  Se  Se130  1  0.74226482  0.41308815  0.55816935  1
  Se  Se131  1  0.75157418  0.74351839  0.06146811  1
  Se  Se132  1  0.75165292  0.75227371  0.54641238  1
  Se  Se133  1  0.25447553  0.25682167  0.06889668  1
  Se  Se134  1  0.25394142  0.25423802  0.54964686  1
  Se  Se135  1  0.25426698  0.58949772  0.06841357  1
  Se  Se136  1  0.25543277  0.59345540  0.54888158  1
  Se  Se137  1  0.25448334  0.91917710  0.04929813  1
  Se  Se138  1  0.26027912  0.92756588  0.56055560  1
  Se  Se139  1  0.57978285  0.24323850  0.06024597  1
  Se  Se140  1  0.58502083  0.25318750  0.55011587  1
  Se  Se141  1  0.58339523  0.57759101  0.05879761  1
  Se  Se142  1  0.58078247  0.58718248  0.54600021  1
  Se  Se143  1  0.58775697  0.92186915  0.06579057  1
  Se  Se144  1  0.58066411  0.91717190  0.54625572  1
  Se  Se145  1  0.91259337  0.25439814  0.05625099  1
  Se  Se146  1  0.89646635  0.23698564  0.54773381  1
  Se  Se147  1  0.92333794  0.59359609  0.06886059  1
  Se  Se148  1  0.91411243  0.58187611  0.55033313  1
  Se  Se149  1  0.89814881  0.91062679  0.05650570  1
  Se  Se150  1  0.91925942  0.91055399  0.54693077  1
  Se  Se151  1  0.08472962  0.23850916  0.44781821  1
  Se  Se152  1  0.08403940  0.26288756  0.94343636  1
  Se  Se153  1  0.07135457  0.57635391  0.43151451  1
  Se  Se154  1  0.07394822  0.59568586  0.94808869  1
  Se  Se155  1  0.08256063  0.91889384  0.43264146  1
  Se  Se156  1  0.07506041  0.92990084  0.95888179  1
  Se  Se157  1  0.41939015  0.24853147  0.44177742  1
  Se  Se158  1  0.42289437  0.24365083  0.95227349  1
  Se  Se159  1  0.42110200  0.58686406  0.44165994  1
  Se  Se160  1  0.41707397  0.58050610  0.95269571  1
  Se  Se161  1  0.41950576  0.91546830  0.44361447  1
  Se  Se162  1  0.40871396  0.91964700  0.93806207  1
  Se  Se163  1  0.74839954  0.25049404  0.43955607  1
  Se  Se164  1  0.74787220  0.25729370  0.95089652  1
  Se  Se165  1  0.73905759  0.59308557  0.42987230  1
  Se  Se166  1  0.74460499  0.58921738  0.94248120  1
  Se  Se167  1  0.75054766  0.91486434  0.44112382  1
  Se  Se168  1  0.75463823  0.90653849  0.96116887  1
  Se  Se169  1  0.25165762  0.08609209  0.44471593  1
  Se  Se170  1  0.25925522  0.08259751  0.94072105  1
  Se  Se171  1  0.25412955  0.41020232  0.43053728  1
  Se  Se172  1  0.26317702  0.40455264  0.94908288  1
  Se  Se173  1  0.25269974  0.75072297  0.43510764  1
  Se  Se174  1  0.25080246  0.74792276  0.95162351  1
  Se  Se175  1  0.57919766  0.08565550  0.44158256  1
  Se  Se176  1  0.60243435  0.06058908  0.94709799  1
  Se  Se177  1  0.58338171  0.42091437  0.44012807  1
  Se  Se178  1  0.57964241  0.41839160  0.95760759  1
  Se  Se179  1  0.58068608  0.75713443  0.44019586  1
  Se  Se180  1  0.58962829  0.74309006  0.94282650  1
  Se  Se181  1  0.91358863  0.08029017  0.44154753  1
  Se  Se182  1  0.92532749  0.09497164  0.95650108  1
  Se  Se183  1  0.92177975  0.40013707  0.43519438  1
  Se  Se184  1  0.91929792  0.41977622  0.94503441  1
  Se  Se185  1  0.91062187  0.74943005  0.44234563  1
  Se  Se186  1  0.90828334  0.75294710  0.95524993  1
  Se  Se187  1  0.24872348  0.24598225  0.30064391  1
  Se  Se188  1  0.24482247  0.24760743  0.80137275  1
  Se  Se189  1  0.25642473  0.58845982  0.30227382  1
  Se  Se190  1  0.24342933  0.57556573  0.80628853  1
  Se  Se191  1  0.25023522  0.92072985  0.30072551  1
  Se  Se192  1  0.23958610  0.90540373  0.81094150  1
  Se  Se193  1  0.58646553  0.25389013  0.30217086  1
  Se  Se194  1  0.57928661  0.24129005  0.81354475  1
  Se  Se195  1  0.58289315  0.58582898  0.29918037  1
  Se  Se196  1  0.57805472  0.57446926  0.81341781  1
  Se  Se197  1  0.58193526  0.91804852  0.30015897  1
  Se  Se198  1  0.57460826  0.90720490  0.80887001  1
  Se  Se199  1  0.91320348  0.24291873  0.30379481  1
  Se  Se200  1  0.92584385  0.24961361  0.80367982  1
  Se  Se201  1  0.93528637  0.60312241  0.29731535  1
  Se  Se202  1  0.91292746  0.57461527  0.80948945  1
  Se  Se203  1  0.92106577  0.92251180  0.30034764  1
  Se  Se204  1  0.90512097  0.91927362  0.81765833  1
  Se  Se205  1  0.07973096  0.08335368  0.30023711  1
  Se  Se206  1  0.09607632  0.08732200  0.81035475  1
  Se  Se207  1  0.08780435  0.41316814  0.30336099  1
  Se  Se208  1  0.08132636  0.41192195  0.79961387  1
  Se  Se209  1  0.08233004  0.74964141  0.30256075  1
  Se  Se210  1  0.08070795  0.75925221  0.82221641  1
  Se  Se211  1  0.41665800  0.08360134  0.30298613  1
  Se  Se212  1  0.42499053  0.09584380  0.80527636  1
  Se  Se213  1  0.41476914  0.41195090  0.30207930  1
  Se  Se214  1  0.42053276  0.41996675  0.81194626  1
  Se  Se215  1  0.41730958  0.75001326  0.30021787  1
  Se  Se216  1  0.41450244  0.74297759  0.80017087  1
  Se  Se217  1  0.74278621  0.07711125  0.30269956  1
  Se  Se218  1  0.76402097  0.08681947  0.81635177  1
  Se  Se219  1  0.77080797  0.43905565  0.29802500  1
  Se  Se220  1  0.75889794  0.41783977  0.81127624  1
  Se  Se221  1  0.75079205  0.75535073  0.29855448  1
  Se  Se222  1  0.75152365  0.75584488  0.80711143  1
  Se  Se223  1  0.24876806  0.08037952  0.19623295  1
  Se  Se224  1  0.25038689  0.08793962  0.68740022  1
  Se  Se225  1  0.25299395  0.41179858  0.20177964  1
  Se  Se226  1  0.23806503  0.42708218  0.68117421  1
  Se  Se227  1  0.25131460  0.75307538  0.19910668  1
  Se  Se228  1  0.24712686  0.75011105  0.70308752  1
  Se  Se229  1  0.58240838  0.08217662  0.19854709  1
  Se  Se230  1  0.58091546  0.09240909  0.69208432  1
  Se  Se231  1  0.58252732  0.41408825  0.20136747  1
  Se  Se232  1  0.57455132  0.42420921  0.69104280  1
  Se  Se233  1  0.58885895  0.74625745  0.19898583  1
  Se  Se234  1  0.58062801  0.75915597  0.68386528  1
  Se  Se235  1  0.91666753  0.07965446  0.19797453  1
  Se  Se236  1  0.91470042  0.08443374  0.68695371  1
  Se  Se237  1  0.92032349  0.40605444  0.20727630  1
  Se  Se238  1  0.92345723  0.40588497  0.69555340  1
  Se  Se239  1  0.91982327  0.75501962  0.19575932  1
  Se  Se240  1  0.91068829  0.75412387  0.69077545  1
  Se  Se241  1  0.07693930  0.25274576  0.19786343  1
  Se  Se242  1  0.07736494  0.24308573  0.68805464  1
  Se  Se243  1  0.09029724  0.57992022  0.19937601  1
  Se  Se244  1  0.08665857  0.57954409  0.68224415  1
  Se  Se245  1  0.08293563  0.91786533  0.19478620  1
  Se  Se246  1  0.09104812  0.90188897  0.69718029  1
  Se  Se247  1  0.41510788  0.25065841  0.19959768  1
  Se  Se248  1  0.43095972  0.24516798  0.69130722  1
  Se  Se249  1  0.41433042  0.58479927  0.19951681  1
  Se  Se250  1  0.41220154  0.58788362  0.69454033  1
  Se  Se251  1  0.41626143  0.91823473  0.19755671  1
  Se  Se252  1  0.42274161  0.91618023  0.68926262  1
  Se  Se253  1  0.74440685  0.24837031  0.20383498  1
  Se  Se254  1  0.75698823  0.23735274  0.69283353  1
  Se  Se255  1  0.76606063  0.56189543  0.20542835  1
  Se  Se256  1  0.75965066  0.57113986  0.69203547  1
  Se  Se257  1  0.74652433  0.92228327  0.19803844  1
  Se  Se258  1  0.75825313  0.91528564  0.68980366  1
