# generated using pymatgen
data_In86Cu29Se144
_symmetry_space_group_name_H-M   'P 1'
_cell_length_a   17.56409443
_cell_length_b   17.56609082
_cell_length_c   23.42366160
_cell_angle_alpha   90.01225179
_cell_angle_beta   90.00367015
_cell_angle_gamma   89.99389081
_symmetry_Int_Tables_number   1
_chemical_formula_structural   In86Cu29Se144
_chemical_formula_sum   'In86 Cu29 Se144'
_cell_volume   7226.96013599
_cell_formula_units_Z   1
loop_
 _symmetry_equiv_pos_site_id
 _symmetry_equiv_pos_as_xyz
  1  'x, y, z'
loop_
 _atom_site_type_symbol
 _atom_site_label
 _atom_site_symmetry_multiplicity
 _atom_site_fract_x
 _atom_site_fract_y
 _atom_site_fract_z
 _atom_site_occupancy
  In  In0  1  0.00813930  0.15882165  0.12197816  1
  In  In1  1  -0.00391416  0.16958503  0.61961716  1
  In  In2  1  -0.00337714  0.49879614  0.11849595  1
  In  In3  1  0.01200460  0.49792518  0.62502009  1
  In  In4  1  -0.01153684  0.83965450  0.12297115  1
  In  In5  1  -0.02057005  0.83558206  0.62546543  1
  In  In6  1  0.33671289  0.16666021  0.13069735  1
  In  In7  1  0.33860300  0.15054639  0.63150602  1
  In  In8  1  0.33163209  0.50457283  0.11978062  1
  In  In9  1  0.32955444  0.50689296  0.62137243  1
  In  In10  1  0.35390727  0.81497340  0.13372800  1
  In  In11  1  0.35436403  0.83657218  0.62087434  1
  In  In12  1  0.64373053  0.16950377  0.12151755  1
  In  In13  1  0.66698806  0.16061378  0.62903005  1
  In  In14  1  0.67441573  0.50545845  0.11160244  1
  In  In15  1  0.67084688  0.49792264  0.63782179  1
  In  In16  1  0.66404726  0.83359004  0.12297160  1
  In  In17  1  0.66622543  0.83516425  0.62643159  1
  In  In18  1  0.17384473  -0.00235383  0.36966240  1
  In  In19  1  0.18624476  -0.00271814  0.87592843  1
  In  In20  1  0.18784806  0.33152430  0.37284159  1
  In  In21  1  0.16641649  0.33016622  0.88541159  1
  In  In22  1  0.16730163  0.65682676  0.37222729  1
  In  In23  1  0.15646757  0.66105565  0.87552064  1
  In  In24  1  0.50198573  -0.00069085  0.37770731  1
  In  In25  1  0.50115396  0.00124538  0.87609531  1
  In  In26  1  0.48809219  0.33042784  0.37304440  1
  In  In27  1  0.52044280  0.32130835  0.89857478  1
  In  In28  1  0.50985811  0.67707602  0.36539358  1
  In  In29  1  0.51031780  0.65138046  0.89478037  1
  In  In30  1  0.82604187  0.00905849  0.38624111  1
  In  In31  1  0.80456031  0.01018776  0.86744419  1
  In  In32  1  0.81760157  0.32327863  0.37582936  1
  In  In33  1  0.83340282  0.33953343  0.87208924  1
  In  In34  1  0.83358641  0.67908292  0.37468203  1
  In  In35  1  0.83203235  0.66780827  0.87681415  1
  In  In36  1  -0.00829005  0.15622236  0.37833859  1
  In  In37  1  -0.00320198  0.17895108  0.87366568  1
  In  In38  1  0.00337936  0.51553078  0.37426503  1
  In  In39  1  -0.01239639  0.50340879  0.88408128  1
  In  In40  1  -0.00827766  0.83227362  0.38137622  1
  In  In41  1  -0.00031603  0.81611329  0.87023405  1
  In  In42  1  0.34096533  0.17964466  0.36579042  1
  In  In43  1  0.35132524  0.15153259  0.88788978  1
  In  In44  1  0.32916905  0.48938610  0.36518150  1
  In  In45  1  0.34461880  0.49946214  0.89689413  1
  In  In46  1  0.34984742  0.84848390  0.36210045  1
  In  In47  1  0.34121250  0.84746852  0.87612218  1
  In  In48  1  0.67385001  0.15185445  0.38234952  1
  In  In49  1  0.64781624  0.15544744  0.85641849  1
  In  In50  1  0.65228925  0.49709079  0.36701115  1
  In  In51  1  0.66464154  0.50246188  0.87823544  1
  In  In52  1  0.66299941  0.83435237  0.37637932  1
  In  In53  1  0.66596306  0.83505224  0.87658475  1
  In  In54  1  0.17964707  0.01726760  0.12139576  1
  In  In55  1  0.17278949  0.00922772  0.62851224  1
  In  In56  1  0.17365476  0.33801954  0.12289330  1
  In  In57  1  0.15659760  0.34050949  0.62230726  1
  In  In58  1  0.18366290  0.66285565  0.12218579  1
  In  In59  1  0.16965407  0.65266422  0.62571860  1
  In  In60  1  0.50148960  -0.00065108  0.12652646  1
  In  In61  1  0.50854195  0.00290193  0.62960783  1
  In  In62  1  0.49712539  0.32166418  0.11186152  1
  In  In63  1  0.51712709  0.32330301  0.63559484  1
  In  In64  1  0.49895349  0.67375734  0.11926860  1
  In  In65  1  0.50307759  0.67886338  0.62579673  1
  In  In66  1  0.83155366  -0.01548236  0.12135873  1
  In  In67  1  0.82924834  -0.01073808  0.61781516  1
  In  In68  1  0.81831756  0.34727849  0.11998910  1
  In  In69  1  0.82637619  0.32271887  0.62781021  1
  In  In70  1  0.81045734  0.64974715  0.11372617  1
  In  In71  1  0.82040097  0.67897179  0.63388895  1
  In  In72  1  0.49714633  0.49898831  0.49837814  1
  In  In73  1  0.34224893  0.32914378  0.75502837  1
  In  In74  1  0.16937282  0.83437477  0.00143240  1
  In  In75  1  -0.00309789  -0.00203287  0.74202583  1
  In  In76  1  0.83568892  0.50267204  0.49781513  1
  In  In77  1  0.00409143  -0.00149148  0.25548736  1
  In  In78  1  0.00256752  0.33666664  0.23948335  1
  In  In79  1  0.16553616  0.83128075  0.49083905  1
  In  In80  1  0.82887523  0.16855296  -0.00593748  1
  In  In81  1  -0.00776274  0.33610585  0.74833147  1
  In  In82  1  0.16946776  0.17077575  0.50240400  1
  In  In83  1  -0.00467094  0.67115063  0.25489919  1
  In  In84  1  0.65916394  0.33561087  0.24299220  1
  In  In85  1  0.33906604  0.67029801  0.75544257  1
  Cu  Cu86  1  0.17250166  0.82859011  0.75414905  1
  Cu  Cu87  1  0.66593223  0.31757009  0.50509796  1
  Cu  Cu88  1  0.49451773  0.50530458  0.24163998  1
  Cu  Cu89  1  0.00160912  0.33084841  0.00169451  1
  Cu  Cu90  1  -0.00195243  0.67038952  0.50099480  1
  Cu  Cu91  1  0.67051037  0.67344589  -0.00142331  1
  Cu  Cu92  1  0.50129787  0.16116890  0.24962140  1
  Cu  Cu93  1  0.34031064  -0.00084890  0.49894108  1
  Cu  Cu94  1  0.66036404  0.00077756  -0.00215824  1
  Cu  Cu95  1  0.66135388  -0.00394126  0.50392922  1
  Cu  Cu96  1  0.50557162  0.83403007  0.24739639  1
  Cu  Cu97  1  0.17267002  0.16368534  0.75590772  1
  Cu  Cu98  1  0.83122203  0.51079008  0.75817881  1
  Cu  Cu99  1  0.00201324  0.33798980  0.50089568  1
  Cu  Cu100  1  0.66649173  0.67163254  0.50021177  1
  Cu  Cu101  1  -0.00210614  -0.00273083  -0.00158554  1
  Cu  Cu102  1  0.82784992  0.16109879  0.25255494  1
  Cu  Cu103  1  0.83126003  0.83122337  0.75326833  1
  Cu  Cu104  1  0.17470765  0.83769817  0.24542939  1
  Cu  Cu105  1  0.32887789  0.33018777  0.00508100  1
  Cu  Cu106  1  0.33723974  0.33422073  0.49641557  1
  Cu  Cu107  1  -0.00256430  0.66491088  -0.00156371  1
  Cu  Cu108  1  0.50444184  0.50302478  0.76150980  1
  Cu  Cu109  1  0.17117220  0.50006591  0.24628164  1
  Cu  Cu110  1  0.34004298  0.00313483  0.00417853  1
  Cu  Cu111  1  0.81916603  0.83145138  0.24925110  1
  Cu  Cu112  1  0.16463629  0.50238804  0.75389450  1
  Cu  Cu113  1  0.33310706  0.66426582  0.49629961  1
  Cu  Cu114  1  0.50596397  0.83682033  0.75016826  1
  Se  Se115  1  0.08418245  0.07854991  0.04899238  1
  Se  Se116  1  0.07822666  0.07423481  0.55606747  1
  Se  Se117  1  0.08370196  0.41513817  0.05511393  1
  Se  Se118  1  0.08827802  0.42407490  0.54717429  1
  Se  Se119  1  0.07625148  0.74384736  0.06202684  1
  Se  Se120  1  0.08262619  0.74706905  0.56174159  1
  Se  Se121  1  0.42178817  0.08794503  0.05883897  1
  Se  Se122  1  0.42034082  0.08030216  0.55714883  1
  Se  Se123  1  0.41444837  0.41667634  0.05310670  1
  Se  Se124  1  0.41583395  0.40695838  0.56481019  1
  Se  Se125  1  0.41214491  0.74864665  0.04667614  1
  Se  Se126  1  0.41908653  0.74445785  0.54902744  1
  Se  Se127  1  0.74337761  0.07961211  0.05951639  1
  Se  Se128  1  0.74647758  0.08048139  0.55560006  1
  Se  Se129  1  0.73980923  0.40966584  0.04188830  1
  Se  Se130  1  0.74138303  0.41402739  0.55623638  1
  Se  Se131  1  0.75397559  0.75851107  0.05209132  1
  Se  Se132  1  0.75016195  0.75311321  0.55452082  1
  Se  Se133  1  0.24922087  0.24333669  0.05871257  1
  Se  Se134  1  0.26112356  0.25802048  0.56552161  1
  Se  Se135  1  0.24331145  0.57673881  0.04726016  1
  Se  Se136  1  0.24871364  0.58153586  0.54789764  1
  Se  Se137  1  0.26249043  0.91709693  0.06373423  1
  Se  Se138  1  0.25424886  0.92036602  0.55635190  1
  Se  Se139  1  0.60346981  0.26641467  0.04666745  1
  Se  Se140  1  0.57854941  0.23985624  0.55754115  1
  Se  Se141  1  0.58450596  0.59082197  0.05061787  1
  Se  Se142  1  0.59145177  0.58434879  0.56000436  1
  Se  Se143  1  0.58054952  0.91688085  0.05414498  1
  Se  Se144  1  0.57829056  0.91214775  0.55732412  1
  Se  Se145  1  0.91846124  0.25341912  0.06239189  1
  Se  Se146  1  0.91695217  0.25797966  0.55389680  1
  Se  Se147  1  0.91293212  0.58118915  0.05129717  1
  Se  Se148  1  0.91940189  0.59054749  0.56394139  1
  Se  Se149  1  0.91197115  0.91241765  0.04542335  1
  Se  Se150  1  0.92282445  0.92053350  0.54878067  1
  Se  Se151  1  0.08068522  0.25875365  0.43738366  1
  Se  Se152  1  0.08150765  0.24309949  0.94999148  1
  Se  Se153  1  0.08370816  0.58844247  0.44879857  1
  Se  Se154  1  0.08249911  0.57914625  0.94906053  1
  Se  Se155  1  0.07567389  0.93157759  0.44035465  1
  Se  Se156  1  0.07892516  0.91932182  0.93524798  1
  Se  Se157  1  0.41825164  0.24561628  0.44748517  1
  Se  Se158  1  0.41791016  0.24734673  0.95585295  1
  Se  Se159  1  0.41336122  0.58635854  0.43294712  1
  Se  Se160  1  0.39691138  0.60952969  0.95879806  1
  Se  Se161  1  0.42023488  0.91156609  0.44671110  1
  Se  Se162  1  0.42268672  0.91931056  0.95073896  1
  Se  Se163  1  0.75371463  0.23954332  0.45164902  1
  Se  Se164  1  0.74088788  0.24590748  0.92714299  1
  Se  Se165  1  0.73780763  0.58539518  0.43810823  1
  Se  Se166  1  0.75157311  0.58437570  0.94660540  1
  Se  Se167  1  0.74566924  0.91507887  0.44740893  1
  Se  Se168  1  0.74922023  0.92236478  0.94514005  1
  Se  Se169  1  0.25870562  0.08118499  0.44108473  1
  Se  Se170  1  0.24968564  0.08254983  0.95234579  1
  Se  Se171  1  0.25362393  0.41983804  0.44672054  1
  Se  Se172  1  0.24688302  0.41562058  0.95233815  1
  Se  Se173  1  0.26161083  0.74763927  0.43185087  1
  Se  Se174  1  0.25203798  0.74930475  0.93435836  1
  Se  Se175  1  0.57994165  0.08255628  0.45025131  1
  Se  Se176  1  0.58372897  0.08895956  0.94359569  1
  Se  Se177  1  0.59017678  0.40192879  0.44351906  1
  Se  Se178  1  0.55771649  0.44807147  0.94434120  1
  Se  Se179  1  0.57920819  0.74996076  0.44625082  1
  Se  Se180  1  0.58349679  0.75775900  0.94954759  1
  Se  Se181  1  0.91524826  0.08535508  0.45316443  1
  Se  Se182  1  0.91817202  0.07461907  0.93398079  1
  Se  Se183  1  0.92190166  0.41063552  0.43436928  1
  Se  Se184  1  0.91296298  0.41011040  0.94938745  1
  Se  Se185  1  0.91045505  0.75205980  0.45189440  1
  Se  Se186  1  0.91647765  0.75163540  0.94684401  1
  Se  Se187  1  0.25537345  0.25526834  0.29620623  1
  Se  Se188  1  0.25015512  0.24301384  0.81691051  1
  Se  Se189  1  0.25285517  0.58472660  0.30048064  1
  Se  Se190  1  0.25347342  0.57297085  0.81343524  1
  Se  Se191  1  0.25592468  0.92429986  0.29693199  1
  Se  Se192  1  0.25660274  0.91598689  0.80009213  1
  Se  Se193  1  0.58310953  0.24186793  0.31129462  1
  Se  Se194  1  0.57170689  0.26295319  0.80625116  1
  Se  Se195  1  0.58116135  0.58357663  0.29663290  1
  Se  Se196  1  0.58484861  0.59339815  0.80968740  1
  Se  Se197  1  0.58332720  0.91784583  0.30593488  1
  Se  Se198  1  0.58680938  0.92000689  0.80643700  1
  Se  Se199  1  0.91160317  0.24545701  0.30507112  1
  Se  Se200  1  0.90069710  0.23927064  0.79986996  1
  Se  Se201  1  0.90108245  0.57558406  0.30643773  1
  Se  Se202  1  0.92209332  0.58799945  0.80797640  1
  Se  Se203  1  0.90529207  0.90932586  0.30870346  1
  Se  Se204  1  0.91154488  0.91529926  0.81160843  1
  Se  Se205  1  0.09320644  0.09785233  0.30766038  1
  Se  Se206  1  0.08494584  0.08395710  0.81096989  1
  Se  Se207  1  0.08824704  0.42388443  0.30822806  1
  Se  Se208  1  0.08565281  0.41819631  0.81203335  1
  Se  Se209  1  0.09154344  0.76476245  0.30952644  1
  Se  Se210  1  0.08607857  0.74274139  0.79892079  1
  Se  Se211  1  0.41890446  0.08142752  0.30690241  1
  Se  Se212  1  0.41216957  0.07720905  0.80671926  1
  Se  Se213  1  0.42092213  0.41514066  0.29776748  1
  Se  Se214  1  0.42117763  0.42344331  0.81812281  1
  Se  Se215  1  0.41718240  0.74889034  0.29721627  1
  Se  Se216  1  0.43173871  0.75517063  0.81444067  1
  Se  Se217  1  0.74838834  0.07529150  0.30529351  1
  Se  Se218  1  0.73526610  0.08002237  0.78640770  1
  Se  Se219  1  0.75457271  0.42065590  0.30514157  1
  Se  Se220  1  0.74863573  0.42278338  0.80636680  1
  Se  Se221  1  0.74147849  0.74621633  0.30529898  1
  Se  Se222  1  0.74809743  0.74955089  0.80789745  1
  Se  Se223  1  0.25596114  0.08199517  0.19997648  1
  Se  Se224  1  0.25421616  0.07741521  0.70461258  1
  Se  Se225  1  0.25524488  0.41844289  0.19320296  1
  Se  Se226  1  0.24528250  0.42081071  0.69478767  1
  Se  Se227  1  0.25273356  0.74553991  0.19743565  1
  Se  Se228  1  0.25221742  0.75479775  0.68631742  1
  Se  Se229  1  0.58748738  0.07990915  0.19774209  1
  Se  Se230  1  0.60134793  0.06838739  0.70236613  1
  Se  Se231  1  0.57375642  0.42464189  0.18078071  1
  Se  Se232  1  0.58249487  0.41893229  0.70375525  1
  Se  Se233  1  0.58486720  0.74816889  0.19254702  1
  Se  Se234  1  0.58743089  0.74944823  0.69844215  1
  Se  Se235  1  0.91059889  0.08413572  0.19079428  1
  Se  Se236  1  0.90676583  0.09150044  0.68765712  1
  Se  Se237  1  0.90304775  0.42836745  0.19245165  1
  Se  Se238  1  0.90407441  0.43118861  0.68935130  1
  Se  Se239  1  0.90430163  0.75340365  0.19027850  1
  Se  Se240  1  0.91756023  0.74838313  0.70135498  1
  Se  Se241  1  0.09410309  0.23917763  0.19140844  1
  Se  Se242  1  0.09177561  0.24138791  0.69449341  1
  Se  Se243  1  0.08409930  0.58116973  0.19165377  1
  Se  Se244  1  0.08218526  0.58379034  0.69914578  1
  Se  Se245  1  0.09015757  0.91350199  0.18654517  1
  Se  Se246  1  0.09306807  0.90454237  0.68773785  1
  Se  Se247  1  0.42710333  0.25141901  0.19454498  1
  Se  Se248  1  0.42912858  0.23298122  0.69949242  1
  Se  Se249  1  0.41356733  0.58993785  0.18824699  1
  Se  Se250  1  0.42633755  0.57511486  0.69290890  1
  Se  Se251  1  0.41858791  0.91759819  0.19692398  1
  Se  Se252  1  0.42029477  0.91842087  0.69718345  1
  Se  Se253  1  0.75462263  0.24166878  0.18767959  1
  Se  Se254  1  0.72846691  0.26529353  0.69450307  1
  Se  Se255  1  0.74220232  0.57848865  0.19329834  1
  Se  Se256  1  0.74547213  0.59057643  0.70286305  1
  Se  Se257  1  0.74347125  0.91991959  0.19493457  1
  Se  Se258  1  0.75379578  0.91473806  0.69512347  1
