# generated using pymatgen
data_In86Cu29Se144
_symmetry_space_group_name_H-M   'P 1'
_cell_length_a   17.57489457
_cell_length_b   17.57533943
_cell_length_c   23.43164107
_cell_angle_alpha   90.03712137
_cell_angle_beta   90.03228865
_cell_angle_gamma   90.01005865
_symmetry_Int_Tables_number   1
_chemical_formula_structural   In86Cu29Se144
_chemical_formula_sum   'In86 Cu29 Se144'
_cell_volume   7237.67352331
_cell_formula_units_Z   1
loop_
 _symmetry_equiv_pos_site_id
 _symmetry_equiv_pos_as_xyz
  1  'x, y, z'
loop_
 _atom_site_type_symbol
 _atom_site_label
 _atom_site_symmetry_multiplicity
 _atom_site_fract_x
 _atom_site_fract_y
 _atom_site_fract_z
 _atom_site_occupancy
  In  In0  1  -0.00594536  0.17538995  0.12946980  1
  In  In1  1  0.00526552  0.16328934  0.62360123  1
  In  In2  1  -0.00200850  0.49264072  0.12280625  1
  In  In3  1  0.00630676  0.50123021  0.63332479  1
  In  In4  1  0.01470784  0.83021358  0.12222356  1
  In  In5  1  0.00901080  0.82797539  0.63812132  1
  In  In6  1  0.31630929  0.16305244  0.12631328  1
  In  In7  1  0.31814579  0.18079394  0.63329560  1
  In  In8  1  0.33535284  0.50578999  0.11267125  1
  In  In9  1  0.32476476  0.49117216  0.62461679  1
  In  In10  1  0.33545979  0.83442852  0.12138844  1
  In  In11  1  0.34433030  0.82699746  0.62806026  1
  In  In12  1  0.68159078  0.16678065  0.12394536  1
  In  In13  1  0.66032687  0.16596738  0.63019790  1
  In  In14  1  0.66260287  0.51027230  0.13348194  1
  In  In15  1  0.67204203  0.51224497  0.62478484  1
  In  In16  1  0.65212383  0.83403528  0.12396617  1
  In  In17  1  0.66567806  0.83143179  0.62932796  1
  In  In18  1  0.16813179  0.00810303  0.37546779  1
  In  In19  1  0.16260787  -0.01126295  0.86294230  1
  In  In20  1  0.15035901  0.33943417  0.38727334  1
  In  In21  1  0.17478730  0.35429890  0.85126443  1
  In  In22  1  0.15200765  0.64674433  0.38474066  1
  In  In23  1  0.16357253  0.67348131  0.87117745  1
  In  In24  1  0.48763752  0.00418469  0.37747006  1
  In  In25  1  0.48513712  -0.01299240  0.87271777  1
  In  In26  1  0.51264912  0.33406911  0.37401731  1
  In  In27  1  0.50166422  0.35520564  0.86633755  1
  In  In28  1  0.50981868  0.65695349  0.38527440  1
  In  In29  1  0.50913374  0.65517641  0.87765175  1
  In  In30  1  0.84678754  -0.01773928  0.37278544  1
  In  In31  1  0.84473210  0.01263167  0.87101055  1
  In  In32  1  0.84383138  0.34434808  0.37000302  1
  In  In33  1  0.83863718  0.32851108  0.87707240  1
  In  In34  1  0.82534793  0.66787972  0.37490533  1
  In  In35  1  0.82945845  0.66488611  0.86090512  1
  In  In36  1  0.00400726  0.17381568  0.37354775  1
  In  In37  1  -0.00015956  0.16467029  0.87338281  1
  In  In38  1  0.00561079  0.48420809  0.39376873  1
  In  In39  1  0.01422653  0.52333456  0.84425174  1
  In  In40  1  -0.01420791  0.83795895  0.37296117  1
  In  In41  1  0.01350531  0.83831287  0.85742915  1
  In  In42  1  0.32936142  0.15239654  0.37359540  1
  In  In43  1  0.32734995  0.16411050  0.86760836  1
  In  In44  1  0.33275460  0.49971988  0.38312000  1
  In  In45  1  0.34117368  0.49699886  0.87014217  1
  In  In46  1  0.32984838  0.84799576  0.37999580  1
  In  In47  1  0.32438396  0.83926536  0.87892625  1
  In  In48  1  0.65576162  0.17043291  0.37261045  1
  In  In49  1  0.68729906  0.17090572  0.87770859  1
  In  In50  1  0.66909058  0.50208229  0.37652102  1
  In  In51  1  0.65853316  0.49976767  0.86704432  1
  In  In52  1  0.67398845  0.81731246  0.37488743  1
  In  In53  1  0.65013863  0.82480543  0.87485102  1
  In  In54  1  0.17264202  -0.00513371  0.13101384  1
  In  In55  1  0.15592225  0.00576656  0.63647189  1
  In  In56  1  0.15536229  0.33198152  0.12217908  1
  In  In57  1  0.16309614  0.34407737  0.62586556  1
  In  In58  1  0.16524910  0.66759426  0.11039915  1
  In  In59  1  0.16329451  0.65604308  0.63036686  1
  In  In60  1  0.49773367  -0.01691867  0.12418693  1
  In  In61  1  0.50544851  -0.00623050  0.63402436  1
  In  In62  1  0.49909425  0.35260462  0.12367883  1
  In  In63  1  0.48640551  0.33630761  0.62738816  1
  In  In64  1  0.50555234  0.67336724  0.12132914  1
  In  In65  1  0.50382661  0.67280267  0.62014258  1
  In  In66  1  0.83255723  0.01442071  0.12194283  1
  In  In67  1  0.84001676  -0.01101704  0.63378245  1
  In  In68  1  0.84215301  0.32707489  0.13184731  1
  In  In69  1  0.85649272  0.36140166  0.61862694  1
  In  In70  1  0.83181021  0.65290541  0.12748516  1
  In  In71  1  0.85375771  0.62655067  0.66526682  1
  In  In72  1  0.32839831  0.32896865  0.24693963  1
  In  In73  1  0.83360980  0.82134242  0.50160446  1
  In  In74  1  0.16182531  0.16891387  -0.00318951  1
  In  In75  1  0.33780548  0.67344837  0.24862468  1
  In  In76  1  0.67002780  -0.00190056  0.24830315  1
  In  In77  1  0.83530956  0.17355822  0.50552645  1
  In  In78  1  0.83376837  0.83362136  -0.00543134  1
  In  In79  1  0.67320038  0.33052422  0.74664775  1
  In  In80  1  0.50181306  0.16743337  -0.00371419  1
  In  In81  1  0.17052705  0.82314645  0.51105563  1
  In  In82  1  0.83554929  0.49312821  -0.00364001  1
  In  In83  1  0.49068064  0.17266077  0.50066547  1
  In  In84  1  0.33182249  0.66868057  0.74527575  1
  In  In85  1  -0.00581604  0.66840347  0.25317428  1
  Cu  Cu86  1  0.00644124  0.66806967  -0.01422618  1
  Cu  Cu87  1  0.33587840  0.00178208  0.50366271  1
  Cu  Cu88  1  0.16386874  0.83953098  0.25301419  1
  Cu  Cu89  1  0.66861109  0.34442638  0.49890535  1
  Cu  Cu90  1  0.16683734  0.16679721  0.74796751  1
  Cu  Cu91  1  0.33032914  -0.00751774  0.00115412  1
  Cu  Cu92  1  0.33477242  0.34366345  -0.01145633  1
  Cu  Cu93  1  0.83174181  0.49540396  0.25338923  1
  Cu  Cu94  1  0.49904947  0.83188568  0.24890652  1
  Cu  Cu95  1  0.00398786  0.00001642  -0.00791428  1
  Cu  Cu96  1  0.66922120  0.33878643  -0.00361204  1
  Cu  Cu97  1  0.83425880  0.16338379  0.74561461  1
  Cu  Cu98  1  0.83522748  0.16802187  0.25043376  1
  Cu  Cu99  1  0.66335697  -0.00711355  0.50951290  1
  Cu  Cu100  1  0.16135610  0.49806733  0.25309552  1
  Cu  Cu101  1  0.82141926  0.84220725  0.75526526  1
  Cu  Cu102  1  0.00843754  -0.00089783  0.50207465  1
  Cu  Cu103  1  0.50971565  0.50239413  0.25411488  1
  Cu  Cu104  1  0.15748166  0.16334048  0.25191962  1
  Cu  Cu105  1  0.66819191  0.66542870  0.50350060  1
  Cu  Cu106  1  0.00543407  0.34083869  -0.00395839  1
  Cu  Cu107  1  0.32662312  0.33581768  0.50483851  1
  Cu  Cu108  1  0.33027448  0.66369525  -0.00801304  1
  Cu  Cu109  1  0.49846848  0.83290451  0.75176838  1
  Cu  Cu110  1  0.66611165  -0.00123533  0.00040992  1
  Cu  Cu111  1  0.66177140  0.66323062  0.00071357  1
  Cu  Cu112  1  0.49913479  0.16643217  0.25115591  1
  Cu  Cu113  1  0.33715132  0.66590320  0.50503229  1
  Cu  Cu114  1  0.50288788  0.16080350  0.75310320  1
  Se  Se115  1  0.07799480  0.07852257  0.06056999  1
  Se  Se116  1  0.09069310  0.08200767  0.55459244  1
  Se  Se117  1  0.08772439  0.42333835  0.05126644  1
  Se  Se118  1  0.09511178  0.43876143  0.55625589  1
  Se  Se119  1  0.08351589  0.75324598  0.04335220  1
  Se  Se120  1  0.06956026  0.73616840  0.56052046  1
  Se  Se121  1  0.40820061  0.07933035  0.05876864  1
  Se  Se122  1  0.41170212  0.08319762  0.56720023  1
  Se  Se123  1  0.41950541  0.42081600  0.04642456  1
  Se  Se124  1  0.41547532  0.41807731  0.55251665  1
  Se  Se125  1  0.40944142  0.74238967  0.05502500  1
  Se  Se126  1  0.42038111  0.75552457  0.55010999  1
  Se  Se127  1  0.75073632  0.08607929  0.04699331  1
  Se  Se128  1  0.74711589  0.07528240  0.56274571  1
  Se  Se129  1  0.74621003  0.41369278  0.06418843  1
  Se  Se130  1  0.74988575  0.42217248  0.55735889  1
  Se  Se131  1  0.74652960  0.74262773  0.05866528  1
  Se  Se132  1  0.75040377  0.73730619  0.56759764  1
  Se  Se133  1  0.25886926  0.26284166  0.05226651  1
  Se  Se134  1  0.24247795  0.25314539  0.55611528  1
  Se  Se135  1  0.24509769  0.57954919  0.04527861  1
  Se  Se136  1  0.25156153  0.58669641  0.55840622  1
  Se  Se137  1  0.24403754  0.91319151  0.05575030  1
  Se  Se138  1  0.25552532  0.92301408  0.56528314  1
  Se  Se139  1  0.58936582  0.25805045  0.05908379  1
  Se  Se140  1  0.58957100  0.25948311  0.55721805  1
  Se  Se141  1  0.58172420  0.57902745  0.05626707  1
  Se  Se142  1  0.58102134  0.58153897  0.55320786  1
  Se  Se143  1  0.58013954  0.91424511  0.04827164  1
  Se  Se144  1  0.57832920  0.91107099  0.55933523  1
  Se  Se145  1  0.92425070  0.25954479  0.05381797  1
  Se  Se146  1  0.93420868  0.26359902  0.55389453  1
  Se  Se147  1  0.92727996  0.59283870  0.05135386  1
  Se  Se148  1  0.90290864  0.57132766  0.57168104  1
  Se  Se149  1  0.92353824  0.92270569  0.05640551  1
  Se  Se150  1  0.92759363  0.91541324  0.55862646  1
  Se  Se151  1  0.08889283  0.23540767  0.44969570  1
  Se  Se152  1  0.08633039  0.26419710  0.93293178  1
  Se  Se153  1  0.08752744  0.56790424  0.46237770  1
  Se  Se154  1  0.08239625  0.57783794  0.93366930  1
  Se  Se155  1  0.08326315  0.91141629  0.44331432  1
  Se  Se156  1  0.08273708  0.91438686  0.93837990  1
  Se  Se157  1  0.40345086  0.26085074  0.43597338  1
  Se  Se158  1  0.41352949  0.25647255  0.93424498  1
  Se  Se159  1  0.41815832  0.58047052  0.45008253  1
  Se  Se160  1  0.41691057  0.57910342  0.94366682  1
  Se  Se161  1  0.41931789  0.91798420  0.45178066  1
  Se  Se162  1  0.41648239  0.90890860  0.95120437  1
  Se  Se163  1  0.74164122  0.25522182  0.44056206  1
  Se  Se164  1  0.75830744  0.25363390  0.95256499  1
  Se  Se165  1  0.75129802  0.58424496  0.44697101  1
  Se  Se166  1  0.74562977  0.58850185  0.94015177  1
  Se  Se167  1  0.74520148  0.92121439  0.44424583  1
  Se  Se168  1  0.74496264  0.92324116  0.93471954  1
  Se  Se169  1  0.25013876  0.08226941  0.45053681  1
  Se  Se170  1  0.25227117  0.07435540  0.94145848  1
  Se  Se171  1  0.24577008  0.41920056  0.44804349  1
  Se  Se172  1  0.24588704  0.41987063  0.93559855  1
  Se  Se173  1  0.25491370  0.73852423  0.43917134  1
  Se  Se174  1  0.24484001  0.74994157  0.94462920  1
  Se  Se175  1  0.58842644  0.07714913  0.44767157  1
  Se  Se176  1  0.58915899  0.07798204  0.93531845  1
  Se  Se177  1  0.58012268  0.42224455  0.44574131  1
  Se  Se178  1  0.58581859  0.42070185  0.94370759  1
  Se  Se179  1  0.58767393  0.75151945  0.44919744  1
  Se  Se180  1  0.57585763  0.74757449  0.95096400  1
  Se  Se181  1  0.91905133  0.07402821  0.44491625  1
  Se  Se182  1  0.91857078  0.08915422  0.94863495  1
  Se  Se183  1  0.90484181  0.41379324  0.45383264  1
  Se  Se184  1  0.93364085  0.42325047  0.93132162  1
  Se  Se185  1  0.92980633  0.73519201  0.44289049  1
  Se  Se186  1  0.92025416  0.74642801  0.93036824  1
  Se  Se187  1  0.23989554  0.24562213  0.31188276  1
  Se  Se188  1  0.25307800  0.25122464  0.79784330  1
  Se  Se189  1  0.24559271  0.57967843  0.30764536  1
  Se  Se190  1  0.24493483  0.57819775  0.80566120  1
  Se  Se191  1  0.24894926  0.92123622  0.30630712  1
  Se  Se192  1  0.26087296  0.91865741  0.80052200  1
  Se  Se193  1  0.58395653  0.25232333  0.29813491  1
  Se  Se194  1  0.58242125  0.24404941  0.81291271  1
  Se  Se195  1  0.58878117  0.58976394  0.30653397  1
  Se  Se196  1  0.58585705  0.58730077  0.79791936  1
  Se  Se197  1  0.57808675  0.91348317  0.31191825  1
  Se  Se198  1  0.58112340  0.91826689  0.80536959  1
  Se  Se199  1  0.91864521  0.25176266  0.30399892  1
  Se  Se200  1  0.91307290  0.24424749  0.80492433  1
  Se  Se201  1  0.91581777  0.57169847  0.31501065  1
  Se  Se202  1  0.90137207  0.58165965  0.78815781  1
  Se  Se203  1  0.91778864  0.91188049  0.29372872  1
  Se  Se204  1  0.91523268  0.92104844  0.80200845  1
  Se  Se205  1  0.07606186  0.07882716  0.30627497  1
  Se  Se206  1  0.08335231  0.08525158  0.80357950  1
  Se  Se207  1  0.07941939  0.41892955  0.30975412  1
  Se  Se208  1  0.05682560  0.39889137  0.79340999  1
  Se  Se209  1  0.09258912  0.75246315  0.31449630  1
  Se  Se210  1  0.07019669  0.73040118  0.79572085  1
  Se  Se211  1  0.41523906  0.08121864  0.30014788  1
  Se  Se212  1  0.41507786  0.08003754  0.80444566  1
  Se  Se213  1  0.41928852  0.42196640  0.30651954  1
  Se  Se214  1  0.41060525  0.41429242  0.79406957  1
  Se  Se215  1  0.42267139  0.75700118  0.31646619  1
  Se  Se216  1  0.42023218  0.75103920  0.81339861  1
  Se  Se217  1  0.75779621  0.08705733  0.31351967  1
  Se  Se218  1  0.75062388  0.08432418  0.80198734  1
  Se  Se219  1  0.74511091  0.41387536  0.30577886  1
  Se  Se220  1  0.76095053  0.42054461  0.80788205  1
  Se  Se221  1  0.76760616  0.76216364  0.30266894  1
  Se  Se222  1  0.73980097  0.75409685  0.80418712  1
  Se  Se223  1  0.24770050  0.08285879  0.20222882  1
  Se  Se224  1  0.25359762  0.08069619  0.69908614  1
  Se  Se225  1  0.24439435  0.42700753  0.18805894  1
  Se  Se226  1  0.25612563  0.40805875  0.69890253  1
  Se  Se227  1  0.23662420  0.75398795  0.19092415  1
  Se  Se228  1  0.23802133  0.76170081  0.69142535  1
  Se  Se229  1  0.57735468  0.08702012  0.18625584  1
  Se  Se230  1  0.58872369  0.07993304  0.70110771  1
  Se  Se231  1  0.58678701  0.41526466  0.19887000  1
  Se  Se232  1  0.58080297  0.41881047  0.68938514  1
  Se  Se233  1  0.58385481  0.74786527  0.19829041  1
  Se  Se234  1  0.57932075  0.74938590  0.69703036  1
  Se  Se235  1  0.91710965  0.08414780  0.19619418  1
  Se  Se236  1  0.92177383  0.08205699  0.69371993  1
  Se  Se237  1  0.92013344  0.41867494  0.19796665  1
  Se  Se238  1  0.93692779  0.40446870  0.70422236  1
  Se  Se239  1  0.91186582  0.75495656  0.18525012  1
  Se  Se240  1  0.89795195  0.76345658  0.69290411  1
  Se  Se241  1  0.08278046  0.25387492  0.19780564  1
  Se  Se242  1  0.08618139  0.24842574  0.69137271  1
  Se  Se243  1  0.08889817  0.58314098  0.19021098  1
  Se  Se244  1  0.07848139  0.59200520  0.70585646  1
  Se  Se245  1  0.07982009  0.91814035  0.19692789  1
  Se  Se246  1  0.08126526  0.91809791  0.70460943  1
  Se  Se247  1  0.42252867  0.24304879  0.18466073  1
  Se  Se248  1  0.42190315  0.24405906  0.69804110  1
  Se  Se249  1  0.42324919  0.57509633  0.19198630  1
  Se  Se250  1  0.42094629  0.57956106  0.68594352  1
  Se  Se251  1  0.41192786  0.91356969  0.19762137  1
  Se  Se252  1  0.41405020  0.91606084  0.69991063  1
  Se  Se253  1  0.74975965  0.25096121  0.19882334  1
  Se  Se254  1  0.76639388  0.24923802  0.68108089  1
  Se  Se255  1  0.75110775  0.58501559  0.20367272  1
  Se  Se256  1  0.72438138  0.58890691  0.71087404  1
  Se  Se257  1  0.75571862  0.91151203  0.18378282  1
  Se  Se258  1  0.73983168  0.92380876  0.69807748  1
