# generated using pymatgen
data_In86Cu29Se144
_symmetry_space_group_name_H-M   'P 1'
_cell_length_a   17.58447092
_cell_length_b   17.59214130
_cell_length_c   23.44743687
_cell_angle_alpha   90.00377997
_cell_angle_beta   89.98402151
_cell_angle_gamma   90.02363132
_symmetry_Int_Tables_number   1
_chemical_formula_structural   In86Cu29Se144
_chemical_formula_sum   'In86 Cu29 Se144'
_cell_volume   7253.42844036
_cell_formula_units_Z   1
loop_
 _symmetry_equiv_pos_site_id
 _symmetry_equiv_pos_as_xyz
  1  'x, y, z'
loop_
 _atom_site_type_symbol
 _atom_site_label
 _atom_site_symmetry_multiplicity
 _atom_site_fract_x
 _atom_site_fract_y
 _atom_site_fract_z
 _atom_site_occupancy
  In  In0  1  0.00405265  0.18788208  0.12505318  1
  In  In1  1  -0.00865912  0.17155879  0.63175218  1
  In  In2  1  0.00788601  0.49174750  0.13005163  1
  In  In3  1  -0.01981289  0.47482354  0.60315655  1
  In  In4  1  -0.00262134  0.82853676  0.11926020  1
  In  In5  1  -0.00072612  0.84548261  0.62760928  1
  In  In6  1  0.34021803  0.16988715  0.12713472  1
  In  In7  1  0.32999369  0.18707912  0.63208174  1
  In  In8  1  0.32618485  0.49341153  0.12007841  1
  In  In9  1  0.33057855  0.49596587  0.62225353  1
  In  In10  1  0.30905507  0.83247782  0.11582443  1
  In  In11  1  0.31657294  0.82647602  0.63197241  1
  In  In12  1  0.67672974  0.16030480  0.13352869  1
  In  In13  1  0.72200771  0.17904129  0.61565667  1
  In  In14  1  0.65710541  0.50091375  0.12132918  1
  In  In15  1  0.66628335  0.50014001  0.62712132  1
  In  In16  1  0.68158609  0.83460072  0.12435057  1
  In  In17  1  0.66818026  0.82610951  0.62475669  1
  In  In18  1  0.17175557  0.01132519  0.37561169  1
  In  In19  1  0.15048202  0.00679544  0.87744091  1
  In  In20  1  0.16477359  0.33523052  0.37591965  1
  In  In21  1  0.17016550  0.33112370  0.86506740  1
  In  In22  1  0.14997664  0.66490190  0.36859546  1
  In  In23  1  0.16654565  0.65161851  0.88533394  1
  In  In24  1  0.50156933  -0.00606620  0.37207185  1
  In  In25  1  0.50561143  -0.00424229  0.87548705  1
  In  In26  1  0.50967802  0.33623329  0.37456953  1
  In  In27  1  0.50038338  0.34445719  0.86942723  1
  In  In28  1  0.49022520  0.65893241  0.37445068  1
  In  In29  1  0.48494098  0.64976087  0.86761782  1
  In  In30  1  0.82018862  0.01213145  0.38744959  1
  In  In31  1  0.83725282  -0.00346798  0.88066210  1
  In  In32  1  0.83332761  0.34044149  0.37700210  1
  In  In33  1  0.83344814  0.32103001  0.86183933  1
  In  In34  1  0.84267585  0.65332955  0.38312965  1
  In  In35  1  0.83906558  0.68247322  0.87433447  1
  In  In36  1  -0.01858790  0.19291124  0.39418281  1
  In  In37  1  -0.00845555  0.15016088  0.85187434  1
  In  In38  1  0.00013898  0.49813740  0.37735554  1
  In  In39  1  0.01501240  0.50106483  0.87798333  1
  In  In40  1  -0.00392632  0.81807603  0.37051080  1
  In  In41  1  -0.01514065  0.83594831  0.88599725  1
  In  In42  1  0.31228204  0.17193615  0.38154346  1
  In  In43  1  0.31717133  0.17901512  0.86603062  1
  In  In44  1  0.34696054  0.48824305  0.38451750  1
  In  In45  1  0.32392349  0.49701642  0.87442590  1
  In  In46  1  0.32634394  0.84442311  0.37351302  1
  In  In47  1  0.33955033  0.81482763  0.87654023  1
  In  In48  1  0.67304585  0.17450947  0.37260370  1
  In  In49  1  0.67083847  0.18211307  0.87048767  1
  In  In50  1  0.67766292  0.48549861  0.38566357  1
  In  In51  1  0.65764597  0.48686318  0.86699417  1
  In  In52  1  0.67136856  0.84870771  0.36978409  1
  In  In53  1  0.68205551  0.83660739  0.87371888  1
  In  In54  1  0.16808558  -0.01210813  0.11936565  1
  In  In55  1  0.14382704  0.00353547  0.63381852  1
  In  In56  1  0.16292011  0.34395625  0.13385634  1
  In  In57  1  0.15732710  0.33439993  0.62389989  1
  In  In58  1  0.15866683  0.66131585  0.11840263  1
  In  In59  1  0.17592958  0.65484604  0.63004360  1
  In  In60  1  0.49815171  0.01415972  0.12822751  1
  In  In61  1  0.51076471  0.00244754  0.62543435  1
  In  In62  1  0.49723209  0.33943211  0.12957631  1
  In  In63  1  0.49516029  0.34272744  0.62958642  1
  In  In64  1  0.51344747  0.65673450  0.11872843  1
  In  In65  1  0.50691382  0.65335894  0.63056997  1
  In  In66  1  0.83058338  -0.00123270  0.12326886  1
  In  In67  1  0.85056907  0.01717164  0.60436212  1
  In  In68  1  0.84347280  0.32756840  0.12972643  1
  In  In69  1  0.83134861  0.33524352  0.63314543  1
  In  In70  1  0.83590235  0.67997554  0.12018881  1
  In  In71  1  0.82685932  0.65525108  0.62044197  1
  In  In72  1  0.33618415  -0.00675784  0.75563533  1
  In  In73  1  0.16279586  0.16709666  -0.00714078  1
  In  In74  1  0.49926715  0.16996807  0.00549678  1
  In  In75  1  0.33223125  0.00730835  0.25092129  1
  In  In76  1  0.67386149  0.66233897  0.24675633  1
  In  In77  1  0.50681176  0.17062436  0.50317796  1
  In  In78  1  0.50619268  0.82261439  0.50332692  1
  In  In79  1  -0.00324831  0.00806393  0.25271480  1
  In  In80  1  0.83798144  0.50523518  -0.00114500  1
  In  In81  1  0.00537314  0.65903207  0.75233071  1
  In  In82  1  0.16151807  0.83114175  0.49542424  1
  In  In83  1  0.50225886  0.82683232  -0.00088971  1
  In  In84  1  0.67566136  0.00331611  0.74357573  1
  In  In85  1  0.33326022  0.66227654  0.24236925  1
  Cu  Cu86  1  0.32652166  0.33571816  0.50455394  1
  Cu  Cu87  1  0.50298467  0.17448245  0.25103292  1
  Cu  Cu88  1  0.83338113  0.17346817  0.25850649  1
  Cu  Cu89  1  0.66495484  0.66150266  -0.00502269  1
  Cu  Cu90  1  0.00298351  0.66577327  0.49896545  1
  Cu  Cu91  1  0.32916194  0.33686688  -0.00124965  1
  Cu  Cu92  1  0.50716355  0.48920582  0.25279059  1
  Cu  Cu93  1  0.16190621  0.82825646  0.75454882  1
  Cu  Cu94  1  0.33326941  0.65907895  0.50155656  1
  Cu  Cu95  1  0.83115106  0.49860304  0.74504725  1
  Cu  Cu96  1  0.66701620  0.66416593  0.50382706  1
  Cu  Cu97  1  -0.00074305  0.00447922  0.50282407  1
  Cu  Cu98  1  0.50264203  0.81952033  0.74788688  1
  Cu  Cu99  1  0.32978454  0.00392558  0.50585969  1
  Cu  Cu100  1  0.67208664  0.33127900  -0.00706856  1
  Cu  Cu101  1  0.83705598  0.83428323  0.75130305  1
  Cu  Cu102  1  0.83943651  0.49907810  0.25629489  1
  Cu  Cu103  1  -0.00701196  0.00096078  -0.00099374  1
  Cu  Cu104  1  0.32956268  0.65703337  -0.00193903  1
  Cu  Cu105  1  0.67053339  0.33797529  0.50455752  1
  Cu  Cu106  1  0.67270807  0.00372446  0.00292863  1
  Cu  Cu107  1  0.16164476  0.17604564  0.25371306  1
  Cu  Cu108  1  0.17170475  0.50080216  0.25197329  1
  Cu  Cu109  1  0.83623184  0.83696143  0.24737717  1
  Cu  Cu110  1  0.00038182  0.33252500  -0.00029864  1
  Cu  Cu111  1  0.16760779  0.49783973  0.74653136  1
  Cu  Cu112  1  0.49889318  0.84047693  0.24633710  1
  Cu  Cu113  1  0.50500233  0.17293344  0.74750515  1
  Cu  Cu114  1  0.49205763  0.50243666  0.74885872  1
  Se  Se115  1  0.07385285  0.08041660  0.06051074  1
  Se  Se116  1  0.07684998  0.08751960  0.55995298  1
  Se  Se117  1  0.08440917  0.41209066  0.05480714  1
  Se  Se118  1  0.09415978  0.42297327  0.54819873  1
  Se  Se119  1  0.10401546  0.77040544  0.05749618  1
  Se  Se120  1  0.08081992  0.74294769  0.56409921  1
  Se  Se121  1  0.40280440  0.07319439  0.05329112  1
  Se  Se122  1  0.41138964  0.08245796  0.56448514  1
  Se  Se123  1  0.41642944  0.41339497  0.05453345  1
  Se  Se124  1  0.41775156  0.41621072  0.55273414  1
  Se  Se125  1  0.40886063  0.73767499  0.06048361  1
  Se  Se126  1  0.40639449  0.74372971  0.56330378  1
  Se  Se127  1  0.75400005  0.08943175  0.05532192  1
  Se  Se128  1  0.73500331  0.06803202  0.54764819  1
  Se  Se129  1  0.74867488  0.41173641  0.05786543  1
  Se  Se130  1  0.75333746  0.42003070  0.55985382  1
  Se  Se131  1  0.74443296  0.74729283  0.04891290  1
  Se  Se132  1  0.75115092  0.74842679  0.55390199  1
  Se  Se133  1  0.25162769  0.25376164  0.05932687  1
  Se  Se134  1  0.24603330  0.24934878  0.55583750  1
  Se  Se135  1  0.24459458  0.57692850  0.05319170  1
  Se  Se136  1  0.24586181  0.57825415  0.55189866  1
  Se  Se137  1  0.25401168  0.92674697  0.04415886  1
  Se  Se138  1  0.24650096  0.92187281  0.56206042  1
  Se  Se139  1  0.59439722  0.25699190  0.06155679  1
  Se  Se140  1  0.59504045  0.25515355  0.56748053  1
  Se  Se141  1  0.58138511  0.57464560  0.04313379  1
  Se  Se142  1  0.58265400  0.57968936  0.55397046  1
  Se  Se143  1  0.58683717  0.92517299  0.06033184  1
  Se  Se144  1  0.59339954  0.92274157  0.55366567  1
  Se  Se145  1  0.91435630  0.24979364  0.05071489  1
  Se  Se146  1  0.89546407  0.23853994  0.56304133  1
  Se  Se147  1  0.92765843  0.58845039  0.06228632  1
  Se  Se148  1  0.91368672  0.58400642  0.54835672  1
  Se  Se149  1  0.91308188  0.91685500  0.05527175  1
  Se  Se150  1  0.92002676  0.90908923  0.54817013  1
  Se  Se151  1  0.10342965  0.23543451  0.44415313  1
  Se  Se152  1  0.07230618  0.25238596  0.93288509  1
  Se  Se153  1  0.08607368  0.58360381  0.44572588  1
  Se  Se154  1  0.07250396  0.58670085  0.95474118  1
  Se  Se155  1  0.07386748  0.92513418  0.43666886  1
  Se  Se156  1  0.07851510  0.91884045  0.94741277  1
  Se  Se157  1  0.41000007  0.25558651  0.44383654  1
  Se  Se158  1  0.40886418  0.25417202  0.93985374  1
  Se  Se159  1  0.42371500  0.57971648  0.45194050  1
  Se  Se160  1  0.41321969  0.57393069  0.94530108  1
  Se  Se161  1  0.41022400  0.92229539  0.44855273  1
  Se  Se162  1  0.41258375  0.91948901  0.94124125  1
  Se  Se163  1  0.74874934  0.25528533  0.44567183  1
  Se  Se164  1  0.75857809  0.24980135  0.94333026  1
  Se  Se165  1  0.75066380  0.58029300  0.44999412  1
  Se  Se166  1  0.74508634  0.58436602  0.93272601  1
  Se  Se167  1  0.75558251  0.90599698  0.44700525  1
  Se  Se168  1  0.75191793  0.91598907  0.95015909  1
  Se  Se169  1  0.24349139  0.08487624  0.45482560  1
  Se  Se170  1  0.25996075  0.07850918  0.93738606  1
  Se  Se171  1  0.24743886  0.41864011  0.44681292  1
  Se  Se172  1  0.24118711  0.41151690  0.94267763  1
  Se  Se173  1  0.25818636  0.74132217  0.43848531  1
  Se  Se174  1  0.25040393  0.74504638  0.94676389  1
  Se  Se175  1  0.58730046  0.07830922  0.43882568  1
  Se  Se176  1  0.59208752  0.08186318  0.94207070  1
  Se  Se177  1  0.58038772  0.41552217  0.45169443  1
  Se  Se178  1  0.58281929  0.41375331  0.94615171  1
  Se  Se179  1  0.59286590  0.73988145  0.43453890  1
  Se  Se180  1  0.58663048  0.74198450  0.93211135  1
  Se  Se181  1  0.91223831  0.08826846  0.45272833  1
  Se  Se182  1  0.92290612  0.08952355  0.93984259  1
  Se  Se183  1  0.91578008  0.42020482  0.44656626  1
  Se  Se184  1  0.91905042  0.40943061  0.93748023  1
  Se  Se185  1  0.91771187  0.74932497  0.44809716  1
  Se  Se186  1  0.91392141  0.74494950  0.95468354  1
  Se  Se187  1  0.25192472  0.25570016  0.30374132  1
  Se  Se188  1  0.24225562  0.24846161  0.79000290  1
  Se  Se189  1  0.25401693  0.57763215  0.31367145  1
  Se  Se190  1  0.24297877  0.58336654  0.80534164  1
  Se  Se191  1  0.23441697  0.91332198  0.30173841  1
  Se  Se192  1  0.24456195  0.90583587  0.81605269  1
  Se  Se193  1  0.58910014  0.25511623  0.30358704  1
  Se  Se194  1  0.58378174  0.25799185  0.80347081  1
  Se  Se195  1  0.58396554  0.57588982  0.31052327  1
  Se  Se196  1  0.58220429  0.58114281  0.80189362  1
  Se  Se197  1  0.58395671  0.92175588  0.29822568  1
  Se  Se198  1  0.58053026  0.90830064  0.80302833  1
  Se  Se199  1  0.91886909  0.25776345  0.30747319  1
  Se  Se200  1  0.93805874  0.26480849  0.79654256  1
  Se  Se201  1  0.92241870  0.58574937  0.30530787  1
  Se  Se202  1  0.90867662  0.57406113  0.81197322  1
  Se  Se203  1  0.90812254  0.91756902  0.31330032  1
  Se  Se204  1  0.91685512  0.91638817  0.80784203  1
  Se  Se205  1  0.08087186  0.09965820  0.31528183  1
  Se  Se206  1  0.09872874  0.08481190  0.79488824  1
  Se  Se207  1  0.08556358  0.41992912  0.30594536  1
  Se  Se208  1  0.08283959  0.41906847  0.80218449  1
  Se  Se209  1  0.08721107  0.75699028  0.29893828  1
  Se  Se210  1  0.08271565  0.75202229  0.81839773  1
  Se  Se211  1  0.42050208  0.09735176  0.31397637  1
  Se  Se212  1  0.42815102  0.09208149  0.80987255  1
  Se  Se213  1  0.41845654  0.41231314  0.30614910  1
  Se  Se214  1  0.40859531  0.41842827  0.80298206  1
  Se  Se215  1  0.42000169  0.76082169  0.30642645  1
  Se  Se216  1  0.41271752  0.74190567  0.79836845  1
  Se  Se217  1  0.75096466  0.08334690  0.30532899  1
  Se  Se218  1  0.75910375  0.08946671  0.80994154  1
  Se  Se219  1  0.74899796  0.41797880  0.30365252  1
  Se  Se220  1  0.75041923  0.41326762  0.80067054  1
  Se  Se221  1  0.75956971  0.75157118  0.30930657  1
  Se  Se222  1  0.75096680  0.75003715  0.80034836  1
  Se  Se223  1  0.23582978  0.09337339  0.19007387  1
  Se  Se224  1  0.25353879  0.07900548  0.68932502  1
  Se  Se225  1  0.25744714  0.41740794  0.20001433  1
  Se  Se226  1  0.24884183  0.41373396  0.69181586  1
  Se  Se227  1  0.23833024  0.75553175  0.19463120  1
  Se  Se228  1  0.24440815  0.74253898  0.70435737  1
  Se  Se229  1  0.58261166  0.08523150  0.20007647  1
  Se  Se230  1  0.58782745  0.09889535  0.68695516  1
  Se  Se231  1  0.59269906  0.41290542  0.19589910  1
  Se  Se232  1  0.58145316  0.42116410  0.69809873  1
  Se  Se233  1  0.57847184  0.75621469  0.18979193  1
  Se  Se234  1  0.58983060  0.74244022  0.69451939  1
  Se  Se235  1  0.91074249  0.09892385  0.19047713  1
  Se  Se236  1  0.91128328  0.07445288  0.69253129  1
  Se  Se237  1  0.91970273  0.41535736  0.19862610  1
  Se  Se238  1  0.92205086  0.42022966  0.69592078  1
  Se  Se239  1  0.91732209  0.75212529  0.19484308  1
  Se  Se240  1  0.91454918  0.74914528  0.69086651  1
  Se  Se241  1  0.07871550  0.26123407  0.20202268  1
  Se  Se242  1  0.08003344  0.25288388  0.69660338  1
  Se  Se243  1  0.08844969  0.58161580  0.19607189  1
  Se  Se244  1  0.07824790  0.56619640  0.68428437  1
  Se  Se245  1  0.08231667  0.91579580  0.19271217  1
  Se  Se246  1  0.07740888  0.91387621  0.70626033  1
  Se  Se247  1  0.41571361  0.25297975  0.19745053  1
  Se  Se248  1  0.41743681  0.25857445  0.70171473  1
  Se  Se249  1  0.43159609  0.57215196  0.19040831  1
  Se  Se250  1  0.40811416  0.58341385  0.69375895  1
  Se  Se251  1  0.41290265  0.91121403  0.18525793  1
  Se  Se252  1  0.42620063  0.90568494  0.68870811  1
  Se  Se253  1  0.75222287  0.25354798  0.19853028  1
  Se  Se254  1  0.74553343  0.25758923  0.70408846  1
  Se  Se255  1  0.76376083  0.57296203  0.18611439  1
  Se  Se256  1  0.74728976  0.58576275  0.69758825  1
  Se  Se257  1  0.75029559  0.92083802  0.19762839  1
  Se  Se258  1  0.76392514  0.91268915  0.68468825  1
