# generated using pymatgen
data_In86Cu29Se144
_symmetry_space_group_name_H-M   'P 1'
_cell_length_a   17.54587744
_cell_length_b   17.54631519
_cell_length_c   23.40160343
_cell_angle_alpha   89.97635040
_cell_angle_beta   89.99144324
_cell_angle_gamma   90.02549886
_symmetry_Int_Tables_number   1
_chemical_formula_structural   In86Cu29Se144
_chemical_formula_sum   'In86 Cu29 Se144'
_cell_volume   7204.54483542
_cell_formula_units_Z   1
loop_
 _symmetry_equiv_pos_site_id
 _symmetry_equiv_pos_as_xyz
  1  'x, y, z'
loop_
 _atom_site_type_symbol
 _atom_site_label
 _atom_site_symmetry_multiplicity
 _atom_site_fract_x
 _atom_site_fract_y
 _atom_site_fract_z
 _atom_site_occupancy
  In  In0  1  -0.00076927  0.15503523  0.12581242  1
  In  In1  1  -0.00916785  0.16200097  0.61638929  1
  In  In2  1  0.00948085  0.51342112  0.11648399  1
  In  In3  1  -0.00954605  0.51048517  0.62965340  1
  In  In4  1  -0.01717480  0.81977465  0.10982696  1
  In  In5  1  -0.00075831  0.84099036  0.63800420  1
  In  In6  1  0.33495861  0.16371407  0.13610739  1
  In  In7  1  0.33782392  0.17107880  0.61883519  1
  In  In8  1  0.33092384  0.49748351  0.12010961  1
  In  In9  1  0.33512081  0.48260856  0.63401087  1
  In  In10  1  0.33156701  0.84578708  0.12415021  1
  In  In11  1  0.33545868  0.84224779  0.62986970  1
  In  In12  1  0.67450973  0.17789021  0.12959993  1
  In  In13  1  0.66758394  0.17815306  0.63013621  1
  In  In14  1  0.66411609  0.49984259  0.11724039  1
  In  In15  1  0.66638822  0.49389308  0.62966627  1
  In  In16  1  0.66646379  0.81173567  0.11985466  1
  In  In17  1  0.68059850  0.82758618  0.63447727  1
  In  In18  1  0.17075558  0.00306063  0.37201366  1
  In  In19  1  0.15118131  -0.03051132  0.84939801  1
  In  In20  1  0.16294746  0.32074944  0.38030066  1
  In  In21  1  0.17860627  0.33550479  0.87083956  1
  In  In22  1  0.15462281  0.68302798  0.36963810  1
  In  In23  1  0.15265965  0.68127038  0.88364980  1
  In  In24  1  0.49762230  0.01550055  0.37958941  1
  In  In25  1  0.50676096  0.00598697  0.86458483  1
  In  In26  1  0.50260047  0.33454692  0.37401039  1
  In  In27  1  0.52144939  0.37000717  0.84324314  1
  In  In28  1  0.50494569  0.64778674  0.37742486  1
  In  In29  1  0.51382554  0.64572991  0.87698292  1
  In  In30  1  0.84292009  0.00354285  0.37917606  1
  In  In31  1  0.82110474  -0.01474348  0.85914334  1
  In  In32  1  0.82399056  0.35319515  0.39320577  1
  In  In33  1  0.82662705  0.35477288  0.86247145  1
  In  In34  1  0.82258422  0.65585158  0.36362633  1
  In  In35  1  0.83561618  0.65750301  0.86834094  1
  In  In36  1  -0.00693645  0.18686525  0.40199626  1
  In  In37  1  0.00460434  0.16194203  0.86912282  1
  In  In38  1  -0.01771426  0.49975307  0.37581554  1
  In  In39  1  -0.01954654  0.51619477  0.87977999  1
  In  In40  1  0.01455538  0.82564019  0.36623852  1
  In  In41  1  0.00230058  0.81927953  0.86967747  1
  In  In42  1  0.33484777  0.16919183  0.37581983  1
  In  In43  1  0.33789745  0.17110491  0.86698191  1
  In  In44  1  0.35714141  0.50083689  0.37670253  1
  In  In45  1  0.33800803  0.49191220  0.88136873  1
  In  In46  1  0.31557768  0.84595091  0.36888109  1
  In  In47  1  0.31970786  0.83051350  0.87247608  1
  In  In48  1  0.64920649  0.18439974  0.39154595  1
  In  In49  1  0.68031379  0.16761913  0.85677876  1
  In  In50  1  0.67178488  0.49430608  0.37286424  1
  In  In51  1  0.67160249  0.50477929  0.86462889  1
  In  In52  1  0.67963363  0.82615615  0.37234316  1
  In  In53  1  0.67054058  0.83265329  0.87210733  1
  In  In54  1  0.17441943  0.00016549  0.12182356  1
  In  In55  1  0.14823772  0.01364833  0.64306979  1
  In  In56  1  0.16989049  0.34713166  0.12573478  1
  In  In57  1  0.18137419  0.33262072  0.62629197  1
  In  In58  1  0.16017691  0.66278276  0.11937265  1
  In  In59  1  0.15431857  0.66768374  0.63506137  1
  In  In60  1  0.48506547  -0.01307906  0.12489298  1
  In  In61  1  0.49042286  0.01532242  0.63133518  1
  In  In62  1  0.49324337  0.33972959  0.13045016  1
  In  In63  1  0.50800249  0.33874386  0.62713127  1
  In  In64  1  0.51708822  0.66055378  0.12414530  1
  In  In65  1  0.51947992  0.65191106  0.63463992  1
  In  In66  1  0.84873977  -0.00607992  0.12008638  1
  In  In67  1  0.81725883  0.03230375  0.65413041  1
  In  In68  1  0.81351650  0.33892341  0.12792535  1
  In  In69  1  0.82285676  0.32432572  0.62581010  1
  In  In70  1  0.82671399  0.66362572  0.11737681  1
  In  In71  1  0.83204143  0.65200449  0.63910158  1
  In  In72  1  0.49712567  0.82257555  -0.00454231  1
  In  In73  1  -0.00713377  0.33319038  0.74401632  1
  In  In74  1  0.83475181  0.17081462  -0.00184936  1
  In  In75  1  0.33648158  0.66385129  0.75717391  1
  In  In76  1  0.65951057  0.00157134  0.24951038  1
  In  In77  1  0.16688725  0.49637981  0.50334544  1
  In  In78  1  0.00682976  -0.00170661  0.25322200  1
  In  In79  1  0.49584887  0.17263541  -0.00903065  1
  In  In80  1  0.33417097  0.66698064  0.24986366  1
  In  In81  1  0.16559371  0.83816994  0.49785362  1
  In  In82  1  0.00150932  0.33618688  0.25558512  1
  In  In83  1  0.17093982  0.16878703  -0.00512995  1
  In  In84  1  0.50181012  0.83229935  0.50998051  1
  In  In85  1  0.83777182  0.83800368  0.50258601  1
  Cu  Cu86  1  0.66386583  0.33582544  0.50423378  1
  Cu  Cu87  1  -0.00075793  -0.01505851  -0.01378532  1
  Cu  Cu88  1  0.51415144  0.49556222  0.25102558  1
  Cu  Cu89  1  -0.01171527  0.66430809  0.50147847  1
  Cu  Cu90  1  0.33189535  0.66238883  -0.00309570  1
  Cu  Cu91  1  -0.00641161  0.00807679  0.51200953  1
  Cu  Cu92  1  0.50382135  0.83568912  0.75428621  1
  Cu  Cu93  1  0.83131913  0.82051805  0.24083536  1
  Cu  Cu94  1  0.66900769  0.64997085  0.50101573  1
  Cu  Cu95  1  0.32323382  -0.00131531  -0.00852138  1
  Cu  Cu96  1  0.49415073  0.16583348  0.73899297  1
  Cu  Cu97  1  0.83467640  0.50382812  0.24598017  1
  Cu  Cu98  1  0.67076977  -0.00734415  -0.00647109  1
  Cu  Cu99  1  0.34380496  0.33295619  0.50105198  1
  Cu  Cu100  1  -0.00562345  0.34393605  -0.00147518  1
  Cu  Cu101  1  0.17612472  0.16456083  0.74670862  1
  Cu  Cu102  1  0.33121346  0.00696592  0.50017106  1
  Cu  Cu103  1  0.33750916  0.65718834  0.50520311  1
  Cu  Cu104  1  0.82119760  0.17427784  0.26177001  1
  Cu  Cu105  1  0.17089873  0.16555489  0.25557976  1
  Cu  Cu106  1  0.33971464  0.34028633  -0.00374614  1
  Cu  Cu107  1  0.49679109  0.16862044  0.25756541  1
  Cu  Cu108  1  0.17604796  0.50034019  0.24834301  1
  Cu  Cu109  1  0.16002101  0.50390544  0.75802125  1
  Cu  Cu110  1  0.84282829  0.82699268  0.75595374  1
  Cu  Cu111  1  -0.00337089  0.66441745  -0.00404441  1
  Cu  Cu112  1  0.66014082  0.34509638  -0.00818499  1
  Cu  Cu113  1  0.49365086  0.83094952  0.24837124  1
  Cu  Cu114  1  0.67099466  0.01103943  0.51511681  1
  Se  Se115  1  0.07345366  0.07256866  0.04793400  1
  Se  Se116  1  0.09152603  0.08436493  0.55569052  1
  Se  Se117  1  0.08606734  0.41782956  0.05260932  1
  Se  Se118  1  0.07814817  0.41510466  0.56869061  1
  Se  Se119  1  0.08314432  0.74758760  0.04805269  1
  Se  Se120  1  0.07208957  0.74750781  0.55773470  1
  Se  Se121  1  0.40607596  0.07842551  0.05292013  1
  Se  Se122  1  0.42185572  0.08717557  0.54944934  1
  Se  Se123  1  0.42301878  0.41999702  0.05351939  1
  Se  Se124  1  0.41951699  0.41880520  0.55751520  1
  Se  Se125  1  0.40868771  0.73950875  0.06413100  1
  Se  Se126  1  0.41313249  0.73832044  0.56848676  1
  Se  Se127  1  0.74340108  0.07695467  0.05898660  1
  Se  Se128  1  0.75749256  0.09313286  0.56408180  1
  Se  Se129  1  0.75141991  0.41765286  0.04792992  1
  Se  Se130  1  0.74949224  0.41733430  0.55714750  1
  Se  Se131  1  0.76325199  0.76224276  0.04846729  1
  Se  Se132  1  0.74860662  0.73926960  0.55613757  1
  Se  Se133  1  0.26310597  0.25430788  0.05760245  1
  Se  Se134  1  0.25287302  0.25263959  0.54982605  1
  Se  Se135  1  0.24760870  0.58072955  0.05298256  1
  Se  Se136  1  0.25211231  0.58806104  0.56846667  1
  Se  Se137  1  0.24627072  0.91466621  0.04862285  1
  Se  Se138  1  0.25103632  0.92795294  0.56114685  1
  Se  Se139  1  0.58961234  0.25744512  0.05464536  1
  Se  Se140  1  0.58189605  0.25004646  0.55616157  1
  Se  Se141  1  0.58659507  0.58547361  0.04731655  1
  Se  Se142  1  0.58187202  0.57166317  0.55482647  1
  Se  Se143  1  0.58592380  0.91975198  0.05679402  1
  Se  Se144  1  0.59357488  0.92197544  0.56942151  1
  Se  Se145  1  0.92384240  0.25821852  0.06337990  1
  Se  Se146  1  0.91618836  0.25728893  0.55568089  1
  Se  Se147  1  0.91326496  0.58026531  0.04962428  1
  Se  Se148  1  0.90567834  0.58311779  0.55609540  1
  Se  Se149  1  0.90921710  0.91103024  0.04111007  1
  Se  Se150  1  0.91327115  0.92813816  0.57152039  1
  Se  Se151  1  0.09496002  0.25346462  0.46241647  1
  Se  Se152  1  0.07348701  0.25962793  0.94037844  1
  Se  Se153  1  0.07857751  0.59193148  0.44198311  1
  Se  Se154  1  0.08226788  0.57961108  0.94542888  1
  Se  Se155  1  0.06692382  0.92811327  0.44258471  1
  Se  Se156  1  0.08942475  0.90568300  0.93742075  1
  Se  Se157  1  0.42270477  0.24849933  0.44351553  1
  Se  Se158  1  0.41794795  0.26862770  0.92981931  1
  Se  Se159  1  0.42649446  0.57796091  0.45571919  1
  Se  Se160  1  0.41855270  0.58074549  0.94692388  1
  Se  Se161  1  0.40851919  0.91723562  0.44384534  1
  Se  Se162  1  0.41648301  0.92355704  0.93756420  1
  Se  Se163  1  0.75171108  0.25117201  0.45349187  1
  Se  Se164  1  0.74298470  0.25846065  0.93678846  1
  Se  Se165  1  0.75750293  0.57650055  0.44305095  1
  Se  Se166  1  0.76355452  0.56560891  0.93709614  1
  Se  Se167  1  0.73892355  0.92801703  0.44613242  1
  Se  Se168  1  0.75581270  0.91181915  0.94251862  1
  Se  Se169  1  0.24729927  0.08549593  0.44281764  1
  Se  Se170  1  0.24796496  0.07783509  0.92822905  1
  Se  Se171  1  0.26161101  0.41396530  0.44005920  1
  Se  Se172  1  0.24393938  0.41705477  0.94903041  1
  Se  Se173  1  0.25981900  0.73998634  0.44346866  1
  Se  Se174  1  0.24989700  0.75265837  0.95028474  1
  Se  Se175  1  0.58161265  0.08246864  0.45530323  1
  Se  Se176  1  0.59669850  0.08250213  0.93798781  1
  Se  Se177  1  0.58504535  0.41761709  0.44338612  1
  Se  Se178  1  0.57882544  0.42656019  0.93523046  1
  Se  Se179  1  0.59247860  0.74320568  0.44535918  1
  Se  Se180  1  0.59726164  0.73740121  0.94394380  1
  Se  Se181  1  0.90845247  0.08704491  0.45516279  1
  Se  Se182  1  0.91659271  0.07494889  0.93478702  1
  Se  Se183  1  0.93681579  0.40614902  0.45156712  1
  Se  Se184  1  0.90686364  0.41716060  0.94275793  1
  Se  Se185  1  0.91941495  0.74700290  0.43469698  1
  Se  Se186  1  0.91400192  0.74554527  0.93930146  1
  Se  Se187  1  0.25117078  0.25402466  0.30661560  1
  Se  Se188  1  0.25355399  0.25338864  0.79864637  1
  Se  Se189  1  0.24799074  0.57899964  0.31636557  1
  Se  Se190  1  0.24119067  0.58149965  0.81896101  1
  Se  Se191  1  0.22094426  0.90591134  0.29893581  1
  Se  Se192  1  0.27546739  0.92987432  0.79964584  1
  Se  Se193  1  0.58687454  0.25074350  0.30475659  1
  Se  Se194  1  0.56911210  0.23822179  0.80701186  1
  Se  Se195  1  0.59286454  0.58367944  0.30339121  1
  Se  Se196  1  0.58979004  0.58817777  0.79414223  1
  Se  Se197  1  0.57372520  0.90960811  0.31423391  1
  Se  Se198  1  0.59279695  0.91951748  0.80208278  1
  Se  Se199  1  0.91048443  0.25049386  0.31828966  1
  Se  Se200  1  0.90678671  0.24476677  0.80984253  1
  Se  Se201  1  0.92108416  0.58521942  0.29832447  1
  Se  Se202  1  0.91462363  0.57749847  0.79417605  1
  Se  Se203  1  0.90556283  0.90468279  0.30504945  1
  Se  Se204  1  0.92776173  0.91568026  0.80298566  1
  Se  Se205  1  0.07681229  0.10185357  0.31683452  1
  Se  Se206  1  0.08729049  0.08468650  0.79810078  1
  Se  Se207  1  0.09383891  0.42704409  0.31395287  1
  Se  Se208  1  0.07722622  0.41874179  0.81378232  1
  Se  Se209  1  0.08331292  0.75032739  0.28813224  1
  Se  Se210  1  0.09278959  0.74993117  0.79803638  1
  Se  Se211  1  0.41164029  0.08022006  0.30419983  1
  Se  Se212  1  0.41630682  0.08332260  0.79927014  1
  Se  Se213  1  0.42243931  0.41635696  0.30102343  1
  Se  Se214  1  0.39369547  0.41069804  0.79918742  1
  Se  Se215  1  0.42017628  0.75432062  0.31778138  1
  Se  Se216  1  0.43046193  0.75243612  0.81764580  1
  Se  Se217  1  0.74443246  0.08728867  0.31848138  1
  Se  Se218  1  0.75917978  0.08209983  0.79026426  1
  Se  Se219  1  0.76026667  0.41504962  0.30453126  1
  Se  Se220  1  0.72077465  0.39775775  0.79234059  1
  Se  Se221  1  0.74314740  0.74324345  0.29496052  1
  Se  Se222  1  0.75129700  0.74756145  0.80420982  1
  Se  Se223  1  0.24679012  0.07830923  0.19916956  1
  Se  Se224  1  0.26125196  0.08428121  0.69147827  1
  Se  Se225  1  0.25866849  0.41583680  0.19741703  1
  Se  Se226  1  0.24174005  0.41814473  0.70511762  1
  Se  Se227  1  0.24605013  0.75348824  0.18759993  1
  Se  Se228  1  0.24826517  0.75417005  0.69647519  1
  Se  Se229  1  0.56921759  0.09159352  0.18620553  1
  Se  Se230  1  0.58861692  0.08355459  0.69578013  1
  Se  Se231  1  0.59211348  0.41284415  0.19223264  1
  Se  Se232  1  0.59917909  0.40154942  0.70268171  1
  Se  Se233  1  0.58119351  0.75087611  0.19834705  1
  Se  Se234  1  0.58392820  0.75369311  0.69818314  1
  Se  Se235  1  0.90250857  0.09199984  0.20093252  1
  Se  Se236  1  0.94325919  0.07551314  0.69911657  1
  Se  Se237  1  0.91687829  0.42213760  0.18685106  1
  Se  Se238  1  0.89801090  0.42623332  0.69368251  1
  Se  Se239  1  0.91716303  0.73978171  0.18863154  1
  Se  Se240  1  0.92052428  0.74332046  0.69720243  1
  Se  Se241  1  0.08897350  0.24309891  0.19129390  1
  Se  Se242  1  0.08955708  0.24365748  0.68868466  1
  Se  Se243  1  0.08916641  0.58027693  0.19576802  1
  Se  Se244  1  0.07546098  0.58299063  0.70332072  1
  Se  Se245  1  0.07487689  0.91269322  0.17777824  1
  Se  Se246  1  0.10103284  0.90142114  0.70367669  1
  Se  Se247  1  0.41561712  0.25242804  0.20011270  1
  Se  Se248  1  0.41459107  0.25648630  0.68975960  1
  Se  Se249  1  0.42729158  0.57541811  0.19320415  1
  Se  Se250  1  0.42469288  0.56998521  0.69956339  1
  Se  Se251  1  0.40738678  0.91830442  0.20353383  1
  Se  Se252  1  0.42194431  0.91770815  0.69864947  1
  Se  Se253  1  0.74387304  0.25890437  0.20599837  1
  Se  Se254  1  0.75352309  0.24746690  0.70419985  1
  Se  Se255  1  0.74826281  0.57998280  0.18872890  1
  Se  Se256  1  0.72024478  0.59944159  0.69867362  1
  Se  Se257  1  0.75332748  0.91394361  0.18723127  1
  Se  Se258  1  0.75870935  0.91270791  0.70341645  1
