# generated using pymatgen
data_In86Cu29Se144
_symmetry_space_group_name_H-M   'P 1'
_cell_length_a   17.58630889
_cell_length_b   17.58428090
_cell_length_c   23.44569783
_cell_angle_alpha   90.00093886
_cell_angle_beta   90.02040072
_cell_angle_gamma   89.98257132
_symmetry_Int_Tables_number   1
_chemical_formula_structural   In86Cu29Se144
_chemical_formula_sum   'In86 Cu29 Se144'
_cell_volume   7250.40765512
_cell_formula_units_Z   1
loop_
 _symmetry_equiv_pos_site_id
 _symmetry_equiv_pos_as_xyz
  1  'x, y, z'
loop_
 _atom_site_type_symbol
 _atom_site_label
 _atom_site_symmetry_multiplicity
 _atom_site_fract_x
 _atom_site_fract_y
 _atom_site_fract_z
 _atom_site_occupancy
  In  In0  1  -0.01519586  0.15474119  0.10388599  1
  In  In1  1  -0.00770394  0.16889005  0.62906702  1
  In  In2  1  0.00422315  0.49807274  0.12855064  1
  In  In3  1  -0.00838059  0.50776460  0.62921713  1
  In  In4  1  -0.04993975  0.87381542  0.17465477  1
  In  In5  1  -0.00867275  0.83729932  0.62473689  1
  In  In6  1  0.34943439  0.17309992  0.11385367  1
  In  In7  1  0.33317860  0.15807176  0.62105033  1
  In  In8  1  0.33457400  0.48071450  0.12874793  1
  In  In9  1  0.34881864  0.50131052  0.62614461  1
  In  In10  1  0.32397954  0.83531497  0.12916607  1
  In  In11  1  0.33566739  0.83742405  0.61556560  1
  In  In12  1  0.67058526  0.17042886  0.12927224  1
  In  In13  1  0.67039356  0.16646949  0.62565999  1
  In  In14  1  0.66199400  0.50131755  0.12767697  1
  In  In15  1  0.66645950  0.47795854  0.62745328  1
  In  In16  1  0.69476639  0.83187408  0.14963185  1
  In  In17  1  0.68748003  0.85454547  0.61018754  1
  In  In18  1  0.15140478  -0.00295493  0.37492471  1
  In  In19  1  0.15459882  0.01703197  0.88033488  1
  In  In20  1  0.17422215  0.32158346  0.37375522  1
  In  In21  1  0.14987667  0.32609065  0.87551557  1
  In  In22  1  0.16693925  0.68393092  0.37948644  1
  In  In23  1  0.15823379  0.67730268  0.87463160  1
  In  In24  1  0.51237468  -0.00716917  0.38176883  1
  In  In25  1  0.51267475  0.00494325  0.87525572  1
  In  In26  1  0.50235139  0.31938997  0.36987051  1
  In  In27  1  0.50646692  0.32728572  0.88040242  1
  In  In28  1  0.51430542  0.66800698  0.37309010  1
  In  In29  1  0.49619521  0.66662504  0.87926545  1
  In  In30  1  0.83858860  -0.00745581  0.37125418  1
  In  In31  1  0.83274913  0.00219867  0.87471091  1
  In  In32  1  0.82550397  0.33793075  0.37861333  1
  In  In33  1  0.82557401  0.32703816  0.87148535  1
  In  In34  1  0.83162721  0.66924984  0.37101025  1
  In  In35  1  0.84377981  0.66468323  0.87544543  1
  In  In36  1  -0.00935079  0.14783939  0.36795483  1
  In  In37  1  -0.00483205  0.16672792  0.87615894  1
  In  In38  1  -0.02104743  0.49493574  0.37641472  1
  In  In39  1  -0.00549151  0.49891220  0.86455425  1
  In  In40  1  -0.00236083  0.83971589  0.37412972  1
  In  In41  1  -0.01713897  0.82471022  0.86868942  1
  In  In42  1  0.34191833  0.18249240  0.37208810  1
  In  In43  1  0.32977779  0.16864225  0.88846266  1
  In  In44  1  0.34635356  0.48731627  0.37389395  1
  In  In45  1  0.34322411  0.50532384  0.88071693  1
  In  In46  1  0.32892349  0.83762386  0.38604832  1
  In  In47  1  0.33329237  0.82895651  0.87206858  1
  In  In48  1  0.67552515  0.15735784  0.37103739  1
  In  In49  1  0.66871452  0.16585240  0.87766242  1
  In  In50  1  0.67393819  0.51205944  0.36706059  1
  In  In51  1  0.66744839  0.48650283  0.87604770  1
  In  In52  1  0.67328634  0.83038958  0.37321753  1
  In  In53  1  0.66682749  0.85453536  0.87230676  1
  In  In54  1  0.15385571  -0.00541512  0.11969310  1
  In  In55  1  0.15939510  -0.01090212  0.62102471  1
  In  In56  1  0.17369762  0.33712676  0.12567430  1
  In  In57  1  0.16017392  0.31811603  0.62598027  1
  In  In58  1  0.14712907  0.66257740  0.12814564  1
  In  In59  1  0.14816151  0.66613253  0.62219843  1
  In  In60  1  0.51027576  0.01817362  0.11673087  1
  In  In61  1  0.51279615  0.01432903  0.61507564  1
  In  In62  1  0.50351571  0.32940566  0.12591476  1
  In  In63  1  0.52112285  0.34115775  0.62434011  1
  In  In64  1  0.52348806  0.67419085  0.12614968  1
  In  In65  1  0.49741656  0.67082728  0.62371910  1
  In  In66  1  0.83103434  0.01703679  0.13171765  1
  In  In67  1  0.83315483  0.00148543  0.62581339  1
  In  In68  1  0.82942801  0.29331551  0.12283667  1
  In  In69  1  0.83171442  0.32957992  0.62414080  1
  In  In70  1  0.83108984  0.67667912  0.13298821  1
  In  In71  1  0.84339975  0.67959935  0.61577400  1
  In  In72  1  0.33633854  0.00642492  0.24242232  1
  In  In73  1  0.33775370  0.65762986  0.25597809  1
  In  In74  1  -0.00564327  0.32906933  0.24836564  1
  In  In75  1  0.83047014  0.49149913  -0.00459521  1
  In  In76  1  0.16935397  0.49762166  0.00253323  1
  In  In77  1  0.16281122  0.50143634  0.49492630  1
  In  In78  1  0.50744720  0.84564747  0.00164107  1
  In  In79  1  0.50793247  0.49771554  0.50103845  1
  In  In80  1  0.16168028  0.83326238  0.00603487  1
  In  In81  1  0.33538044  0.33398140  0.75020104  1
  In  In82  1  0.16192092  0.16066016  0.49876898  1
  In  In83  1  0.66940352  0.66673236  0.74712295  1
  In  In84  1  0.32906429  0.00052062  0.75620633  1
  In  In85  1  0.32879321  0.66551088  0.74231813  1
  Cu  Cu86  1  0.50486663  0.83767955  0.25118250  1
  Cu  Cu87  1  0.67627941  0.00328734  0.00292842  1
  Cu  Cu88  1  0.15054999  0.83456815  0.74837006  1
  Cu  Cu89  1  0.34087456  0.33301691  0.00274163  1
  Cu  Cu90  1  0.34217544  0.66095295  0.00691340  1
  Cu  Cu91  1  0.33408545  0.66993547  0.50201067  1
  Cu  Cu92  1  0.16700443  0.16895193  0.24636782  1
  Cu  Cu93  1  -0.00898176  0.67662369  0.49968376  1
  Cu  Cu94  1  0.16550077  0.49645333  0.25105276  1
  Cu  Cu95  1  0.66506386  0.32733624  0.00161879  1
  Cu  Cu96  1  0.50090599  0.49063444  0.24852036  1
  Cu  Cu97  1  0.16452144  0.49766541  0.74928442  1
  Cu  Cu98  1  0.15273689  0.16595664  0.75282121  1
  Cu  Cu99  1  -0.01051268  -0.00552512  0.00317350  1
  Cu  Cu100  1  0.83259846  0.83763319  0.74330416  1
  Cu  Cu101  1  0.50641278  0.84098509  0.74233851  1
  Cu  Cu102  1  0.82912776  0.16590998  0.75035234  1
  Cu  Cu103  1  -0.00733486  0.32949474  0.50156275  1
  Cu  Cu104  1  0.83119456  0.49989961  0.24718002  1
  Cu  Cu105  1  0.15907308  0.83331716  0.25480669  1
  Cu  Cu106  1  0.67196566  0.66809819  0.49307293  1
  Cu  Cu107  1  0.66913292  0.00318889  0.49609127  1
  Cu  Cu108  1  0.67015281  0.32405172  0.49710280  1
  Cu  Cu109  1  0.50852711  0.17227845  0.75004864  1
  Cu  Cu110  1  -0.00594285  0.67116265  0.00198719  1
  Cu  Cu111  1  0.67114422  0.67348143  0.01001888  1
  Cu  Cu112  1  0.50648282  0.16916283  0.24762017  1
  Cu  Cu113  1  0.33783554  0.00519787  0.49755810  1
  Cu  Cu114  1  0.83442922  0.49931046  0.74605803  1
  Se  Se115  1  0.08443191  0.07785108  0.04505507  1
  Se  Se116  1  0.06926561  0.07464763  0.55684462  1
  Se  Se117  1  0.07436815  0.40732636  0.05504495  1
  Se  Se118  1  0.07749477  0.40971675  0.55840345  1
  Se  Se119  1  0.06621028  0.75298442  0.06512007  1
  Se  Se120  1  0.07773711  0.75553396  0.55385895  1
  Se  Se121  1  0.41490304  0.07580345  0.04712178  1
  Se  Se122  1  0.42022385  0.09034041  0.54866962  1
  Se  Se123  1  0.42287091  0.41718417  0.05539045  1
  Se  Se124  1  0.41358507  0.40557871  0.55626091  1
  Se  Se125  1  0.41645675  0.75046845  0.06291586  1
  Se  Se126  1  0.42195232  0.75221486  0.55165126  1
  Se  Se127  1  0.75357051  0.09293065  0.05541592  1
  Se  Se128  1  0.74997483  0.08380112  0.55512889  1
  Se  Se129  1  0.74670050  0.40613887  0.06254719  1
  Se  Se130  1  0.74934773  0.41160739  0.55177038  1
  Se  Se131  1  0.75232346  0.75847967  0.06183974  1
  Se  Se132  1  0.75350321  0.75263309  0.54738184  1
  Se  Se133  1  0.25198783  0.25453573  0.05486817  1
  Se  Se134  1  0.25548532  0.25481126  0.55401043  1
  Se  Se135  1  0.25611851  0.58892551  0.06717421  1
  Se  Se136  1  0.25609643  0.58711708  0.56146068  1
  Se  Se137  1  0.26108331  0.92564855  0.05445865  1
  Se  Se138  1  0.25238820  0.92358263  0.55075952  1
  Se  Se139  1  0.58248413  0.24398324  0.05650327  1
  Se  Se140  1  0.58544107  0.24808864  0.55446638  1
  Se  Se141  1  0.58593494  0.58366788  0.05286287  1
  Se  Se142  1  0.59722197  0.58971484  0.56088345  1
  Se  Se143  1  0.60456689  0.91821667  0.06659167  1
  Se  Se144  1  0.58216745  0.91843681  0.54841739  1
  Se  Se145  1  0.92395632  0.26210862  0.04436448  1
  Se  Se146  1  0.91223446  0.24410313  0.55453230  1
  Se  Se147  1  0.91702184  0.58255360  0.05852863  1
  Se  Se148  1  0.91728439  0.58225615  0.55152949  1
  Se  Se149  1  0.91411924  0.92023063  0.07113384  1
  Se  Se150  1  0.89422377  0.90186340  0.55761691  1
  Se  Se151  1  0.07160085  0.25276670  0.43788650  1
  Se  Se152  1  0.09220858  0.23240282  0.94538219  1
  Se  Se153  1  0.07023014  0.59292122  0.43919355  1
  Se  Se154  1  0.07494899  0.58945449  0.94340789  1
  Se  Se155  1  0.08915610  0.90748988  0.44598477  1
  Se  Se156  1  0.07051692  0.91507770  0.93988297  1
  Se  Se157  1  0.41943617  0.25484021  0.44683064  1
  Se  Se158  1  0.42305439  0.24754741  0.95015964  1
  Se  Se159  1  0.41298709  0.59014932  0.44161518  1
  Se  Se160  1  0.42564538  0.58112955  0.95279377  1
  Se  Se161  1  0.42048731  0.91672321  0.44854908  1
  Se  Se162  1  0.41130672  0.92227342  0.93656405  1
  Se  Se163  1  0.75424232  0.24145619  0.44390639  1
  Se  Se164  1  0.75197146  0.24848926  0.94743443  1
  Se  Se165  1  0.75468885  0.58159249  0.44333560  1
  Se  Se166  1  0.74136212  0.59210744  0.94183600  1
  Se  Se167  1  0.74980982  0.91703571  0.44314364  1
  Se  Se168  1  0.75371651  0.91687680  0.94725540  1
  Se  Se169  1  0.25694978  0.08002124  0.43318719  1
  Se  Se170  1  0.25258042  0.07436743  0.94791346  1
  Se  Se171  1  0.25824242  0.40740275  0.44493512  1
  Se  Se172  1  0.25770334  0.40767606  0.93904925  1
  Se  Se173  1  0.24676226  0.75476259  0.45487235  1
  Se  Se174  1  0.25902591  0.73944888  0.94719577  1
  Se  Se175  1  0.58469578  0.08948645  0.44545307  1
  Se  Se176  1  0.58730139  0.08294175  0.94983821  1
  Se  Se177  1  0.59419752  0.41135314  0.43656807  1
  Se  Se178  1  0.58429680  0.41566005  0.95017200  1
  Se  Se179  1  0.58443472  0.75251086  0.44551063  1
  Se  Se180  1  0.59411221  0.74965515  0.94143350  1
  Se  Se181  1  0.91692647  0.07517382  0.44320284  1
  Se  Se182  1  0.91352823  0.08214414  0.94655042  1
  Se  Se183  1  0.90857201  0.41597278  0.45199941  1
  Se  Se184  1  0.92635006  0.40824609  0.93724396  1
  Se  Se185  1  0.91079998  0.75524428  0.44063876  1
  Se  Se186  1  0.90934081  0.75326886  0.94926574  1
  Se  Se187  1  0.25327689  0.24946137  0.29792030  1
  Se  Se188  1  0.24505773  0.24078464  0.80759297  1
  Se  Se189  1  0.24252675  0.57331037  0.31734620  1
  Se  Se190  1  0.24287361  0.57728778  0.81098719  1
  Se  Se191  1  0.25043107  0.91356663  0.30598305  1
  Se  Se192  1  0.23360609  0.90815981  0.81159249  1
  Se  Se193  1  0.59400888  0.24646152  0.30295089  1
  Se  Se194  1  0.58879339  0.25293945  0.80725428  1
  Se  Se195  1  0.57929780  0.58193292  0.29863447  1
  Se  Se196  1  0.58086915  0.58125236  0.81168174  1
  Se  Se197  1  0.58730831  0.91724331  0.30641216  1
  Se  Se198  1  0.58356144  0.92565051  0.79820734  1
  Se  Se199  1  0.90378032  0.24316306  0.30889872  1
  Se  Se200  1  0.91395962  0.24826586  0.80463144  1
  Se  Se201  1  0.91436637  0.58095680  0.30219944  1
  Se  Se202  1  0.91509360  0.58720674  0.79841721  1
  Se  Se203  1  0.92049580  0.91373710  0.29584218  1
  Se  Se204  1  0.91315581  0.91923078  0.80221716  1
  Se  Se205  1  0.08686350  0.08322309  0.29903417  1
  Se  Se206  1  0.07149510  0.07907166  0.80286349  1
  Se  Se207  1  0.08537256  0.41749458  0.31362868  1
  Se  Se208  1  0.08238503  0.41362395  0.80212690  1
  Se  Se209  1  0.07874440  0.74782317  0.30660832  1
  Se  Se210  1  0.07378088  0.74562573  0.80162707  1
  Se  Se211  1  0.42676598  0.08671168  0.30861299  1
  Se  Se212  1  0.42140336  0.09616375  0.80945489  1
  Se  Se213  1  0.41943205  0.40637714  0.30119036  1
  Se  Se214  1  0.42494846  0.42251695  0.81008698  1
  Se  Se215  1  0.41917282  0.76106181  0.31018372  1
  Se  Se216  1  0.42717321  0.75764028  0.80040241  1
  Se  Se217  1  0.74226455  0.06079792  0.30135364  1
  Se  Se218  1  0.74686663  0.08267569  0.80591913  1
  Se  Se219  1  0.75052034  0.41757569  0.30337313  1
  Se  Se220  1  0.75233476  0.41862614  0.80207932  1
  Se  Se221  1  0.74093619  0.74019925  0.30144151  1
  Se  Se222  1  0.75516575  0.75883590  0.80940301  1
  Se  Se223  1  0.24417886  0.09086608  0.18111738  1
  Se  Se224  1  0.23743754  0.08885577  0.69262551  1
  Se  Se225  1  0.25078539  0.41164938  0.20304074  1
  Se  Se226  1  0.24431073  0.42353522  0.68650600  1
  Se  Se227  1  0.24048450  0.74886391  0.19750494  1
  Se  Se228  1  0.23953189  0.76206154  0.68834895  1
  Se  Se229  1  0.58704311  0.08225948  0.19652308  1
  Se  Se230  1  0.58505282  0.08387321  0.69577193  1
  Se  Se231  1  0.58702906  0.41087077  0.19554974  1
  Se  Se232  1  0.58259722  0.41776267  0.70479761  1
  Se  Se233  1  0.59158107  0.75173124  0.20357186  1
  Se  Se234  1  0.58752180  0.76135698  0.68378322  1
  Se  Se235  1  0.92397121  0.09940271  0.19312897  1
  Se  Se236  1  0.91372210  0.08297742  0.69773340  1
  Se  Se237  1  0.90370740  0.41545635  0.18484008  1
  Se  Se238  1  0.91656719  0.41345507  0.69328006  1
  Se  Se239  1  0.93826714  0.73062333  0.19604819  1
  Se  Se240  1  0.91647609  0.74842475  0.69673464  1
  Se  Se241  1  0.08370305  0.24423842  0.18471527  1
  Se  Se242  1  0.07418582  0.25297579  0.69968146  1
  Se  Se243  1  0.07869288  0.57878032  0.20304742  1
  Se  Se244  1  0.08158954  0.58391366  0.69810839  1
  Se  Se245  1  0.08593856  0.92441980  0.20168028  1
  Se  Se246  1  0.07370843  0.92179941  0.69498804  1
  Se  Se247  1  0.41712906  0.24734193  0.19489844  1
  Se  Se248  1  0.42248767  0.24369217  0.68809009  1
  Se  Se249  1  0.42630437  0.57854887  0.18751902  1
  Se  Se250  1  0.43511807  0.57533223  0.69968203  1
  Se  Se251  1  0.42851624  0.91226710  0.18605424  1
  Se  Se252  1  0.41919091  0.92099406  0.68749605  1
  Se  Se253  1  0.73989761  0.25807389  0.20338483  1
  Se  Se254  1  0.74809344  0.25193961  0.69641256  1
  Se  Se255  1  0.74767077  0.58436645  0.19380851  1
  Se  Se256  1  0.75740448  0.57999155  0.68336649  1
  Se  Se257  1  0.74734503  0.94417433  0.20944512  1
  Se  Se258  1  0.74518305  0.92249156  0.69727423  1
