# generated using pymatgen
data_In86Cu29Se144
_symmetry_space_group_name_H-M   'P 1'
_cell_length_a   17.58556982
_cell_length_b   17.58102679
_cell_length_c   23.43301729
_cell_angle_alpha   89.99960963
_cell_angle_beta   89.96463577
_cell_angle_gamma   90.01014559
_symmetry_Int_Tables_number   1
_chemical_formula_structural   In86Cu29Se144
_chemical_formula_sum   'In86 Cu29 Se144'
_cell_volume   7244.84009639
_cell_formula_units_Z   1
loop_
 _symmetry_equiv_pos_site_id
 _symmetry_equiv_pos_as_xyz
  1  'x, y, z'
loop_
 _atom_site_type_symbol
 _atom_site_label
 _atom_site_symmetry_multiplicity
 _atom_site_fract_x
 _atom_site_fract_y
 _atom_site_fract_z
 _atom_site_occupancy
  In  In0  1  -0.00928128  0.16735766  0.11049662  1
  In  In1  1  0.01604179  0.15451351  0.63718233  1
  In  In2  1  0.00134208  0.48771948  0.10029383  1
  In  In3  1  0.01354838  0.48178397  0.64541328  1
  In  In4  1  0.01573497  0.84405284  0.11789835  1
  In  In5  1  0.00723257  0.83651629  0.64627655  1
  In  In6  1  0.35493523  0.19021401  0.08737526  1
  In  In7  1  0.34262310  0.17329393  0.61724877  1
  In  In8  1  0.32513434  0.47963015  0.11219766  1
  In  In9  1  0.31158063  0.49925466  0.62479696  1
  In  In10  1  0.33648880  0.84578934  0.10180479  1
  In  In11  1  0.33453871  0.82969950  0.62697359  1
  In  In12  1  0.66651173  0.16762122  0.12508800  1
  In  In13  1  0.64883773  0.16183111  0.62905178  1
  In  In14  1  0.66225432  0.49954161  0.12377903  1
  In  In15  1  0.67562830  0.50128707  0.63042433  1
  In  In16  1  0.65937598  0.84394608  0.13001232  1
  In  In17  1  0.66641645  0.82937022  0.63791043  1
  In  In18  1  0.17320092  0.01750676  0.36694735  1
  In  In19  1  0.16597362  0.00967031  0.88370738  1
  In  In20  1  0.17689394  0.32560957  0.38447188  1
  In  In21  1  0.16324665  0.33563643  0.88263252  1
  In  In22  1  0.15887708  0.66223982  0.37904117  1
  In  In23  1  0.15739114  0.67401647  0.87402328  1
  In  In24  1  0.50648924  0.00509925  0.37217183  1
  In  In25  1  0.49826178  -0.00024494  0.88430370  1
  In  In26  1  0.48185548  0.31960217  0.35328020  1
  In  In27  1  0.48515621  0.33242654  0.89011524  1
  In  In28  1  0.50329609  0.65842921  0.36857965  1
  In  In29  1  0.50470062  0.65942631  0.87955582  1
  In  In30  1  0.83299749  -0.00043276  0.36196610  1
  In  In31  1  0.84230441  0.01630108  0.86939244  1
  In  In32  1  0.83093928  0.34400579  0.37183333  1
  In  In33  1  0.85456677  0.31799631  0.89801557  1
  In  In34  1  0.83199437  0.67295969  0.37010484  1
  In  In35  1  0.83030470  0.66082165  0.87361147  1
  In  In36  1  0.01893734  0.16976497  0.37242267  1
  In  In37  1  0.00700059  0.17119130  0.88023797  1
  In  In38  1  0.00860337  0.50606886  0.37780480  1
  In  In39  1  -0.00248109  0.49673022  0.87779641  1
  In  In40  1  -0.00682443  0.82941695  0.37153654  1
  In  In41  1  0.01616458  0.84491618  0.85742270  1
  In  In42  1  0.32340989  0.17844557  0.39170379  1
  In  In43  1  0.30576444  0.18832345  0.91229832  1
  In  In44  1  0.33779584  0.49043150  0.37338750  1
  In  In45  1  0.33527073  0.48065612  0.88635403  1
  In  In46  1  0.33041698  0.83990403  0.37559158  1
  In  In47  1  0.32792682  0.84556899  0.89221725  1
  In  In48  1  0.65488640  0.15895353  0.36301838  1
  In  In49  1  0.67034715  0.16323108  0.88167666  1
  In  In50  1  0.66083484  0.49616966  0.35938554  1
  In  In51  1  0.66498657  0.50374137  0.87986158  1
  In  In52  1  0.66595239  0.83662051  0.36231451  1
  In  In53  1  0.65909222  0.83015563  0.87358430  1
  In  In54  1  0.16861177  0.00311953  0.11895163  1
  In  In55  1  0.16117501  0.00342450  0.62992727  1
  In  In56  1  0.17321730  0.33358685  0.10587522  1
  In  In57  1  0.17135842  0.32897091  0.63236501  1
  In  In58  1  0.16561104  0.66502227  0.11913936  1
  In  In59  1  0.17078234  0.65581744  0.63672210  1
  In  In60  1  0.50190814  0.01328666  0.10961595  1
  In  In61  1  0.49362282  0.01394325  0.63527150  1
  In  In62  1  0.49967964  0.33900898  0.11991786  1
  In  In63  1  0.49752812  0.31837131  0.62687871  1
  In  In64  1  0.50446629  0.67524395  0.11951047  1
  In  In65  1  0.49719700  0.67375670  0.63288979  1
  In  In66  1  0.82558512  0.00932545  0.13001916  1
  In  In67  1  0.83757653  -0.00625236  0.63681387  1
  In  In68  1  0.82464541  0.32257984  0.10860188  1
  In  In69  1  0.83731784  0.34454348  0.62791679  1
  In  In70  1  0.83083499  0.65559044  0.12134798  1
  In  In71  1  0.83189096  0.66666944  0.63804051  1
  In  In72  1  0.83860482  0.16723447  0.50077919  1
  In  In73  1  0.16852568  0.83771717  0.50734532  1
  In  In74  1  -0.00221567  0.33077566  0.24257704  1
  In  In75  1  0.49352613  0.49610952  0.49801016  1
  In  In76  1  -0.00196861  0.66436892  0.24470624  1
  In  In77  1  0.33341367  0.00845725  0.76238622  1
  In  In78  1  0.83761518  0.50209474  0.49865880  1
  In  In79  1  0.33378726  0.66583710  0.75356298  1
  In  In80  1  0.83406460  0.83362479  0.49819552  1
  In  In81  1  0.83389483  0.83150447  -0.01127339  1
  In  In82  1  0.67142665  0.33435550  0.75605767  1
  In  In83  1  0.49832435  0.84298583  0.50444830  1
  In  In84  1  0.33215186  0.66273608  0.24504176  1
  In  In85  1  0.33626908  0.01289816  0.23594962  1
  Cu  Cu86  1  0.49933279  0.49877009  0.24155889  1
  Cu  Cu87  1  0.49474039  0.16916147  0.23763223  1
  Cu  Cu88  1  0.16786748  0.49416909  0.75773986  1
  Cu  Cu89  1  0.66023803  0.33587608  -0.00017064  1
  Cu  Cu90  1  0.00733330  0.65257533  0.51135224  1
  Cu  Cu91  1  0.66115841  0.66609004  0.49818085  1
  Cu  Cu92  1  0.83501049  0.17228171  0.75762368  1
  Cu  Cu93  1  0.16801914  0.48809904  0.24042911  1
  Cu  Cu94  1  0.83451667  0.83310428  0.24638678  1
  Cu  Cu95  1  0.65901522  0.32706518  0.49251335  1
  Cu  Cu96  1  0.33237244  0.65738128  -0.00299064  1
  Cu  Cu97  1  0.17187686  0.17343653  0.76146521  1
  Cu  Cu98  1  0.00413640  0.66758021  -0.00596225  1
  Cu  Cu99  1  0.83304053  0.16683477  0.24126862  1
  Cu  Cu100  1  0.00548493  -0.00044491  0.50069911  1
  Cu  Cu101  1  0.82769589  0.83369720  0.75899381  1
  Cu  Cu102  1  0.66401234  0.00752191  0.49987053  1
  Cu  Cu103  1  -0.00443313  0.00257638  -0.00524023  1
  Cu  Cu104  1  0.49569151  0.16526978  0.75728344  1
  Cu  Cu105  1  0.17206711  0.17024515  0.24540496  1
  Cu  Cu106  1  0.67135924  0.00810091  0.00293784  1
  Cu  Cu107  1  0.82560324  0.49237144  0.24089924  1
  Cu  Cu108  1  0.49706940  0.49217726  0.76133842  1
  Cu  Cu109  1  0.50411915  0.83054335  0.76023994  1
  Cu  Cu110  1  0.66371035  0.66854123  -0.00072878  1
  Cu  Cu111  1  0.16680663  0.83972566  0.23745044  1
  Cu  Cu112  1  0.50323242  0.83554548  0.24400009  1
  Cu  Cu113  1  0.01343983  0.33161732  0.51055370  1
  Cu  Cu114  1  0.83381011  0.49844796  0.75850797  1
  Se  Se115  1  0.08053289  0.08108185  0.05012913  1
  Se  Se116  1  0.08553208  0.08342871  0.55488099  1
  Se  Se117  1  0.10313577  0.42551013  0.03589870  1
  Se  Se118  1  0.08994431  0.41965567  0.56410000  1
  Se  Se119  1  0.08356851  0.74901232  0.05116043  1
  Se  Se120  1  0.07597890  0.74778132  0.56752069  1
  Se  Se121  1  0.38142083  0.05230159  0.05343442  1
  Se  Se122  1  0.42696211  0.08391091  0.55511614  1
  Se  Se123  1  0.42000048  0.41414614  0.04494553  1
  Se  Se124  1  0.40948112  0.41168792  0.56489494  1
  Se  Se125  1  0.41497073  0.74463130  0.04791189  1
  Se  Se126  1  0.41029310  0.73987661  0.55512532  1
  Se  Se127  1  0.75555312  0.09111345  0.05436523  1
  Se  Se128  1  0.74925842  0.07746449  0.56320197  1
  Se  Se129  1  0.74461055  0.42094057  0.05150122  1
  Se  Se130  1  0.73947330  0.40762793  0.55235775  1
  Se  Se131  1  0.74502577  0.75183390  0.05816514  1
  Se  Se132  1  0.74393147  0.74229152  0.55937792  1
  Se  Se133  1  0.22913981  0.23011738  0.03696514  1
  Se  Se134  1  0.24176564  0.24380283  0.55901839  1
  Se  Se135  1  0.24825007  0.58025675  0.05390965  1
  Se  Se136  1  0.25515220  0.60080969  0.55835328  1
  Se  Se137  1  0.21590198  0.89277996  0.05327201  1
  Se  Se138  1  0.26225265  0.92911746  0.56265332  1
  Se  Se139  1  0.58337582  0.24870393  0.05547874  1
  Se  Se140  1  0.58248405  0.24719478  0.55325206  1
  Se  Se141  1  0.58175559  0.58420675  0.05335629  1
  Se  Se142  1  0.58655566  0.58698094  0.56149457  1
  Se  Se143  1  0.58828514  0.91918204  0.05151133  1
  Se  Se144  1  0.59390231  0.92486410  0.56579835  1
  Se  Se145  1  0.93374202  0.27224283  0.04599192  1
  Se  Se146  1  0.92602373  0.25385804  0.56608250  1
  Se  Se147  1  0.91828741  0.58873080  0.04814483  1
  Se  Se148  1  0.92159027  0.57943412  0.57089226  1
  Se  Se149  1  0.91410039  0.92301381  0.05570449  1
  Se  Se150  1  0.92702047  0.91775255  0.56131482  1
  Se  Se151  1  0.08729752  0.24577551  0.45125662  1
  Se  Se152  1  0.10924434  0.22658044  0.94936514  1
  Se  Se153  1  0.09020776  0.57590570  0.45346399  1
  Se  Se154  1  0.08618881  0.58178504  0.94274301  1
  Se  Se155  1  0.08029605  0.91857901  0.43637575  1
  Se  Se156  1  0.07760444  0.91731137  0.94242296  1
  Se  Se157  1  0.41883555  0.26686133  0.44285377  1
  Se  Se158  1  0.42594610  0.23811797  0.96376475  1
  Se  Se159  1  0.40851776  0.59466927  0.43982907  1
  Se  Se160  1  0.41839025  0.57631697  0.94484009  1
  Se  Se161  1  0.40914901  0.93072240  0.44241701  1
  Se  Se162  1  0.43717264  0.89939928  0.95199300  1
  Se  Se163  1  0.74650106  0.25122254  0.43632705  1
  Se  Se164  1  0.74655674  0.24890831  0.95244884  1
  Se  Se165  1  0.74138859  0.58763394  0.43755961  1
  Se  Se166  1  0.74979492  0.58650287  0.94844963  1
  Se  Se167  1  0.74188314  0.92572502  0.43952334  1
  Se  Se168  1  0.74557468  0.92993042  0.93594012  1
  Se  Se169  1  0.24895238  0.07661975  0.44739654  1
  Se  Se170  1  0.27926917  0.05144820  0.94818049  1
  Se  Se171  1  0.24063633  0.43325044  0.44196948  1
  Se  Se172  1  0.23727545  0.42057878  0.95669689  1
  Se  Se173  1  0.25424804  0.74585612  0.44156626  1
  Se  Se174  1  0.24859115  0.74282283  0.94543769  1
  Se  Se175  1  0.58270853  0.08887565  0.44462579  1
  Se  Se176  1  0.58158898  0.08746983  0.95100189  1
  Se  Se177  1  0.58439588  0.41306297  0.43397301  1
  Se  Se178  1  0.57977728  0.41948695  0.94585317  1
  Se  Se179  1  0.58662119  0.75079161  0.43898821  1
  Se  Se180  1  0.58032828  0.75145570  0.94703849  1
  Se  Se181  1  0.92367452  0.07425079  0.43708734  1
  Se  Se182  1  0.91372689  0.09245179  0.94710045  1
  Se  Se183  1  0.93186948  0.40448325  0.44530589  1
  Se  Se184  1  0.90415226  0.43532886  0.95131513  1
  Se  Se185  1  0.92884030  0.73181267  0.44781909  1
  Se  Se186  1  0.93129481  0.74953580  0.93079305  1
  Se  Se187  1  0.25039601  0.24611546  0.30841967  1
  Se  Se188  1  0.25565180  0.25088497  0.81940711  1
  Se  Se189  1  0.23650417  0.57630703  0.30350017  1
  Se  Se190  1  0.25117247  0.57373549  0.81665993  1
  Se  Se191  1  0.24843099  0.91576604  0.29902931  1
  Se  Se192  1  0.24354290  0.91148227  0.81299139  1
  Se  Se193  1  0.58300092  0.24923767  0.29272967  1
  Se  Se194  1  0.57658154  0.24955256  0.81483530  1
  Se  Se195  1  0.58119141  0.58571215  0.29382729  1
  Se  Se196  1  0.58335838  0.58028416  0.80526018  1
  Se  Se197  1  0.58156074  0.92292773  0.29869928  1
  Se  Se198  1  0.58069097  0.92327523  0.80935408  1
  Se  Se199  1  0.90987692  0.24172402  0.30955576  1
  Se  Se200  1  0.91952102  0.25261187  0.81159831  1
  Se  Se201  1  0.90745453  0.56892198  0.30492662  1
  Se  Se202  1  0.92015478  0.58398534  0.80625133  1
  Se  Se203  1  0.92071409  0.91358364  0.29967829  1
  Se  Se204  1  0.91389959  0.92276199  0.80210057  1
  Se  Se205  1  0.08477571  0.08665924  0.29500248  1
  Se  Se206  1  0.08651965  0.08573571  0.80918313  1
  Se  Se207  1  0.08677884  0.41669030  0.30746139  1
  Se  Se208  1  0.08163985  0.41208074  0.80935146  1
  Se  Se209  1  0.09397177  0.75597946  0.30143626  1
  Se  Se210  1  0.08469105  0.74506419  0.79482783  1
  Se  Se211  1  0.41867326  0.09429428  0.30681901  1
  Se  Se212  1  0.41447782  0.09983767  0.82527376  1
  Se  Se213  1  0.40907429  0.42019604  0.29270261  1
  Se  Se214  1  0.41335551  0.40607649  0.80935516  1
  Se  Se215  1  0.42067002  0.75989447  0.30544394  1
  Se  Se216  1  0.41581306  0.75731003  0.81793723  1
  Se  Se217  1  0.74930565  0.08466676  0.29749272  1
  Se  Se218  1  0.74584786  0.08888562  0.80363793  1
  Se  Se219  1  0.74577329  0.40859794  0.29635605  1
  Se  Se220  1  0.76107720  0.41385111  0.82107890  1
  Se  Se221  1  0.75072385  0.74864188  0.29904914  1
  Se  Se222  1  0.74537312  0.74678986  0.80799343  1
  Se  Se223  1  0.25225256  0.10502636  0.17597858  1
  Se  Se224  1  0.24975327  0.09519221  0.69566146  1
  Se  Se225  1  0.24769964  0.40294223  0.18769971  1
  Se  Se226  1  0.25257798  0.41426856  0.70300048  1
  Se  Se227  1  0.25123493  0.75864727  0.18389358  1
  Se  Se228  1  0.24233452  0.76227386  0.69867914  1
  Se  Se229  1  0.57869439  0.08078353  0.18983551  1
  Se  Se230  1  0.58247677  0.08185469  0.70811062  1
  Se  Se231  1  0.58417088  0.41274915  0.19384823  1
  Se  Se232  1  0.57674570  0.42000788  0.69269050  1
  Se  Se233  1  0.58580070  0.74748301  0.19550817  1
  Se  Se234  1  0.58325201  0.74419719  0.70476531  1
  Se  Se235  1  0.92231207  0.08897212  0.19045234  1
  Se  Se236  1  0.91454579  0.08666112  0.70052021  1
  Se  Se237  1  0.91297820  0.42234228  0.18070099  1
  Se  Se238  1  0.91429251  0.40937581  0.70781328  1
  Se  Se239  1  0.91454568  0.75753206  0.18285946  1
  Se  Se240  1  0.91309417  0.75228547  0.70395366  1
  Se  Se241  1  0.09062732  0.24660088  0.18174840  1
  Se  Se242  1  0.08570956  0.25060383  0.70353956  1
  Se  Se243  1  0.08259333  0.56746703  0.18467051  1
  Se  Se244  1  0.08498157  0.58189276  0.70755216  1
  Se  Se245  1  0.08193528  0.92786178  0.19360948  1
  Se  Se246  1  0.08415336  0.93136109  0.70539170  1
  Se  Se247  1  0.41048703  0.24751491  0.18076007  1
  Se  Se248  1  0.41418735  0.24538242  0.69967083  1
  Se  Se249  1  0.41648267  0.57532190  0.18047295  1
  Se  Se250  1  0.42141039  0.57044722  0.69357396  1
  Se  Se251  1  0.42160584  0.91143040  0.18321341  1
  Se  Se252  1  0.42118169  0.90937152  0.69954499  1
  Se  Se253  1  0.75262598  0.25425524  0.19075169  1
  Se  Se254  1  0.75488269  0.24295872  0.68848941  1
  Se  Se255  1  0.74613032  0.58458926  0.19401652  1
  Se  Se256  1  0.74873056  0.58084555  0.70443887  1
  Se  Se257  1  0.74955994  0.91980951  0.19759903  1
  Se  Se258  1  0.74638202  0.91751022  0.70267407  1
