# generated using pymatgen
data_In86Cu29Se144
_symmetry_space_group_name_H-M   'P 1'
_cell_length_a   17.58807453
_cell_length_b   17.58841204
_cell_length_c   23.43986420
_cell_angle_alpha   89.98416496
_cell_angle_beta   89.98424572
_cell_angle_gamma   89.98698488
_symmetry_Int_Tables_number   1
_chemical_formula_structural   In86Cu29Se144
_chemical_formula_sum   'In86 Cu29 Se144'
_cell_volume   7251.03457118
_cell_formula_units_Z   1
loop_
 _symmetry_equiv_pos_site_id
 _symmetry_equiv_pos_as_xyz
  1  'x, y, z'
loop_
 _atom_site_type_symbol
 _atom_site_label
 _atom_site_symmetry_multiplicity
 _atom_site_fract_x
 _atom_site_fract_y
 _atom_site_fract_z
 _atom_site_occupancy
  In  In0  1  -0.00794936  0.15913975  0.11850939  1
  In  In1  1  -0.01356497  0.15416303  0.61790126  1
  In  In2  1  0.01192004  0.52022182  0.11129190  1
  In  In3  1  0.01500564  0.50165404  0.62070585  1
  In  In4  1  0.01325372  0.82484700  0.13495389  1
  In  In5  1  0.00253389  0.83505545  0.62612565  1
  In  In6  1  0.34198193  0.17915942  0.11484746  1
  In  In7  1  0.32475622  0.17808898  0.62354278  1
  In  In8  1  0.32431705  0.51281059  0.13512459  1
  In  In9  1  0.32979552  0.50968195  0.62381412  1
  In  In10  1  0.32485805  0.83006852  0.12404523  1
  In  In11  1  0.33254430  0.83647922  0.61486825  1
  In  In12  1  0.66974732  0.16728236  0.12646610  1
  In  In13  1  0.68015949  0.16861213  0.62634541  1
  In  In14  1  0.66532730  0.48783635  0.12607670  1
  In  In15  1  0.66698373  0.49091675  0.62951675  1
  In  In16  1  0.66560761  0.85101517  0.13084199  1
  In  In17  1  0.66475347  0.82990731  0.61420603  1
  In  In18  1  0.15349121  0.00801699  0.37651673  1
  In  In19  1  0.15954091  0.00606881  0.87990434  1
  In  In20  1  0.16956812  0.32622045  0.37408697  1
  In  In21  1  0.16379473  0.33759494  0.89211139  1
  In  In22  1  0.16386414  0.66813191  0.37514234  1
  In  In23  1  0.14997326  0.68017072  0.89043956  1
  In  In24  1  0.50470112  -0.02029572  0.36913699  1
  In  In25  1  0.50125448  0.00069220  0.88347675  1
  In  In26  1  0.50073783  0.33325909  0.36655225  1
  In  In27  1  0.49620753  0.31798902  0.88219461  1
  In  In28  1  0.49159340  0.68915931  0.36957090  1
  In  In29  1  0.50081618  0.67240573  0.88278827  1
  In  In30  1  0.83319073  -0.00061722  0.37423603  1
  In  In31  1  0.84768901  0.00074812  0.87292429  1
  In  In32  1  0.81974491  0.32648334  0.37626680  1
  In  In33  1  0.82808844  0.33506363  0.87932577  1
  In  In34  1  0.85609775  0.67003467  0.37416706  1
  In  In35  1  0.83981503  0.65478955  0.87687523  1
  In  In36  1  0.00279068  0.15620252  0.37704000  1
  In  In37  1  0.00304922  0.15988265  0.88058377  1
  In  In38  1  0.00658896  0.52020012  0.37208766  1
  In  In39  1  -0.00150237  0.50387249  0.88222440  1
  In  In40  1  -0.00301730  0.83151445  0.37798549  1
  In  In41  1  0.00452735  0.83816447  0.86653048  1
  In  In42  1  0.31976063  0.16633937  0.36969089  1
  In  In43  1  0.33118361  0.17504692  0.89405258  1
  In  In44  1  0.32363086  0.49162906  0.36425908  1
  In  In45  1  0.31149715  0.49277082  0.88425630  1
  In  In46  1  0.34263322  0.82393599  0.37474301  1
  In  In47  1  0.33321267  0.82965367  0.88207968  1
  In  In48  1  0.67909360  0.17386877  0.37062288  1
  In  In49  1  0.66449729  0.16944133  0.88127295  1
  In  In50  1  0.67012121  0.48525369  0.37167060  1
  In  In51  1  0.68569691  0.50026301  0.87840992  1
  In  In52  1  0.65747345  0.84378509  0.37781877  1
  In  In53  1  0.65887555  0.83143468  0.87795194  1
  In  In54  1  0.16099582  -0.00734246  0.12271221  1
  In  In55  1  0.15039723  -0.01519855  0.61369629  1
  In  In56  1  0.17859523  0.34470780  0.11485338  1
  In  In57  1  0.16221421  0.33244586  0.61350685  1
  In  In58  1  0.16207518  0.67393177  0.12654535  1
  In  In59  1  0.15655141  0.66347446  0.61347227  1
  In  In60  1  0.50522667  0.00975986  0.12175116  1
  In  In61  1  0.50630388  -0.00724307  0.62256896  1
  In  In62  1  0.51085531  0.32802009  0.13461703  1
  In  In63  1  0.50482839  0.33837413  0.63092081  1
  In  In64  1  0.48374175  0.66910120  0.13101507  1
  In  In65  1  0.49614210  0.67012281  0.62054081  1
  In  In66  1  0.82843090  0.00621628  0.13147420  1
  In  In67  1  0.84553791  0.01213116  0.62123252  1
  In  In68  1  0.82673607  0.32921651  0.11988030  1
  In  In69  1  0.82903409  0.31822609  0.62218613  1
  In  In70  1  0.85176487  0.66940479  0.12296066  1
  In  In71  1  0.84125049  0.68305867  0.61751194  1
  In  In72  1  0.33287780  -0.00003847  0.24759571  1
  In  In73  1  -0.00309309  0.33376548  0.23948826  1
  In  In74  1  0.33361826  0.66585363  0.75056427  1
  In  In75  1  -0.00272122  0.32832314  0.75016456  1
  In  In76  1  0.49761350  0.50252111  0.00701451  1
  In  In77  1  0.33041098  0.33318534  0.76559478  1
  In  In78  1  0.83980796  0.49812755  0.49961108  1
  In  In79  1  0.67610184  0.66804111  0.74242584  1
  In  In80  1  0.66788617  0.66625726  0.25452254  1
  In  In81  1  0.49987895  0.15874490  0.50298328  1
  In  In82  1  0.49707482  0.50227378  0.49478915  1
  In  In83  1  0.83666924  0.83479066  -0.00261353  1
  In  In84  1  0.66998670  -0.00077237  0.75322196  1
  In  In85  1  0.33031444  0.00017540  0.74595537  1
  Cu  Cu86  1  0.33212244  -0.00371451  0.00504953  1
  Cu  Cu87  1  0.32798966  -0.00120859  0.48977335  1
  Cu  Cu88  1  -0.00531036  -0.00204419  0.49795801  1
  Cu  Cu89  1  0.32795933  0.33251029  0.49413276  1
  Cu  Cu90  1  -0.00745923  0.33140922  0.00177041  1
  Cu  Cu91  1  0.66548235  0.33109501  0.00377442  1
  Cu  Cu92  1  -0.00004587  -0.00609954  0.00080379  1
  Cu  Cu93  1  0.83913893  0.83819227  0.25249404  1
  Cu  Cu94  1  0.83575314  0.49714897  0.25079033  1
  Cu  Cu95  1  0.16589877  0.50107381  0.74795881  1
  Cu  Cu96  1  0.00150629  0.33232060  0.49525586  1
  Cu  Cu97  1  0.16449170  0.83365917  0.25199922  1
  Cu  Cu98  1  0.15811195  0.15944190  0.75209803  1
  Cu  Cu99  1  0.66732544  -0.00413310  0.49793260  1
  Cu  Cu100  1  0.16264172  0.50437769  0.24520949  1
  Cu  Cu101  1  0.49700291  0.49831524  0.24887133  1
  Cu  Cu102  1  0.50158345  0.16507628  0.76047782  1
  Cu  Cu103  1  0.32654255  0.66806168  0.49707680  1
  Cu  Cu104  1  0.67113134  0.66799444  0.49244008  1
  Cu  Cu105  1  0.50625338  0.16333315  0.24680732  1
  Cu  Cu106  1  0.83762998  0.83541151  0.74569305  1
  Cu  Cu107  1  0.66574926  0.00761566  0.00571060  1
  Cu  Cu108  1  0.16897834  0.17171144  0.24765270  1
  Cu  Cu109  1  0.66645491  0.67417195  0.00071401  1
  Cu  Cu110  1  0.51309325  0.49501972  0.75728865  1
  Cu  Cu111  1  0.84349906  0.49566862  0.75440632  1
  Cu  Cu112  1  0.83378336  0.16309705  0.24717437  1
  Cu  Cu113  1  0.16227497  0.83124669  0.74817626  1
  Cu  Cu114  1  0.32470467  0.66938501  0.00848255  1
  Se  Se115  1  0.08258691  0.07924646  0.05339943  1
  Se  Se116  1  0.08023318  0.08393295  0.54990070  1
  Se  Se117  1  0.07879742  0.41505539  0.05199976  1
  Se  Se118  1  0.08474566  0.41896791  0.54539632  1
  Se  Se119  1  0.07703818  0.74918556  0.05498412  1
  Se  Se120  1  0.09817047  0.77183452  0.55597206  1
  Se  Se121  1  0.41782568  0.08340835  0.05168579  1
  Se  Se122  1  0.40195229  0.07243014  0.56124119  1
  Se  Se123  1  0.41564313  0.41831129  0.07367264  1
  Se  Se124  1  0.40840158  0.40827084  0.55798403  1
  Se  Se125  1  0.41503330  0.75121715  0.05525706  1
  Se  Se126  1  0.41543732  0.74772202  0.54997964  1
  Se  Se127  1  0.75473016  0.08644429  0.05618143  1
  Se  Se128  1  0.74648572  0.07938079  0.55429035  1
  Se  Se129  1  0.74909365  0.41967881  0.05137464  1
  Se  Se130  1  0.74327179  0.40956664  0.55424891  1
  Se  Se131  1  0.74559145  0.75200905  0.06390786  1
  Se  Se132  1  0.75219722  0.75196882  0.54659644  1
  Se  Se133  1  0.23956030  0.24103376  0.05146646  1
  Se  Se134  1  0.24565190  0.24713655  0.54689260  1
  Se  Se135  1  0.24329673  0.58311109  0.05922458  1
  Se  Se136  1  0.24845330  0.58041407  0.55054912  1
  Se  Se137  1  0.24518778  0.91249585  0.05351951  1
  Se  Se138  1  0.24740536  0.91594010  0.54745342  1
  Se  Se139  1  0.58293757  0.24883647  0.05790715  1
  Se  Se140  1  0.58583987  0.25431448  0.56024963  1
  Se  Se141  1  0.58935057  0.59466150  0.06511429  1
  Se  Se142  1  0.59497584  0.58757326  0.55679853  1
  Se  Se143  1  0.58391049  0.91852382  0.05390528  1
  Se  Se144  1  0.57869978  0.91322060  0.54782946  1
  Se  Se145  1  0.90994356  0.24582190  0.05251686  1
  Se  Se146  1  0.91809271  0.25115582  0.55004059  1
  Se  Se147  1  0.91150176  0.58499011  0.04639629  1
  Se  Se148  1  0.92890093  0.59201915  0.55454570  1
  Se  Se149  1  0.92059252  0.91848966  0.06529953  1
  Se  Se150  1  0.91518621  0.91546583  0.55653233  1
  Se  Se151  1  0.08334258  0.24675139  0.44168929  1
  Se  Se152  1  0.07806399  0.24696101  0.95067691  1
  Se  Se153  1  0.08784969  0.58455482  0.44781852  1
  Se  Se154  1  0.11067658  0.55679219  0.94101082  1
  Se  Se155  1  0.08163963  0.91774183  0.44531989  1
  Se  Se156  1  0.08112348  0.91271838  0.94378168  1
  Se  Se157  1  0.41298696  0.25105271  0.43976425  1
  Se  Se158  1  0.41732714  0.25459732  0.95976499  1
  Se  Se159  1  0.40774210  0.59003527  0.43437027  1
  Se  Se160  1  0.40250494  0.58930505  0.94415556  1
  Se  Se161  1  0.41725889  0.91530281  0.44401299  1
  Se  Se162  1  0.41595733  0.91561926  0.94786089  1
  Se  Se163  1  0.75077520  0.24449936  0.45038946  1
  Se  Se164  1  0.75014521  0.24947882  0.94952044  1
  Se  Se165  1  0.74774264  0.58453700  0.43440683  1
  Se  Se166  1  0.75125422  0.58950340  0.95112756  1
  Se  Se167  1  0.75229804  0.91410582  0.44448055  1
  Se  Se168  1  0.74230495  0.92792367  0.94016173  1
  Se  Se169  1  0.24502512  0.08702144  0.44321641  1
  Se  Se170  1  0.24841376  0.07854009  0.94981408  1
  Se  Se171  1  0.24688990  0.41766724  0.44146050  1
  Se  Se172  1  0.26928926  0.39339359  0.95659832  1
  Se  Se173  1  0.24861186  0.75440714  0.44237796  1
  Se  Se174  1  0.24653712  0.75509132  0.95195230  1
  Se  Se175  1  0.58683520  0.07525430  0.43646073  1
  Se  Se176  1  0.58056084  0.08777515  0.94967072  1
  Se  Se177  1  0.58780369  0.40361738  0.44530146  1
  Se  Se178  1  0.58866865  0.41671280  0.94280704  1
  Se  Se179  1  0.58156003  0.74997672  0.44435407  1
  Se  Se180  1  0.57921036  0.75620670  0.95240125  1
  Se  Se181  1  0.91192315  0.08410965  0.44598744  1
  Se  Se182  1  0.91580771  0.08005163  0.95040973  1
  Se  Se183  1  0.92502368  0.41169284  0.43165204  1
  Se  Se184  1  0.91339985  0.41761002  0.94588702  1
  Se  Se185  1  0.92091144  0.74868929  0.45114013  1
  Se  Se186  1  0.92673387  0.74505283  0.93940121  1
  Se  Se187  1  0.25282766  0.25620719  0.29763057  1
  Se  Se188  1  0.23532550  0.23830166  0.81551736  1
  Se  Se189  1  0.24480450  0.58565612  0.30259663  1
  Se  Se190  1  0.24060163  0.58151905  0.81109489  1
  Se  Se191  1  0.24410259  0.91534654  0.31232386  1
  Se  Se192  1  0.24436704  0.90926356  0.80882016  1
  Se  Se193  1  0.58650503  0.24797890  0.30308497  1
  Se  Se194  1  0.58437986  0.25182035  0.80901017  1
  Se  Se195  1  0.57436163  0.57609445  0.31441370  1
  Se  Se196  1  0.58694415  0.58500250  0.81284838  1
  Se  Se197  1  0.58774000  0.91122492  0.29559119  1
  Se  Se198  1  0.57188190  0.91064084  0.80665354  1
  Se  Se199  1  0.91333345  0.24597974  0.30703543  1
  Se  Se200  1  0.91083029  0.24246102  0.81290990  1
  Se  Se201  1  0.91982785  0.58521571  0.29697561  1
  Se  Se202  1  0.92484646  0.58177311  0.80446771  1
  Se  Se203  1  0.92245388  0.92048866  0.30687151  1
  Se  Se204  1  0.91957975  0.91950716  0.79854178  1
  Se  Se205  1  0.08387645  0.08839278  0.29882441  1
  Se  Se206  1  0.07579426  0.07685236  0.80494810  1
  Se  Se207  1  0.08426119  0.41999832  0.30546004  1
  Se  Se208  1  0.09160022  0.41526145  0.80894268  1
  Se  Se209  1  0.08034032  0.75108844  0.30613557  1
  Se  Se210  1  0.08469424  0.74375689  0.80324344  1
  Se  Se211  1  0.42515844  0.08797848  0.31064798  1
  Se  Se212  1  0.41273193  0.08943910  0.81473647  1
  Se  Se213  1  0.41343613  0.41111399  0.29940693  1
  Se  Se214  1  0.42426717  0.42824474  0.81878062  1
  Se  Se215  1  0.41321256  0.75606057  0.29259172  1
  Se  Se216  1  0.42499844  0.75654725  0.80773158  1
  Se  Se217  1  0.75042842  0.08114166  0.30293757  1
  Se  Se218  1  0.75695660  0.09063649  0.81092579  1
  Se  Se219  1  0.75265580  0.41069602  0.29924775  1
  Se  Se220  1  0.75360499  0.41667249  0.80315452  1
  Se  Se221  1  0.75893870  0.75584531  0.31321544  1
  Se  Se222  1  0.75884819  0.75806519  0.81001975  1
  Se  Se223  1  0.24788670  0.09088094  0.18553896  1
  Se  Se224  1  0.23764896  0.08699308  0.68631499  1
  Se  Se225  1  0.24645303  0.41606213  0.19754616  1
  Se  Se226  1  0.24760957  0.41740265  0.69206206  1
  Se  Se227  1  0.24791629  0.75091602  0.19806699  1
  Se  Se228  1  0.24667204  0.75501377  0.68817943  1
  Se  Se229  1  0.59010250  0.08002356  0.19582829  1
  Se  Se230  1  0.57468032  0.08937235  0.69320762  1
  Se  Se231  1  0.58860178  0.41642838  0.20338090  1
  Se  Se232  1  0.59107370  0.41004129  0.70294005  1
  Se  Se233  1  0.58070397  0.75384128  0.19209318  1
  Se  Se234  1  0.57689756  0.75691084  0.69148180  1
  Se  Se235  1  0.92213884  0.08176665  0.19774372  1
  Se  Se236  1  0.91245228  0.09032251  0.69904692  1
  Se  Se237  1  0.91299723  0.42848660  0.18047597  1
  Se  Se238  1  0.91550463  0.42068124  0.68461909  1
  Se  Se239  1  0.91831719  0.74994771  0.20067307  1
  Se  Se240  1  0.92074676  0.74850707  0.69600830  1
  Se  Se241  1  0.08991771  0.24601973  0.18202405  1
  Se  Se242  1  0.08857376  0.24345134  0.68714463  1
  Se  Se243  1  0.07809503  0.58885151  0.19549864  1
  Se  Se244  1  0.08689078  0.58611953  0.69379401  1
  Se  Se245  1  0.08317089  0.92172598  0.20122823  1
  Se  Se246  1  0.08126939  0.92061898  0.69826787  1
  Se  Se247  1  0.41818993  0.24506114  0.19658635  1
  Se  Se248  1  0.41966614  0.24441572  0.69860617  1
  Se  Se249  1  0.41204561  0.58777188  0.20539099  1
  Se  Se250  1  0.43179419  0.57137912  0.69517881  1
  Se  Se251  1  0.42209736  0.91392796  0.18667902  1
  Se  Se252  1  0.42238164  0.90653955  0.69185407  1
  Se  Se253  1  0.75220695  0.25124979  0.19615584  1
  Se  Se254  1  0.74785030  0.25371985  0.69902937  1
  Se  Se255  1  0.75569015  0.57977051  0.18963672  1
  Se  Se256  1  0.76849323  0.57530764  0.68668816  1
  Se  Se257  1  0.75227805  0.92051322  0.20283173  1
  Se  Se258  1  0.75250566  0.91025916  0.68642512  1
