# generated using pymatgen
data_In86Cu29Se144
_symmetry_space_group_name_H-M   'P 1'
_cell_length_a   17.57797258
_cell_length_b   17.57800304
_cell_length_c   23.44090240
_cell_angle_alpha   90.01406400
_cell_angle_beta   89.99581396
_cell_angle_gamma   90.00830268
_symmetry_Int_Tables_number   1
_chemical_formula_structural   In86Cu29Se144
_chemical_formula_sum   'In86 Cu29 Se144'
_cell_volume   7242.90227911
_cell_formula_units_Z   1
loop_
 _symmetry_equiv_pos_site_id
 _symmetry_equiv_pos_as_xyz
  1  'x, y, z'
loop_
 _atom_site_type_symbol
 _atom_site_label
 _atom_site_symmetry_multiplicity
 _atom_site_fract_x
 _atom_site_fract_y
 _atom_site_fract_z
 _atom_site_occupancy
  In  In0  1  0.01593792  0.16845944  0.12349008  1
  In  In1  1  -0.00821853  0.17704756  0.63340289  1
  In  In2  1  0.00206062  0.49838055  0.12647442  1
  In  In3  1  0.00302762  0.49961564  0.62579620  1
  In  In4  1  -0.00788281  0.82148584  0.13090030  1
  In  In5  1  0.01077424  0.82082784  0.62910024  1
  In  In6  1  0.33161080  0.16616833  0.12344084  1
  In  In7  1  0.33190426  0.16797638  0.63636956  1
  In  In8  1  0.33926453  0.51366968  0.11077092  1
  In  In9  1  0.32068125  0.50098651  0.62329162  1
  In  In10  1  0.33767907  0.83256945  0.13573171  1
  In  In11  1  0.34308655  0.83311535  0.61472895  1
  In  In12  1  0.66491811  0.17864541  0.12016717  1
  In  In13  1  0.66097882  0.15719272  0.62421093  1
  In  In14  1  0.67149005  0.51402223  0.10933104  1
  In  In15  1  0.68583297  0.49956339  0.62415118  1
  In  In16  1  0.66786178  0.82326403  0.13266018  1
  In  In17  1  0.65745089  0.83783923  0.62831654  1
  In  In18  1  0.17141339  -0.01658981  0.38004034  1
  In  In19  1  0.17715763  0.00792895  0.86492880  1
  In  In20  1  0.17020790  0.36305977  0.37882717  1
  In  In21  1  0.16448638  0.33417004  0.87431133  1
  In  In22  1  0.16507979  0.66842913  0.37261056  1
  In  In23  1  0.15736759  0.66873344  0.87750571  1
  In  In24  1  0.47878351  -0.00013424  0.37066959  1
  In  In25  1  0.50395755  0.00468749  0.87146424  1
  In  In26  1  0.49947340  0.33009940  0.37426409  1
  In  In27  1  0.48465205  0.33975947  0.87988387  1
  In  In28  1  0.51130694  0.67155800  0.36943739  1
  In  In29  1  0.50802346  0.65429180  0.88242112  1
  In  In30  1  0.84439242  0.00481506  0.38338635  1
  In  In31  1  0.82858465  -0.00371684  0.86166089  1
  In  In32  1  0.84332232  0.32091316  0.38450214  1
  In  In33  1  0.84936740  0.34220425  0.87114771  1
  In  In34  1  0.81984451  0.65760575  0.36490863  1
  In  In35  1  0.82469343  0.65570367  0.86871717  1
  In  In36  1  -0.00870829  0.16430722  0.38035974  1
  In  In37  1  0.01071293  0.17640942  0.86608453  1
  In  In38  1  0.00054700  0.50088687  0.37255479  1
  In  In39  1  0.00152361  0.50063995  0.87682610  1
  In  In40  1  0.01382211  0.83097026  0.37776945  1
  In  In41  1  -0.00638751  0.82671164  0.86209474  1
  In  In42  1  0.34333381  0.15964219  0.37244336  1
  In  In43  1  0.32916754  0.16763086  0.87636090  1
  In  In44  1  0.31369701  0.50412149  0.38218608  1
  In  In45  1  0.34319797  0.49510144  0.88427577  1
  In  In46  1  0.33072361  0.82899782  0.37640236  1
  In  In47  1  0.32364490  0.83296498  0.87261938  1
  In  In48  1  0.67269129  0.17504569  0.37736762  1
  In  In49  1  0.66230000  0.15540488  0.87459926  1
  In  In50  1  0.66514547  0.51069609  0.37625873  1
  In  In51  1  0.66251169  0.51174394  0.88307949  1
  In  In52  1  0.67125342  0.81401471  0.37548505  1
  In  In53  1  0.66296670  0.83105493  0.86613819  1
  In  In54  1  0.16854459  0.01791881  0.12176767  1
  In  In55  1  0.17803718  -0.00934519  0.63346485  1
  In  In56  1  0.16330368  0.33081777  0.12371913  1
  In  In57  1  0.16376199  0.33773166  0.63099000  1
  In  In58  1  0.17694080  0.65557881  0.13445744  1
  In  In59  1  0.16446899  0.65291710  0.61304038  1
  In  In60  1  0.48785187  -0.00036715  0.12482043  1
  In  In61  1  0.50327736  -0.00558799  0.63134710  1
  In  In62  1  0.49587323  0.33578385  0.11603618  1
  In  In63  1  0.49886284  0.32355035  0.62911126  1
  In  In64  1  0.50188371  0.65994743  0.12812038  1
  In  In65  1  0.49214554  0.68141092  0.62356713  1
  In  In66  1  0.83021962  -0.00323678  0.12308380  1
  In  In67  1  0.82444774  0.00912022  0.62998243  1
  In  In68  1  0.82603007  0.35060054  0.12578590  1
  In  In69  1  0.84258948  0.35107814  0.61171139  1
  In  In70  1  0.84359038  0.65766092  0.13680962  1
  In  In71  1  0.84676463  0.65766975  0.62864908  1
  In  In72  1  0.66908808  0.33182926  0.74567057  1
  In  In73  1  0.66399019  -0.00310015  0.24279173  1
  In  In74  1  0.16323089  0.17107900  0.51170657  1
  In  In75  1  0.50159564  0.49978507  0.49815969  1
  In  In76  1  0.83788673  0.17737118  -0.01213924  1
  In  In77  1  0.50290643  0.16598091  0.49671066  1
  In  In78  1  0.83839339  0.82842359  0.50128183  1
  In  In79  1  0.32802726  0.33642827  0.25120307  1
  In  In80  1  0.00598208  -0.00657891  0.25365595  1
  In  In81  1  0.16615010  0.83161444  -0.00384567  1
  In  In82  1  0.50214848  0.82879093  0.00440123  1
  In  In83  1  0.33155115  0.66773383  0.74963149  1
  In  In84  1  0.66274608  0.33872871  0.25332222  1
  In  In85  1  0.83372925  0.82589231  0.00571150  1
  Cu  Cu86  1  0.16447826  0.16659365  0.75039614  1
  Cu  Cu87  1  0.83258003  0.16704650  0.74937931  1
  Cu  Cu88  1  0.17043945  0.83149744  0.25437776  1
  Cu  Cu89  1  0.33246021  -0.00414526  0.50227966  1
  Cu  Cu90  1  0.84179561  0.16731047  0.25521459  1
  Cu  Cu91  1  0.16192736  0.49944992  0.74996420  1
  Cu  Cu92  1  0.00743603  0.34121973  0.50199150  1
  Cu  Cu93  1  0.49828201  0.83671226  0.74807578  1
  Cu  Cu94  1  0.49682204  0.83375466  0.25240272  1
  Cu  Cu95  1  0.66067426  -0.00561991  0.50537887  1
  Cu  Cu96  1  -0.00239435  0.00237264  0.50464649  1
  Cu  Cu97  1  0.33173797  0.00576730  -0.00089368  1
  Cu  Cu98  1  0.84198868  0.50197335  0.74840295  1
  Cu  Cu99  1  0.16974666  0.16894998  0.24932357  1
  Cu  Cu100  1  0.83709352  0.49725188  0.24852981  1
  Cu  Cu101  1  -0.00068807  0.65694363  0.00266383  1
  Cu  Cu102  1  0.49296049  0.16585589  0.75289205  1
  Cu  Cu103  1  0.16088774  0.50543286  0.24946188  1
  Cu  Cu104  1  0.66431673  0.00190054  -0.00508993  1
  Cu  Cu105  1  0.00170333  0.33796110  -0.00073501  1
  Cu  Cu106  1  0.00677930  0.00355207  -0.00734726  1
  Cu  Cu107  1  0.50147526  0.50102487  0.75905902  1
  Cu  Cu108  1  0.32470785  0.32826248  -0.00084153  1
  Cu  Cu109  1  0.66825232  0.66550970  0.49796410  1
  Cu  Cu110  1  0.49757373  0.50338661  0.24690363  1
  Cu  Cu111  1  0.00099076  0.65586338  0.49887087  1
  Cu  Cu112  1  0.83136204  0.83397460  0.74210156  1
  Cu  Cu113  1  0.16626781  0.83175125  0.74770440  1
  Cu  Cu114  1  0.65881931  0.33906871  -0.00327196  1
  Se  Se115  1  0.08594181  0.08840350  0.04651338  1
  Se  Se116  1  0.07709109  0.07679849  0.56942426  1
  Se  Se117  1  0.08496316  0.41817456  0.05549287  1
  Se  Se118  1  0.09142264  0.42098558  0.55658702  1
  Se  Se119  1  0.07819307  0.74364959  0.05981844  1
  Se  Se120  1  0.08081092  0.74484156  0.55050434  1
  Se  Se121  1  0.41737689  0.08613099  0.05285114  1
  Se  Se122  1  0.41115968  0.08055942  0.56069135  1
  Se  Se123  1  0.41080927  0.41461904  0.04839406  1
  Se  Se124  1  0.41551836  0.41052170  0.56148529  1
  Se  Se125  1  0.40575181  0.74453145  0.06082893  1
  Se  Se126  1  0.41273422  0.74272460  0.54510636  1
  Se  Se127  1  0.74947739  0.08319231  0.05175824  1
  Se  Se128  1  0.74544873  0.08109929  0.55251942  1
  Se  Se129  1  0.74899812  0.41766160  0.04731205  1
  Se  Se130  1  0.74607279  0.41815865  0.54623509  1
  Se  Se131  1  0.74509257  0.73532684  0.06324490  1
  Se  Se132  1  0.74632867  0.74367743  0.56311815  1
  Se  Se133  1  0.24499612  0.24561359  0.05606286  1
  Se  Se134  1  0.26154354  0.25824653  0.56313122  1
  Se  Se135  1  0.23459654  0.58048417  0.05137597  1
  Se  Se136  1  0.26605121  0.59132170  0.54832441  1
  Se  Se137  1  0.25577735  0.92095933  0.05968278  1
  Se  Se138  1  0.24628899  0.91413840  0.55411932  1
  Se  Se139  1  0.58040322  0.25079203  0.04883531  1
  Se  Se140  1  0.59230491  0.25819170  0.55576481  1
  Se  Se141  1  0.56658586  0.57846014  0.05007328  1
  Se  Se142  1  0.58893505  0.58881788  0.56243805  1
  Se  Se143  1  0.59514218  0.92268208  0.06292849  1
  Se  Se144  1  0.57429872  0.91278720  0.55479769  1
  Se  Se145  1  0.92044004  0.25700016  0.06051862  1
  Se  Se146  1  0.92440563  0.25394466  0.55337589  1
  Se  Se147  1  0.91368988  0.57963925  0.05852791  1
  Se  Se148  1  0.91613875  0.57572259  0.55309756  1
  Se  Se149  1  0.93055061  0.92466328  0.05604377  1
  Se  Se150  1  0.92000803  0.91959798  0.56578391  1
  Se  Se151  1  0.08348682  0.25695508  0.44059920  1
  Se  Se152  1  0.08094843  0.25109034  0.94534603  1
  Se  Se153  1  0.08728341  0.57902971  0.44210245  1
  Se  Se154  1  0.08655692  0.57999528  0.94806672  1
  Se  Se155  1  0.08004476  0.91841679  0.45237301  1
  Se  Se156  1  0.07801604  0.91791505  0.93174679  1
  Se  Se157  1  0.40540851  0.25829751  0.44473956  1
  Se  Se158  1  0.41321035  0.24682788  0.94754006  1
  Se  Se159  1  0.41652437  0.58948008  0.43605987  1
  Se  Se160  1  0.41459979  0.58961492  0.94980546  1
  Se  Se161  1  0.41451223  0.91487353  0.44597023  1
  Se  Se162  1  0.41051394  0.91905343  0.94252083  1
  Se  Se163  1  0.75298675  0.24456377  0.45049032  1
  Se  Se164  1  0.74013770  0.26419125  0.93200759  1
  Se  Se165  1  0.75388251  0.58273339  0.44736017  1
  Se  Se166  1  0.75845727  0.58112994  0.94855218  1
  Se  Se167  1  0.74397207  0.91898927  0.44223279  1
  Se  Se168  1  0.74717604  0.91903182  0.94074927  1
  Se  Se169  1  0.25289441  0.08206065  0.44582426  1
  Se  Se170  1  0.24401674  0.08359450  0.94538449  1
  Se  Se171  1  0.25706885  0.41359485  0.45734750  1
  Se  Se172  1  0.24723921  0.41546913  0.94473313  1
  Se  Se173  1  0.22630163  0.76860398  0.43979829  1
  Se  Se174  1  0.26078489  0.73768652  0.94482326  1
  Se  Se175  1  0.58799988  0.07119572  0.43566411  1
  Se  Se176  1  0.57663886  0.08540630  0.94816812  1
  Se  Se177  1  0.59324463  0.40615072  0.43991766  1
  Se  Se178  1  0.57567838  0.42158153  0.94297551  1
  Se  Se179  1  0.58252069  0.74972088  0.44899105  1
  Se  Se180  1  0.59880461  0.74531072  0.94592410  1
  Se  Se181  1  0.91411628  0.08939541  0.45697023  1
  Se  Se182  1  0.92027080  0.07632456  0.93276341  1
  Se  Se183  1  0.92118890  0.41773339  0.44466786  1
  Se  Se184  1  0.91611089  0.42146813  0.94894111  1
  Se  Se185  1  0.92127551  0.73779295  0.43762215  1
  Se  Se186  1  0.92429882  0.74224857  0.94161362  1
  Se  Se187  1  0.24087672  0.24839409  0.31709223  1
  Se  Se188  1  0.24753624  0.24970152  0.80584405  1
  Se  Se189  1  0.24851585  0.58384400  0.30314095  1
  Se  Se190  1  0.24484748  0.57753732  0.81158031  1
  Se  Se191  1  0.25411621  0.91813034  0.30378687  1
  Se  Se192  1  0.25281320  0.91461080  0.79865172  1
  Se  Se193  1  0.57401351  0.23713713  0.30443690  1
  Se  Se194  1  0.57631286  0.24892119  0.81022375  1
  Se  Se195  1  0.58682931  0.58213602  0.29975539  1
  Se  Se196  1  0.58834291  0.58668790  0.80427617  1
  Se  Se197  1  0.58114244  0.91170368  0.31209824  1
  Se  Se198  1  0.58293250  0.92017581  0.80184702  1
  Se  Se199  1  0.92424079  0.25154889  0.30621553  1
  Se  Se200  1  0.91669847  0.25164739  0.80051280  1
  Se  Se201  1  0.91726482  0.58278360  0.30289390  1
  Se  Se202  1  0.92287957  0.58515363  0.80470566  1
  Se  Se203  1  0.91101525  0.90909287  0.31331292  1
  Se  Se204  1  0.91604099  0.91641883  0.79594241  1
  Se  Se205  1  0.09299708  0.08704929  0.31397041  1
  Se  Se206  1  0.08002332  0.07930240  0.80012233  1
  Se  Se207  1  0.08183369  0.41637189  0.30083471  1
  Se  Se208  1  0.07957135  0.41602663  0.80527848  1
  Se  Se209  1  0.08035949  0.74926361  0.30064748  1
  Se  Se210  1  0.08534438  0.74472273  0.79985900  1
  Se  Se211  1  0.41730141  0.08727085  0.29621335  1
  Se  Se212  1  0.41130508  0.08167576  0.80718060  1
  Se  Se213  1  0.42006340  0.42740535  0.31152488  1
  Se  Se214  1  0.41135140  0.41828427  0.80353054  1
  Se  Se215  1  0.41597817  0.74875758  0.30648618  1
  Se  Se216  1  0.42591452  0.75331476  0.81245645  1
  Se  Se217  1  0.75741675  0.08412047  0.30802022  1
  Se  Se218  1  0.74401201  0.08537034  0.79926739  1
  Se  Se219  1  0.75899553  0.41951954  0.31355882  1
  Se  Se220  1  0.75393366  0.42472645  0.80747830  1
  Se  Se221  1  0.74593648  0.74732554  0.29726681  1
  Se  Se222  1  0.75318434  0.75145208  0.80234115  1
  Se  Se223  1  0.25239980  0.08496911  0.19733187  1
  Se  Se224  1  0.25151782  0.08138908  0.70196199  1
  Se  Se225  1  0.24556576  0.42775213  0.18841477  1
  Se  Se226  1  0.25069589  0.41887142  0.69920036  1
  Se  Se227  1  0.25310601  0.74768121  0.20012459  1
  Se  Se228  1  0.24501617  0.75277795  0.68464450  1
  Se  Se229  1  0.57830110  0.09360692  0.18746227  1
  Se  Se230  1  0.57920532  0.08558344  0.69869515  1
  Se  Se231  1  0.57840118  0.42418013  0.18629674  1
  Se  Se232  1  0.57828901  0.42724837  0.69005170  1
  Se  Se233  1  0.57744646  0.74851154  0.19825536  1
  Se  Se234  1  0.57981639  0.74903715  0.69703132  1
  Se  Se235  1  0.91564982  0.08597298  0.19052885  1
  Se  Se236  1  0.91680683  0.08190546  0.69795263  1
  Se  Se237  1  0.91967798  0.41244509  0.19649035  1
  Se  Se238  1  0.91873666  0.41413565  0.69381387  1
  Se  Se239  1  0.91082435  0.75330754  0.20439374  1
  Se  Se240  1  0.91972840  0.74734792  0.69757018  1
  Se  Se241  1  0.08400504  0.25157387  0.19893455  1
  Se  Se242  1  0.08244260  0.25392440  0.69949495  1
  Se  Se243  1  0.07516141  0.58850472  0.19744064  1
  Se  Se244  1  0.08627664  0.58616463  0.69299992  1
  Se  Se245  1  0.09551613  0.91018587  0.18642628  1
  Se  Se246  1  0.08106001  0.91586925  0.69675210  1
  Se  Se247  1  0.42198840  0.25052733  0.19201516  1
  Se  Se248  1  0.41367388  0.25493033  0.70283493  1
  Se  Se249  1  0.40938594  0.58214672  0.19419382  1
  Se  Se250  1  0.42342737  0.57655862  0.69135506  1
  Se  Se251  1  0.41625640  0.92200686  0.20179018  1
  Se  Se252  1  0.41024927  0.91360792  0.69387299  1
  Se  Se253  1  0.75846011  0.24471674  0.19496358  1
  Se  Se254  1  0.75871180  0.24645136  0.68333925  1
  Se  Se255  1  0.74671771  0.57324523  0.19431074  1
  Se  Se256  1  0.75432018  0.58450725  0.69809548  1
  Se  Se257  1  0.76572380  0.90476458  0.19614713  1
  Se  Se258  1  0.74409925  0.91915088  0.69484104  1
