# generated using pymatgen
data_In86Cu29Se144
_symmetry_space_group_name_H-M   'P 1'
_cell_length_a   17.57851086
_cell_length_b   17.58138990
_cell_length_c   23.44386383
_cell_angle_alpha   90.02251506
_cell_angle_beta   90.01414450
_cell_angle_gamma   90.00267035
_symmetry_Int_Tables_number   1
_chemical_formula_structural   In86Cu29Se144
_chemical_formula_sum   'In86 Cu29 Se144'
_cell_volume   7245.43442320
_cell_formula_units_Z   1
loop_
 _symmetry_equiv_pos_site_id
 _symmetry_equiv_pos_as_xyz
  1  'x, y, z'
loop_
 _atom_site_type_symbol
 _atom_site_label
 _atom_site_symmetry_multiplicity
 _atom_site_fract_x
 _atom_site_fract_y
 _atom_site_fract_z
 _atom_site_occupancy
  In  In0  1  -0.00183870  0.17564714  0.12368502  1
  In  In1  1  -0.00241979  0.16778293  0.62298050  1
  In  In2  1  0.00638218  0.49910190  0.13291954  1
  In  In3  1  -0.00081951  0.50117600  0.62327216  1
  In  In4  1  -0.01118522  0.82967369  0.12409823  1
  In  In5  1  0.00464771  0.83675678  0.62975388  1
  In  In6  1  0.32178516  0.16981858  0.13139836  1
  In  In7  1  0.34035525  0.17428274  0.62091277  1
  In  In8  1  0.33197983  0.50008900  0.11709391  1
  In  In9  1  0.31249319  0.49583878  0.61640008  1
  In  In10  1  0.34651805  0.82744498  0.12880597  1
  In  In11  1  0.32378814  0.83511283  0.61934709  1
  In  In12  1  0.67297299  0.15177595  0.12354032  1
  In  In13  1  0.67260140  0.16441194  0.62280067  1
  In  In14  1  0.66561856  0.51421396  0.12683107  1
  In  In15  1  0.66932864  0.48486913  0.62740521  1
  In  In16  1  0.66478022  0.82800621  0.12015290  1
  In  In17  1  0.68529681  0.83704581  0.62177750  1
  In  In18  1  0.17453263  -0.01201049  0.38318645  1
  In  In19  1  0.16628088  0.00641714  0.86816104  1
  In  In20  1  0.15030104  0.35059521  0.38899186  1
  In  In21  1  0.17158580  0.34109610  0.86446298  1
  In  In22  1  0.15403622  0.67386117  0.37898684  1
  In  In23  1  0.13468779  0.66066576  0.87528325  1
  In  In24  1  0.50222948  0.01067445  0.38017871  1
  In  In25  1  0.50144036  -0.01501116  0.87406389  1
  In  In26  1  0.49122873  0.32977295  0.37609595  1
  In  In27  1  0.50416043  0.33984242  0.87079962  1
  In  In28  1  0.50526146  0.65441858  0.36528081  1
  In  In29  1  0.49945193  0.67085215  0.88430230  1
  In  In30  1  0.83321432  -0.00577009  0.39162747  1
  In  In31  1  0.83430880  0.00060666  0.87095940  1
  In  In32  1  0.84429600  0.32265044  0.38207114  1
  In  In33  1  0.82498503  0.32572428  0.86455403  1
  In  In34  1  0.83615841  0.66407680  0.37456441  1
  In  In35  1  0.85632339  0.66842866  0.87741157  1
  In  In36  1  -0.00792463  0.17515690  0.38660374  1
  In  In37  1  -0.01021974  0.15845638  0.86226350  1
  In  In38  1  0.00411864  0.49684386  0.37250828  1
  In  In39  1  0.00859226  0.50770389  0.86749026  1
  In  In40  1  0.01348562  0.81626608  0.38220358  1
  In  In41  1  -0.01073171  0.81831534  0.86038627  1
  In  In42  1  0.33650099  0.16009189  0.38594193  1
  In  In43  1  0.31914766  0.17095928  0.86978244  1
  In  In44  1  0.33086729  0.49573183  0.37816751  1
  In  In45  1  0.33479305  0.49892288  0.87967994  1
  In  In46  1  0.30362596  0.83302810  0.37272443  1
  In  In47  1  0.33880049  0.84033543  0.88006806  1
  In  In48  1  0.67054503  0.15269221  0.39444605  1
  In  In49  1  0.67832919  0.17419722  0.86675137  1
  In  In50  1  0.66626018  0.51512474  0.36921790  1
  In  In51  1  0.66783387  0.48953111  0.87352263  1
  In  In52  1  0.68434465  0.82998385  0.37926467  1
  In  In53  1  0.66449834  0.84184614  0.87534439  1
  In  In54  1  0.16783791  0.01096442  0.13393752  1
  In  In55  1  0.14760788  -0.01332784  0.61649269  1
  In  In56  1  0.15051395  0.33735906  0.13038744  1
  In  In57  1  0.16374166  0.33483094  0.62377307  1
  In  In58  1  0.16330145  0.65475428  0.12774227  1
  In  In59  1  0.15872656  0.65758724  0.61588720  1
  In  In60  1  0.50960035  -0.01259224  0.12957126  1
  In  In61  1  0.50001584  0.01604007  0.62536036  1
  In  In62  1  0.48764708  0.33814577  0.12128004  1
  In  In63  1  0.51228665  0.32108094  0.63447337  1
  In  In64  1  0.50236868  0.67155405  0.11994640  1
  In  In65  1  0.49744269  0.67077152  0.62435957  1
  In  In66  1  0.83197760  -0.00243598  0.11536917  1
  In  In67  1  0.83431599  0.00427931  0.62467575  1
  In  In68  1  0.84823257  0.33886242  0.12120058  1
  In  In69  1  0.83488146  0.33355286  0.62332498  1
  In  In70  1  0.82754619  0.66910723  0.13083866  1
  In  In71  1  0.84899290  0.68106334  0.61514477  1
  In  In72  1  0.00367749  -0.00635362  0.25672685  1
  In  In73  1  0.32591832  0.33784085  0.25891670  1
  In  In74  1  0.67455109  0.66196765  0.75504335  1
  In  In75  1  0.33248655  0.00548448  0.74746436  1
  In  In76  1  0.16886826  0.83117892  -0.00055469  1
  In  In77  1  0.16262055  0.17000124  -0.00150205  1
  In  In78  1  0.66997247  -0.00510145  0.26156425  1
  In  In79  1  0.32604687  0.66558039  0.25086428  1
  In  In80  1  0.50480068  0.16805801  -0.00213756  1
  In  In81  1  0.32612517  0.66280704  0.74171127  1
  In  In82  1  0.49582274  0.83418880  0.50094015  1
  In  In83  1  0.83508841  0.50139748  -0.00280206  1
  In  In84  1  0.50185673  0.49622225  0.49505647  1
  In  In85  1  0.66934133  0.33606887  0.24729606  1
  Cu  Cu86  1  0.00055329  0.33796789  0.50546589  1
  Cu  Cu87  1  0.49639272  0.83102887  0.24647911  1
  Cu  Cu88  1  0.83365792  0.16743584  0.74264758  1
  Cu  Cu89  1  0.67597255  -0.00219053  -0.00303074  1
  Cu  Cu90  1  0.66594010  0.33456023  -0.00797580  1
  Cu  Cu91  1  -0.00155049  0.33295197  -0.00220845  1
  Cu  Cu92  1  0.33471313  0.33118065  0.50207168  1
  Cu  Cu93  1  0.84271304  0.49896006  0.25104757  1
  Cu  Cu94  1  -0.00224697  0.00033239  0.50437370  1
  Cu  Cu95  1  0.83932159  0.83980679  0.74540249  1
  Cu  Cu96  1  -0.00612798  -0.00413933  -0.00845640  1
  Cu  Cu97  1  0.32571692  0.00101512  0.50268347  1
  Cu  Cu98  1  0.32925831  0.34493032  -0.00533432  1
  Cu  Cu99  1  0.49804584  0.16784582  0.26288624  1
  Cu  Cu100  1  0.83763539  0.49958569  0.74627869  1
  Cu  Cu101  1  0.50406828  0.83324117  0.75146075  1
  Cu  Cu102  1  0.49234027  0.49052361  0.75138420  1
  Cu  Cu103  1  0.50360641  0.17198050  0.74773803  1
  Cu  Cu104  1  0.67326991  0.66344799  0.49828848  1
  Cu  Cu105  1  0.33158992  0.66760031  0.00287283  1
  Cu  Cu106  1  -0.00605188  0.66453579  0.49927216  1
  Cu  Cu107  1  0.67133042  0.32988849  0.50560781  1
  Cu  Cu108  1  0.16170673  0.49949234  0.74496233  1
  Cu  Cu109  1  0.34404979  -0.00396034  0.00610236  1
  Cu  Cu110  1  0.66955633  0.67258716  0.00236112  1
  Cu  Cu111  1  0.84409550  0.17058925  0.25399617  1
  Cu  Cu112  1  0.16281669  0.16993762  0.74192247  1
  Cu  Cu113  1  0.16863464  0.16490170  0.25854946  1
  Cu  Cu114  1  0.83609571  0.82711715  0.25322372  1
  Se  Se115  1  0.07347675  0.07350359  0.05604853  1
  Se  Se116  1  0.08283408  0.08795159  0.55246427  1
  Se  Se117  1  0.07689442  0.41541017  0.05523542  1
  Se  Se118  1  0.08705096  0.42289440  0.55401407  1
  Se  Se119  1  0.07861059  0.74322170  0.05847469  1
  Se  Se120  1  0.07526742  0.74924020  0.55481172  1
  Se  Se121  1  0.41558965  0.08441420  0.06540134  1
  Se  Se122  1  0.41392937  0.08334592  0.55161779  1
  Se  Se123  1  0.41894246  0.42182389  0.04737328  1
  Se  Se124  1  0.41923020  0.40945659  0.56298557  1
  Se  Se125  1  0.41801008  0.75326781  0.05044773  1
  Se  Se126  1  0.40343269  0.73806471  0.55431100  1
  Se  Se127  1  0.75582594  0.08720815  0.04707422  1
  Se  Se128  1  0.75077126  0.08078215  0.55326522  1
  Se  Se129  1  0.74219399  0.41263983  0.05886799  1
  Se  Se130  1  0.75360369  0.41927875  0.55219935  1
  Se  Se131  1  0.75693099  0.75192801  0.05456134  1
  Se  Se132  1  0.75409650  0.75257544  0.54796377  1
  Se  Se133  1  0.25380986  0.26279360  0.05801053  1
  Se  Se134  1  0.24835861  0.25087985  0.55517086  1
  Se  Se135  1  0.24609457  0.58392864  0.05252773  1
  Se  Se136  1  0.25374016  0.59065521  0.54733270  1
  Se  Se137  1  0.25434844  0.92423327  0.06397937  1
  Se  Se138  1  0.24187827  0.91322282  0.54944416  1
  Se  Se139  1  0.59340611  0.25714073  0.06191977  1
  Se  Se140  1  0.58368340  0.24818132  0.55552589  1
  Se  Se141  1  0.58522114  0.58615112  0.05144973  1
  Se  Se142  1  0.59093248  0.58762009  0.55978136  1
  Se  Se143  1  0.58894381  0.91995695  0.05257113  1
  Se  Se144  1  0.58406435  0.91985922  0.56326982  1
  Se  Se145  1  0.91501516  0.24751863  0.04926721  1
  Se  Se146  1  0.91532023  0.25058141  0.55285617  1
  Se  Se147  1  0.91917910  0.58542565  0.06326767  1
  Se  Se148  1  0.91232758  0.57801634  0.55170148  1
  Se  Se149  1  0.91657048  0.91348304  0.05041482  1
  Se  Se150  1  0.91766875  0.91487034  0.55950364  1
  Se  Se151  1  0.08403324  0.25077023  0.45368278  1
  Se  Se152  1  0.07608761  0.25421629  0.93339112  1
  Se  Se153  1  0.07962365  0.58184465  0.44645049  1
  Se  Se154  1  0.07566309  0.57531805  0.95128438  1
  Se  Se155  1  0.07834853  0.91641765  0.44816390  1
  Se  Se156  1  0.08280714  0.92142248  0.93632027  1
  Se  Se157  1  0.42086515  0.24870868  0.45065200  1
  Se  Se158  1  0.40592757  0.25396363  0.94058765  1
  Se  Se159  1  0.41270057  0.59296469  0.44126225  1
  Se  Se160  1  0.41563497  0.58430893  0.94774417  1
  Se  Se161  1  0.40412648  0.92022338  0.43902562  1
  Se  Se162  1  0.42481960  0.91279768  0.95213191  1
  Se  Se163  1  0.75484707  0.24736907  0.45074200  1
  Se  Se164  1  0.75224340  0.25076492  0.94406457  1
  Se  Se165  1  0.75305005  0.57864696  0.44411171  1
  Se  Se166  1  0.74457612  0.59349180  0.93618184  1
  Se  Se167  1  0.73067348  0.92755100  0.45224910  1
  Se  Se168  1  0.75755334  0.91416438  0.94269092  1
  Se  Se169  1  0.24185393  0.08546360  0.45055770  1
  Se  Se170  1  0.26027659  0.07351353  0.94605931  1
  Se  Se171  1  0.25324864  0.41872453  0.45175601  1
  Se  Se172  1  0.23872454  0.42120313  0.94319493  1
  Se  Se173  1  0.24437758  0.74737729  0.44828721  1
  Se  Se174  1  0.25344322  0.73946705  0.93490369  1
  Se  Se175  1  0.57487156  0.08211773  0.45770912  1
  Se  Se176  1  0.59184516  0.07706782  0.93700225  1
  Se  Se177  1  0.59619933  0.40704008  0.43727320  1
  Se  Se178  1  0.57979433  0.41984477  0.94596148  1
  Se  Se179  1  0.58577315  0.74002986  0.44053559  1
  Se  Se180  1  0.58728151  0.75561478  0.94573179  1
  Se  Se181  1  0.91382826  0.08587908  0.45347245  1
  Se  Se182  1  0.91572142  0.08642002  0.94128106  1
  Se  Se183  1  0.92010897  0.41762044  0.44519807  1
  Se  Se184  1  0.91841790  0.40982251  0.93390080  1
  Se  Se185  1  0.91151921  0.75100596  0.44611562  1
  Se  Se186  1  0.92748591  0.75464628  0.94742000  1
  Se  Se187  1  0.24239577  0.24750559  0.32143313  1
  Se  Se188  1  0.24828182  0.25138025  0.79560623  1
  Se  Se189  1  0.24020143  0.57609286  0.31253717  1
  Se  Se190  1  0.24089251  0.57875840  0.80920536  1
  Se  Se191  1  0.24242349  0.92161521  0.29915636  1
  Se  Se192  1  0.24872110  0.90825515  0.80619034  1
  Se  Se193  1  0.58916089  0.24307217  0.31546742  1
  Se  Se194  1  0.58554618  0.25444983  0.80435338  1
  Se  Se195  1  0.58669022  0.58262089  0.29291616  1
  Se  Se196  1  0.57091174  0.57731166  0.80880051  1
  Se  Se197  1  0.57465866  0.90395595  0.31529802  1
  Se  Se198  1  0.58825767  0.91996831  0.79908923  1
  Se  Se199  1  0.92695318  0.25369124  0.30519411  1
  Se  Se200  1  0.91658245  0.25268318  0.79657799  1
  Se  Se201  1  0.92168699  0.58469861  0.30564903  1
  Se  Se202  1  0.91863538  0.58510025  0.79947133  1
  Se  Se203  1  0.90898982  0.90884297  0.31645713  1
  Se  Se204  1  0.92149547  0.92289362  0.80111928  1
  Se  Se205  1  0.08498030  0.08827416  0.31888592  1
  Se  Se206  1  0.08505512  0.08384564  0.79749388  1
  Se  Se207  1  0.08470265  0.41129109  0.30369824  1
  Se  Se208  1  0.07824950  0.41504829  0.79819766  1
  Se  Se209  1  0.08487118  0.75134510  0.30059694  1
  Se  Se210  1  0.09404611  0.75611688  0.79950895  1
  Se  Se211  1  0.41266207  0.08168402  0.30939074  1
  Se  Se212  1  0.42548373  0.09173255  0.81173590  1
  Se  Se213  1  0.42900873  0.42932177  0.30563071  1
  Se  Se214  1  0.40709471  0.41289527  0.80674832  1
  Se  Se215  1  0.41696430  0.75703872  0.31200933  1
  Se  Se216  1  0.41979162  0.75214440  0.80591657  1
  Se  Se217  1  0.76258941  0.09093152  0.31347683  1
  Se  Se218  1  0.75266957  0.08371660  0.79985512  1
  Se  Se219  1  0.76072264  0.41847366  0.31125522  1
  Se  Se220  1  0.74926624  0.41962525  0.79850240  1
  Se  Se221  1  0.74878087  0.74469994  0.30393133  1
  Se  Se222  1  0.76271924  0.75797573  0.80986043  1
  Se  Se223  1  0.25395578  0.08448671  0.20532629  1
  Se  Se224  1  0.24315374  0.08723616  0.68286070  1
  Se  Se225  1  0.24328855  0.42497185  0.19202788  1
  Se  Se226  1  0.24872416  0.41626507  0.69534009  1
  Se  Se227  1  0.24157523  0.75825448  0.18928001  1
  Se  Se228  1  0.23664130  0.75661532  0.68840521  1
  Se  Se229  1  0.57936123  0.08960939  0.20040712  1
  Se  Se230  1  0.58643322  0.08694230  0.69672118  1
  Se  Se231  1  0.57433989  0.42195677  0.18934776  1
  Se  Se232  1  0.58561750  0.41468307  0.70146712  1
  Se  Se233  1  0.58238362  0.75202890  0.19280248  1
  Se  Se234  1  0.58507986  0.75310718  0.69196333  1
  Se  Se235  1  0.91294351  0.08191192  0.19189398  1
  Se  Se236  1  0.92036469  0.08279615  0.69456714  1
  Se  Se237  1  0.92186472  0.41099590  0.19851392  1
  Se  Se238  1  0.91947834  0.41521368  0.69269998  1
  Se  Se239  1  0.91878990  0.74590253  0.19877239  1
  Se  Se240  1  0.91971975  0.74905975  0.69704501  1
  Se  Se241  1  0.08583659  0.24044317  0.19840793  1
  Se  Se242  1  0.07782025  0.25469207  0.69237074  1
  Se  Se243  1  0.08087402  0.58684826  0.20222837  1
  Se  Se244  1  0.08064244  0.58616790  0.69343522  1
  Se  Se245  1  0.08796504  0.90845429  0.18977125  1
  Se  Se246  1  0.08191247  0.92224938  0.70032339  1
  Se  Se247  1  0.42205315  0.24570775  0.19838084  1
  Se  Se248  1  0.41264632  0.25188844  0.69910316  1
  Se  Se249  1  0.41831882  0.58108484  0.18817350  1
  Se  Se250  1  0.42127128  0.57034823  0.68639856  1
  Se  Se251  1  0.41562871  0.92119496  0.19849564  1
  Se  Se252  1  0.42237542  0.90923365  0.68866290  1
  Se  Se253  1  0.76021946  0.24111661  0.18952757  1
  Se  Se254  1  0.74883072  0.25304166  0.69251554  1
  Se  Se255  1  0.75341017  0.57933649  0.20044447  1
  Se  Se256  1  0.75927974  0.58211875  0.68538126  1
  Se  Se257  1  0.75742747  0.91196577  0.19364838  1
  Se  Se258  1  0.75107152  0.92113299  0.69691581  1
