# generated using pymatgen
data_In86Cu29Se144
_symmetry_space_group_name_H-M   'P 1'
_cell_length_a   17.56962678
_cell_length_b   17.57381446
_cell_length_c   23.43514619
_cell_angle_alpha   89.99424330
_cell_angle_beta   89.99946706
_cell_angle_gamma   90.00306856
_symmetry_Int_Tables_number   1
_chemical_formula_structural   In86Cu29Se144
_chemical_formula_sum   'In86 Cu29 Se144'
_cell_volume   7235.96132931
_cell_formula_units_Z   1
loop_
 _symmetry_equiv_pos_site_id
 _symmetry_equiv_pos_as_xyz
  1  'x, y, z'
loop_
 _atom_site_type_symbol
 _atom_site_label
 _atom_site_symmetry_multiplicity
 _atom_site_fract_x
 _atom_site_fract_y
 _atom_site_fract_z
 _atom_site_occupancy
  In  In0  1  0.00260134  0.16450623  0.12545522  1
  In  In1  1  -0.00697051  0.17489617  0.63083157  1
  In  In2  1  0.00153245  0.50882711  0.13530664  1
  In  In3  1  0.00384983  0.50144584  0.61991986  1
  In  In4  1  0.02264965  0.81908224  0.13209823  1
  In  In5  1  0.01387357  0.81770728  0.63644019  1
  In  In6  1  0.31809727  0.15971800  0.11471494  1
  In  In7  1  0.33974564  0.15720344  0.63108905  1
  In  In8  1  0.33115220  0.50525091  0.13404503  1
  In  In9  1  0.31735171  0.51827424  0.63765553  1
  In  In10  1  0.33147898  0.84426496  0.13063788  1
  In  In11  1  0.32728751  0.83373623  0.62244189  1
  In  In12  1  0.67703566  0.17481983  0.11877460  1
  In  In13  1  0.66816407  0.16957778  0.61641085  1
  In  In14  1  0.65428908  0.49509169  0.13239883  1
  In  In15  1  0.67050746  0.48665682  0.62190356  1
  In  In16  1  0.66836359  0.82318971  0.12618891  1
  In  In17  1  0.66146144  0.84724459  0.62080182  1
  In  In18  1  0.15878057  -0.01004957  0.37176947  1
  In  In19  1  0.16631038  -0.00152105  0.87356914  1
  In  In20  1  0.16174666  0.34952112  0.37567420  1
  In  In21  1  0.15904294  0.32898431  0.86737387  1
  In  In22  1  0.17064224  0.66609577  0.36976864  1
  In  In23  1  0.17182502  0.67626595  0.87664982  1
  In  In24  1  0.49279839  0.00264574  0.37552879  1
  In  In25  1  0.49729279  0.01360927  0.87736868  1
  In  In26  1  0.49690571  0.31664311  0.37437152  1
  In  In27  1  0.48173600  0.33253373  0.87274332  1
  In  In28  1  0.48936796  0.68405768  0.37916026  1
  In  In29  1  0.49166924  0.67481761  0.87358011  1
  In  In30  1  0.85162363  0.00074588  0.37562912  1
  In  In31  1  0.85584306  0.00147432  0.87456904  1
  In  In32  1  0.83814165  0.33267375  0.37365525  1
  In  In33  1  0.83408639  0.32032375  0.87610493  1
  In  In34  1  0.83572150  0.65135594  0.37749387  1
  In  In35  1  0.83832055  0.66252382  0.87111883  1
  In  In36  1  -0.00768586  0.15762227  0.37209376  1
  In  In37  1  0.00557668  0.16601326  0.87646696  1
  In  In38  1  0.00533378  0.49866613  0.37030151  1
  In  In39  1  0.00787467  0.50578099  0.86501671  1
  In  In40  1  0.01328370  0.84175860  0.37034484  1
  In  In41  1  0.00549930  0.84338448  0.86784486  1
  In  In42  1  0.34646092  0.16597476  0.37682338  1
  In  In43  1  0.33009499  0.16486696  0.87421483  1
  In  In44  1  0.30796398  0.50861843  0.37811599  1
  In  In45  1  0.33743071  0.50205179  0.86239994  1
  In  In46  1  0.33070748  0.83176195  0.37177538  1
  In  In47  1  0.31179648  0.81806792  0.86872375  1
  In  In48  1  0.66146150  0.17431154  0.37575194  1
  In  In49  1  0.66780848  0.16557908  0.88802352  1
  In  In50  1  0.68453309  0.49993584  0.37624299  1
  In  In51  1  0.67257194  0.49934588  0.87451226  1
  In  In52  1  0.65940464  0.82465426  0.37782348  1
  In  In53  1  0.65862935  0.82993527  0.87595394  1
  In  In54  1  0.16923639  -0.00179873  0.12577621  1
  In  In55  1  0.17808326  -0.00968563  0.63118824  1
  In  In56  1  0.16782403  0.31997607  0.12488732  1
  In  In57  1  0.15418718  0.34311241  0.62982368  1
  In  In58  1  0.16099745  0.67671881  0.12458103  1
  In  In59  1  0.16448942  0.66813284  0.62209032  1
  In  In60  1  0.47789288  -0.00009751  0.12712597  1
  In  In61  1  0.49076369  -0.00863009  0.61573996  1
  In  In62  1  0.50952041  0.33810025  0.12941833  1
  In  In63  1  0.50030621  0.32511055  0.62590732  1
  In  In64  1  0.49735497  0.66202267  0.12989847  1
  In  In65  1  0.47573080  0.66694592  0.62670801  1
  In  In66  1  0.83906858  0.01334330  0.12272434  1
  In  In67  1  0.83260223  0.00889852  0.62530019  1
  In  In68  1  0.84700391  0.32551287  0.13143713  1
  In  In69  1  0.84067625  0.34016745  0.61574190  1
  In  In70  1  0.84464942  0.67771114  0.12333330  1
  In  In71  1  0.85577347  0.66856733  0.62372129  1
  In  In72  1  0.49938085  0.49610365  0.50594338  1
  In  In73  1  0.16793315  0.49991623  0.00147343  1
  In  In74  1  0.83359442  0.83522327  0.50149567  1
  In  In75  1  0.16634032  0.16709084  0.50638868  1
  In  In76  1  0.66618132  0.00088753  0.25256434  1
  In  In77  1  0.83970828  0.84040339  -0.00377906  1
  In  In78  1  0.33012563  0.33022927  0.25416028  1
  In  In79  1  0.66984412  0.66168162  0.25264890  1
  In  In80  1  0.49794701  0.49968535  -0.00204177  1
  In  In81  1  0.49503245  0.83673496  0.00283916  1
  In  In82  1  0.83600196  0.49953259  0.00468979  1
  In  In83  1  0.66272470  0.66532173  0.75345382  1
  In  In84  1  0.66867032  0.00174388  0.74454322  1
  In  In85  1  0.66364387  0.33278987  0.74342750  1
  Cu  Cu86  1  0.83862599  0.49457948  0.25323481  1
  Cu  Cu87  1  0.84336622  0.49979147  0.74230226  1
  Cu  Cu88  1  0.32416920  0.67225985  0.50067697  1
  Cu  Cu89  1  0.48774899  0.83597904  0.74609152  1
  Cu  Cu90  1  -0.00131209  0.32788560  -0.00039654  1
  Cu  Cu91  1  0.32703876  -0.00037011  -0.00300483  1
  Cu  Cu92  1  0.49809027  0.16289918  0.24826100  1
  Cu  Cu93  1  0.33227320  -0.00239703  0.50046765  1
  Cu  Cu94  1  0.83811004  0.17222898  0.24645684  1
  Cu  Cu95  1  0.00200265  -0.00111700  0.49975884  1
  Cu  Cu96  1  0.00606254  0.66507278  0.49736675  1
  Cu  Cu97  1  0.17072211  0.83484943  0.24980435  1
  Cu  Cu98  1  0.49543489  0.16741889  0.75110724  1
  Cu  Cu99  1  0.67190575  0.33047719  0.49660999  1
  Cu  Cu100  1  0.66597708  0.32612239  0.00448469  1
  Cu  Cu101  1  0.66326532  0.66662056  0.49749858  1
  Cu  Cu102  1  -0.00306119  0.33568321  0.49850653  1
  Cu  Cu103  1  0.66145155  0.00733925  0.49688661  1
  Cu  Cu104  1  0.16795529  0.83244659  0.74966653  1
  Cu  Cu105  1  0.00930772  0.00188952  0.00051061  1
  Cu  Cu106  1  0.16551086  0.16128048  0.24717499  1
  Cu  Cu107  1  0.33226989  0.32949930  -0.00325372  1
  Cu  Cu108  1  0.84404447  0.83508392  0.24914927  1
  Cu  Cu109  1  0.66541640  0.00334272  0.00196159  1
  Cu  Cu110  1  0.49820419  0.49873978  0.25598811  1
  Cu  Cu111  1  0.16623372  0.16477115  0.75186967  1
  Cu  Cu112  1  0.33213989  0.33443367  0.49992406  1
  Cu  Cu113  1  0.16299357  0.50190593  0.74756551  1
  Cu  Cu114  1  0.84246868  0.16385429  0.75218526  1
  Se  Se115  1  0.08949395  0.08547589  0.05673627  1
  Se  Se116  1  0.07827115  0.07616664  0.56591981  1
  Se  Se117  1  0.07466014  0.41087698  0.06091722  1
  Se  Se118  1  0.08483590  0.41715263  0.54950685  1
  Se  Se119  1  0.08993118  0.75597048  0.04789047  1
  Se  Se120  1  0.08311804  0.75298367  0.55190276  1
  Se  Se121  1  0.41232383  0.08225629  0.04991933  1
  Se  Se122  1  0.41459699  0.08579751  0.55115736  1
  Se  Se123  1  0.40703061  0.41053486  0.06076004  1
  Se  Se124  1  0.40451296  0.41498581  0.56647385  1
  Se  Se125  1  0.41019811  0.74362973  0.06209331  1
  Se  Se126  1  0.41264904  0.75327180  0.55141755  1
  Se  Se127  1  0.75413479  0.08553444  0.05085485  1
  Se  Se128  1  0.75037932  0.08236140  0.55131850  1
  Se  Se129  1  0.74280362  0.41041352  0.06395747  1
  Se  Se130  1  0.75321675  0.41823198  0.54697196  1
  Se  Se131  1  0.74652832  0.74327434  0.05199435  1
  Se  Se132  1  0.74432803  0.74317200  0.56255802  1
  Se  Se133  1  0.24286878  0.24908737  0.04617883  1
  Se  Se134  1  0.25536414  0.25691717  0.56595570  1
  Se  Se135  1  0.25901078  0.58915074  0.05942789  1
  Se  Se136  1  0.24706193  0.58213527  0.55333607  1
  Se  Se137  1  0.25022826  0.91517505  0.05450450  1
  Se  Se138  1  0.24542581  0.91514459  0.55064283  1
  Se  Se139  1  0.57634820  0.24896930  0.05700251  1
  Se  Se140  1  0.58320293  0.25378407  0.55102684  1
  Se  Se141  1  0.59168245  0.58883336  0.05813730  1
  Se  Se142  1  0.58664461  0.59157300  0.56494342  1
  Se  Se143  1  0.59001148  0.92388131  0.06433599  1
  Se  Se144  1  0.58044430  0.91767700  0.54593020  1
  Se  Se145  1  0.91646947  0.24534232  0.05462948  1
  Se  Se146  1  0.91798953  0.24691428  0.55127120  1
  Se  Se147  1  0.93096584  0.59342945  0.05503332  1
  Se  Se148  1  0.91958797  0.58249954  0.54861081  1
  Se  Se149  1  0.92912850  0.92088576  0.06269436  1
  Se  Se150  1  0.92527292  0.91778176  0.56385349  1
  Se  Se151  1  0.07864169  0.25190751  0.44057270  1
  Se  Se152  1  0.08746481  0.25136632  0.94545539  1
  Se  Se153  1  0.08645630  0.58322412  0.44004216  1
  Se  Se154  1  0.07689731  0.58864317  0.94213082  1
  Se  Se155  1  0.08605156  0.91414976  0.45021461  1
  Se  Se156  1  0.08517643  0.91492897  0.94462655  1
  Se  Se157  1  0.41704799  0.24876972  0.45246247  1
  Se  Se158  1  0.41673224  0.24484435  0.94591418  1
  Se  Se159  1  0.40872524  0.58631595  0.44522723  1
  Se  Se160  1  0.40487583  0.58996314  0.94245465  1
  Se  Se161  1  0.41339995  0.91531864  0.44288671  1
  Se  Se162  1  0.40774694  0.91899209  0.93598989  1
  Se  Se163  1  0.75457651  0.24746484  0.44242699  1
  Se  Se164  1  0.75572455  0.24842030  0.95249416  1
  Se  Se165  1  0.75203843  0.58220101  0.45288351  1
  Se  Se166  1  0.74443665  0.59107704  0.94443153  1
  Se  Se167  1  0.74378519  0.92542826  0.43764042  1
  Se  Se168  1  0.74170951  0.92770007  0.93699454  1
  Se  Se169  1  0.25205511  0.07950197  0.44074481  1
  Se  Se170  1  0.24531424  0.08468904  0.94358201  1
  Se  Se171  1  0.24518246  0.41761061  0.45170813  1
  Se  Se172  1  0.25650762  0.41374431  0.93649276  1
  Se  Se173  1  0.24465167  0.75322483  0.44233244  1
  Se  Se174  1  0.24710282  0.75261212  0.95294211  1
  Se  Se175  1  0.57818783  0.08770191  0.44106518  1
  Se  Se176  1  0.57743347  0.08601612  0.95263166  1
  Se  Se177  1  0.58682171  0.41103028  0.43855592  1
  Se  Se178  1  0.59108055  0.40558738  0.94018870  1
  Se  Se179  1  0.57751672  0.75303223  0.45233215  1
  Se  Se180  1  0.58776600  0.73947606  0.94743447  1
  Se  Se181  1  0.91725710  0.08487148  0.45205428  1
  Se  Se182  1  0.92267307  0.08518561  0.94936003  1
  Se  Se183  1  0.91828033  0.42012720  0.44129182  1
  Se  Se184  1  0.92411285  0.41345379  0.93912932  1
  Se  Se185  1  0.92290571  0.74755608  0.43853994  1
  Se  Se186  1  0.92506914  0.74633646  0.93807932  1
  Se  Se187  1  0.23990436  0.23980680  0.31484486  1
  Se  Se188  1  0.25104426  0.24947691  0.80364856  1
  Se  Se189  1  0.24474304  0.58060159  0.29707286  1
  Se  Se190  1  0.24265598  0.58490440  0.80505984  1
  Se  Se191  1  0.25187920  0.92110887  0.30301856  1
  Se  Se192  1  0.25065053  0.91877247  0.80199929  1
  Se  Se193  1  0.58156847  0.24803133  0.29931803  1
  Se  Se194  1  0.58247969  0.24140876  0.81028520  1
  Se  Se195  1  0.57759133  0.57898183  0.31846677  1
  Se  Se196  1  0.57275580  0.57317333  0.81150941  1
  Se  Se197  1  0.57645324  0.90746515  0.30763875  1
  Se  Se198  1  0.57297624  0.91287308  0.80557990  1
  Se  Se199  1  0.92203249  0.25121204  0.30371525  1
  Se  Se200  1  0.92212116  0.25048664  0.80565189  1
  Se  Se201  1  0.91897806  0.58468641  0.30235107  1
  Se  Se202  1  0.91900800  0.58619344  0.79896682  1
  Se  Se203  1  0.92481733  0.92074503  0.30173487  1
  Se  Se204  1  0.91230532  0.91412108  0.79961290  1
  Se  Se205  1  0.08226430  0.08080119  0.30491083  1
  Se  Se206  1  0.08174131  0.08123645  0.80482492  1
  Se  Se207  1  0.07966428  0.41160034  0.29926805  1
  Se  Se208  1  0.07984832  0.41405641  0.79805735  1
  Se  Se209  1  0.08511506  0.75123524  0.30192978  1
  Se  Se210  1  0.08522420  0.74970965  0.80465046  1
  Se  Se211  1  0.41368723  0.08184729  0.30096315  1
  Se  Se212  1  0.41329900  0.08170798  0.80283949  1
  Se  Se213  1  0.41598153  0.42200418  0.31797316  1
  Se  Se214  1  0.41732867  0.41412236  0.79755532  1
  Se  Se215  1  0.40787768  0.74421708  0.30203590  1
  Se  Se216  1  0.41035507  0.74936778  0.80126191  1
  Se  Se217  1  0.76072897  0.08982697  0.30942588  1
  Se  Se218  1  0.75346914  0.09071225  0.81075070  1
  Se  Se219  1  0.75073764  0.41286091  0.30282637  1
  Se  Se220  1  0.76154821  0.42103131  0.80369309  1
  Se  Se221  1  0.76217974  0.75716022  0.31027393  1
  Se  Se222  1  0.75467531  0.75959948  0.80789286  1
  Se  Se223  1  0.25403694  0.08220365  0.19546573  1
  Se  Se224  1  0.25135197  0.08155564  0.69945173  1
  Se  Se225  1  0.23933763  0.41818086  0.19424211  1
  Se  Se226  1  0.24727070  0.41512970  0.69789085  1
  Se  Se227  1  0.25114915  0.75206510  0.19374266  1
  Se  Se228  1  0.24861734  0.74878775  0.69265641  1
  Se  Se229  1  0.58160471  0.08787655  0.18594934  1
  Se  Se230  1  0.57540371  0.09070035  0.68680772  1
  Se  Se231  1  0.58334106  0.41373771  0.20739213  1
  Se  Se232  1  0.57040508  0.42872321  0.69335184  1
  Se  Se233  1  0.57667858  0.75555413  0.19867822  1
  Se  Se234  1  0.57607606  0.75847982  0.68938261  1
  Se  Se235  1  0.92023638  0.08294837  0.19802850  1
  Se  Se236  1  0.92071678  0.07868335  0.69737428  1
  Se  Se237  1  0.92330878  0.41495575  0.19795598  1
  Se  Se238  1  0.92275781  0.41340732  0.68932069  1
  Se  Se239  1  0.92507098  0.74709173  0.19842955  1
  Se  Se240  1  0.91612139  0.74950077  0.70138284  1
  Se  Se241  1  0.08284348  0.24799991  0.19720394  1
  Se  Se242  1  0.08352924  0.24957250  0.69822127  1
  Se  Se243  1  0.09389081  0.58624421  0.19631364  1
  Se  Se244  1  0.08130533  0.58526065  0.69170207  1
  Se  Se245  1  0.08522824  0.92016104  0.19797902  1
  Se  Se246  1  0.08412586  0.91860631  0.69858299  1
  Se  Se247  1  0.41612468  0.24405702  0.18771727  1
  Se  Se248  1  0.41435195  0.25189192  0.69740694  1
  Se  Se249  1  0.41828665  0.58286912  0.20221494  1
  Se  Se250  1  0.41391848  0.58605797  0.70383281  1
  Se  Se251  1  0.42209883  0.91225792  0.20227285  1
  Se  Se252  1  0.40925083  0.92133379  0.69132676  1
  Se  Se253  1  0.74907929  0.25267259  0.19612602  1
  Se  Se254  1  0.76067568  0.24258833  0.69021774  1
  Se  Se255  1  0.76184883  0.57605494  0.18847565  1
  Se  Se256  1  0.75409274  0.57846553  0.68813689  1
  Se  Se257  1  0.75876230  0.91047279  0.19003005  1
  Se  Se258  1  0.76050909  0.90641488  0.69221073  1
