# generated using pymatgen
data_In86Cu29Se144
_symmetry_space_group_name_H-M   'P 1'
_cell_length_a   17.57944145
_cell_length_b   17.57847318
_cell_length_c   23.43947348
_cell_angle_alpha   90.00031176
_cell_angle_beta   90.01343755
_cell_angle_gamma   89.99004790
_symmetry_Int_Tables_number   1
_chemical_formula_structural   In86Cu29Se144
_chemical_formula_sum   'In86 Cu29 Se144'
_cell_volume   7243.25969740
_cell_formula_units_Z   1
loop_
 _symmetry_equiv_pos_site_id
 _symmetry_equiv_pos_as_xyz
  1  'x, y, z'
loop_
 _atom_site_type_symbol
 _atom_site_label
 _atom_site_symmetry_multiplicity
 _atom_site_fract_x
 _atom_site_fract_y
 _atom_site_fract_z
 _atom_site_occupancy
  In  In0  1  0.00915439  0.15545763  0.13140944  1
  In  In1  1  0.00367331  0.16392400  0.62183067  1
  In  In2  1  -0.01022509  0.51060349  0.13506161  1
  In  In3  1  -0.00399288  0.48390724  0.62205149  1
  In  In4  1  0.00206221  0.83022814  0.12959463  1
  In  In5  1  0.00522155  0.84551875  0.62351139  1
  In  In6  1  0.33565514  0.18081672  0.12682879  1
  In  In7  1  0.31317338  0.16574851  0.62207901  1
  In  In8  1  0.34446090  0.49659946  0.13612972  1
  In  In9  1  0.33970276  0.51313407  0.61421195  1
  In  In10  1  0.32698646  0.82447742  0.11961485  1
  In  In11  1  0.34019468  0.82425472  0.63765621  1
  In  In12  1  0.65586129  0.14619710  0.13099242  1
  In  In13  1  0.67177974  0.15293349  0.61843483  1
  In  In14  1  0.66690204  0.49786236  0.12047441  1
  In  In15  1  0.65566239  0.51528162  0.61678706  1
  In  In16  1  0.67418945  0.84804097  0.11395988  1
  In  In17  1  0.66308044  0.82026017  0.60790859  1
  In  In18  1  0.16325765  0.01268251  0.37781543  1
  In  In19  1  0.16600974  0.00013956  0.88024784  1
  In  In20  1  0.16651100  0.33460346  0.37126026  1
  In  In21  1  0.15312353  0.33380588  0.87425940  1
  In  In22  1  0.15459397  0.65192568  0.36993887  1
  In  In23  1  0.18529513  0.66803239  0.87232298  1
  In  In24  1  0.50004276  -0.02083441  0.37614506  1
  In  In25  1  0.49349319  -0.00306287  0.87714550  1
  In  In26  1  0.49943675  0.35115410  0.36903826  1
  In  In27  1  0.50834474  0.33755617  0.88066194  1
  In  In28  1  0.49711036  0.67230875  0.37422274  1
  In  In29  1  0.48614887  0.67670434  0.88367608  1
  In  In30  1  0.83983303  -0.00378820  0.36974417  1
  In  In31  1  0.83439078  -0.01433114  0.87683304  1
  In  In32  1  0.83379718  0.31920060  0.37358761  1
  In  In33  1  0.85077376  0.32864497  0.87900300  1
  In  In34  1  0.84594744  0.67643360  0.37518256  1
  In  In35  1  0.82786147  0.67427062  0.88628384  1
  In  In36  1  0.00068280  0.16496068  0.37026415  1
  In  In37  1  0.00864715  0.17170980  0.87388191  1
  In  In38  1  0.01456757  0.51051988  0.36777596  1
  In  In39  1  0.00339614  0.49139523  0.87420036  1
  In  In40  1  -0.01560681  0.81990339  0.35660931  1
  In  In41  1  -0.01023346  0.84613811  0.88054135  1
  In  In42  1  0.31534380  0.16539567  0.37797065  1
  In  In43  1  0.33378597  0.14797602  0.87713567  1
  In  In44  1  0.33266130  0.49796989  0.36855927  1
  In  In45  1  0.33440035  0.51481551  0.87384270  1
  In  In46  1  0.34880909  0.83210559  0.37620176  1
  In  In47  1  0.33474088  0.83063129  0.87700186  1
  In  In48  1  0.68602804  0.16640533  0.37782188  1
  In  In49  1  0.66366534  0.15985970  0.87882015  1
  In  In50  1  0.65795788  0.50456454  0.37812737  1
  In  In51  1  0.65896956  0.51094383  0.88814859  1
  In  In52  1  0.66476219  0.83424038  0.37467449  1
  In  In53  1  0.66493189  0.83988539  0.88933537  1
  In  In54  1  0.15832027  -0.00779406  0.11782629  1
  In  In55  1  0.15684785  0.00137803  0.63074456  1
  In  In56  1  0.17065366  0.32789764  0.12891186  1
  In  In57  1  0.15704379  0.32282008  0.61562964  1
  In  In58  1  0.15998578  0.67209654  0.13273228  1
  In  In59  1  0.17797034  0.67534893  0.61980967  1
  In  In60  1  0.52275269  -0.00368714  0.12830499  1
  In  In61  1  0.49794451  -0.01625231  0.62631939  1
  In  In62  1  0.48624035  0.33051937  0.13385134  1
  In  In63  1  0.48618080  0.34427963  0.62055700  1
  In  In64  1  0.49264582  0.66026047  0.12307331  1
  In  In65  1  0.49450376  0.66300568  0.61565247  1
  In  In66  1  0.83772683  -0.01248661  0.13390194  1
  In  In67  1  0.83863302  0.00357249  0.61905430  1
  In  In68  1  0.83098478  0.34713972  0.12870088  1
  In  In69  1  0.85177062  0.33515122  0.62197983  1
  In  In70  1  0.84339173  0.67854200  0.12370587  1
  In  In71  1  0.82170334  0.66943013  0.61755748  1
  In  In72  1  0.16290548  0.83589073  0.50095546  1
  In  In73  1  0.66878716  0.67127685  0.25303184  1
  In  In74  1  0.50206770  0.17127545  0.49689484  1
  In  In75  1  0.66861943  -0.00829246  0.75799444  1
  In  In76  1  0.33563732  0.00291462  0.25159207  1
  In  In77  1  0.16734318  0.50515624  -0.00151490  1
  In  In78  1  0.66430424  0.32505838  0.24749713  1
  In  In79  1  0.83401529  0.50325959  0.49320933  1
  In  In80  1  0.32786455  0.33163316  0.74544645  1
  In  In81  1  0.83439605  0.16631366  0.00993032  1
  In  In82  1  0.00442602  0.66816185  0.74704975  1
  In  In83  1  0.49675345  0.16204269  0.00368496  1
  In  In84  1  0.66278891  0.67048104  0.74482877  1
  In  In85  1  0.67698970  0.33433237  0.75170271  1
  Cu  Cu86  1  0.49525771  0.50634179  0.74521883  1
  Cu  Cu87  1  0.00085382  -0.00050474  0.00444261  1
  Cu  Cu88  1  0.00071514  0.67122578  0.00677327  1
  Cu  Cu89  1  0.16924694  0.83441430  0.24826772  1
  Cu  Cu90  1  0.33574641  0.66670285  0.00183394  1
  Cu  Cu91  1  0.83178029  0.83929786  0.74906747  1
  Cu  Cu92  1  0.16901557  0.83867296  0.75398286  1
  Cu  Cu93  1  0.00543220  0.32769935  0.49474942  1
  Cu  Cu94  1  0.66550034  0.33753232  0.00540260  1
  Cu  Cu95  1  0.83480979  0.49960734  0.25381690  1
  Cu  Cu96  1  0.50264835  0.82923281  0.24862593  1
  Cu  Cu97  1  0.83910622  0.49515511  0.75362386  1
  Cu  Cu98  1  0.84744468  0.16571660  0.74693305  1
  Cu  Cu99  1  0.33234624  0.33816628  0.00731436  1
  Cu  Cu100  1  0.32947633  -0.00451844  0.00142247  1
  Cu  Cu101  1  0.66807909  0.66584739  0.00749548  1
  Cu  Cu102  1  0.32762797  0.34383165  0.49654789  1
  Cu  Cu103  1  0.66792793  0.33702741  0.49413225  1
  Cu  Cu104  1  0.00231992  0.33870408  0.00083777  1
  Cu  Cu105  1  0.49408941  0.15791158  0.75248801  1
  Cu  Cu106  1  0.33085075  0.66568236  0.49462932  1
  Cu  Cu107  1  0.16187452  0.16054042  0.74921755  1
  Cu  Cu108  1  0.33284012  -0.00198267  0.50078889  1
  Cu  Cu109  1  0.16475992  0.16950543  0.25022711  1
  Cu  Cu110  1  -0.00328348  0.00295623  0.49644441  1
  Cu  Cu111  1  0.67543049  -0.00400360  0.49670503  1
  Cu  Cu112  1  0.83759030  0.15974859  0.25189525  1
  Cu  Cu113  1  0.17045250  0.49515635  0.24874192  1
  Cu  Cu114  1  0.16854659  0.49663481  0.74751875  1
  Se  Se115  1  0.08540631  0.08791611  0.05124699  1
  Se  Se116  1  0.08539111  0.07910171  0.55273428  1
  Se  Se117  1  0.07984783  0.41978322  0.06323187  1
  Se  Se118  1  0.08313862  0.41582690  0.54859604  1
  Se  Se119  1  0.08774165  0.75248703  0.05693397  1
  Se  Se120  1  0.07151606  0.74206408  0.55759738  1
  Se  Se121  1  0.40893593  0.07313191  0.06555877  1
  Se  Se122  1  0.41395136  0.08227355  0.56016041  1
  Se  Se123  1  0.41856588  0.41698821  0.05912194  1
  Se  Se124  1  0.41770427  0.42490608  0.54524708  1
  Se  Se125  1  0.42046825  0.75131847  0.05278905  1
  Se  Se126  1  0.40572964  0.75112429  0.55443738  1
  Se  Se127  1  0.74371046  0.07087122  0.05999760  1
  Se  Se128  1  0.75729889  0.08398198  0.54643673  1
  Se  Se129  1  0.75518136  0.42029064  0.05173119  1
  Se  Se130  1  0.74603478  0.41424059  0.56093560  1
  Se  Se131  1  0.75416793  0.75199682  0.05437741  1
  Se  Se132  1  0.75797419  0.75266978  0.54244371  1
  Se  Se133  1  0.24851703  0.25039401  0.05336704  1
  Se  Se134  1  0.24954689  0.25171047  0.54644309  1
  Se  Se135  1  0.25599752  0.58713607  0.06385734  1
  Se  Se136  1  0.24470826  0.58489448  0.54781415  1
  Se  Se137  1  0.24541320  0.91052882  0.05243768  1
  Se  Se138  1  0.25479282  0.91923346  0.56474974  1
  Se  Se139  1  0.58844861  0.25347402  0.06420770  1
  Se  Se140  1  0.59057775  0.26097550  0.56212565  1
  Se  Se141  1  0.58125418  0.58127908  0.05546280  1
  Se  Se142  1  0.58527000  0.59564168  0.54436093  1
  Se  Se143  1  0.56987621  0.90829199  0.04951253  1
  Se  Se144  1  0.58528581  0.92112827  0.55113390  1
  Se  Se145  1  0.92570911  0.25950785  0.06506393  1
  Se  Se146  1  0.92086432  0.24739863  0.55094586  1
  Se  Se147  1  0.91724017  0.58418017  0.05573622  1
  Se  Se148  1  0.92245426  0.58657172  0.55915207  1
  Se  Se149  1  0.91994627  0.91553455  0.05916100  1
  Se  Se150  1  0.91828272  0.91616772  0.55147964  1
  Se  Se151  1  0.08739240  0.24514983  0.43936895  1
  Se  Se152  1  0.08354579  0.25185455  0.94969237  1
  Se  Se153  1  0.07865729  0.58475938  0.44894962  1
  Se  Se154  1  0.07718986  0.59606590  0.93806381  1
  Se  Se155  1  0.07437814  0.91948728  0.43619623  1
  Se  Se156  1  0.08304206  0.91595623  0.94905414  1
  Se  Se157  1  0.40921452  0.25945941  0.43871388  1
  Se  Se158  1  0.40801812  0.25595511  0.94132754  1
  Se  Se159  1  0.41324874  0.58405711  0.43871491  1
  Se  Se160  1  0.41778681  0.57826565  0.95086797  1
  Se  Se161  1  0.41838797  0.91233979  0.45380291  1
  Se  Se162  1  0.41537579  0.91518495  0.94805147  1
  Se  Se163  1  0.75612135  0.24990449  0.45267474  1
  Se  Se164  1  0.74284470  0.25608417  0.94350450  1
  Se  Se165  1  0.74350425  0.59740563  0.43829296  1
  Se  Se166  1  0.75341733  0.58308171  0.95305859  1
  Se  Se167  1  0.75546603  0.91510746  0.43959230  1
  Se  Se168  1  0.75671717  0.91655787  0.95234776  1
  Se  Se169  1  0.24627248  0.08266423  0.45371894  1
  Se  Se170  1  0.24766466  0.08449310  0.95176306  1
  Se  Se171  1  0.24427127  0.42292479  0.44014838  1
  Se  Se172  1  0.25655851  0.41156746  0.93789878  1
  Se  Se173  1  0.24986349  0.74774344  0.43598871  1
  Se  Se174  1  0.25071589  0.74944682  0.94927502  1
  Se  Se175  1  0.58932632  0.07594036  0.43950693  1
  Se  Se176  1  0.59154681  0.06937424  0.94818521  1
  Se  Se177  1  0.57992183  0.41934857  0.44741696  1
  Se  Se178  1  0.57916551  0.42013844  0.95352109  1
  Se  Se179  1  0.57248346  0.76160126  0.44104145  1
  Se  Se180  1  0.58577631  0.74403755  0.94843648  1
  Se  Se181  1  0.91532925  0.08594652  0.44059102  1
  Se  Se182  1  0.92098481  0.08136555  0.94276802  1
  Se  Se183  1  0.92383315  0.41029919  0.43581594  1
  Se  Se184  1  0.91802470  0.42177090  0.94887530  1
  Se  Se185  1  0.92337708  0.75847118  0.44526139  1
  Se  Se186  1  0.91828519  0.75394863  0.94953969  1
  Se  Se187  1  0.25117272  0.25053478  0.30190649  1
  Se  Se188  1  0.24405540  0.24115725  0.81033548  1
  Se  Se189  1  0.24909016  0.58414885  0.30125915  1
  Se  Se190  1  0.25228007  0.58169271  0.79729787  1
  Se  Se191  1  0.24606284  0.91250762  0.31308419  1
  Se  Se192  1  0.25045980  0.91855148  0.81143965  1
  Se  Se193  1  0.58166210  0.24248812  0.31715619  1
  Se  Se194  1  0.57657505  0.24162684  0.80630017  1
  Se  Se195  1  0.57386315  0.57681069  0.30307682  1
  Se  Se196  1  0.57623786  0.58085930  0.80871266  1
  Se  Se197  1  0.58512572  0.91443481  0.30007963  1
  Se  Se198  1  0.57385279  0.90074935  0.81006703  1
  Se  Se199  1  0.91836491  0.24992879  0.29994157  1
  Se  Se200  1  0.92384397  0.25213834  0.80303324  1
  Se  Se201  1  0.91644187  0.58561870  0.30540338  1
  Se  Se202  1  0.91034485  0.58526330  0.81187018  1
  Se  Se203  1  0.93174215  0.93112123  0.29747637  1
  Se  Se204  1  0.91837971  0.92056581  0.80009389  1
  Se  Se205  1  0.08377906  0.08136461  0.30029504  1
  Se  Se206  1  0.08223288  0.07918521  0.80752988  1
  Se  Se207  1  0.08222958  0.41430750  0.30042792  1
  Se  Se208  1  0.08257247  0.41618438  0.79919339  1
  Se  Se209  1  0.08768312  0.74708786  0.30005171  1
  Se  Se210  1  0.08675415  0.75649030  0.81352849  1
  Se  Se211  1  0.41988219  0.08554759  0.32021452  1
  Se  Se212  1  0.41286845  0.07337371  0.80303924  1
  Se  Se213  1  0.41081144  0.41408589  0.29717204  1
  Se  Se214  1  0.42318097  0.41861038  0.80638412  1
  Se  Se215  1  0.41534845  0.74898622  0.29949478  1
  Se  Se216  1  0.40769426  0.74121769  0.80635199  1
  Se  Se217  1  0.74985803  0.07974755  0.30299642  1
  Se  Se218  1  0.76206409  0.09247623  0.80874048  1
  Se  Se219  1  0.75063136  0.42052329  0.31102964  1
  Se  Se220  1  0.75502455  0.42616011  0.81837722  1
  Se  Se221  1  0.76294615  0.76315887  0.30425130  1
  Se  Se222  1  0.75210424  0.75897465  0.80895707  1
  Se  Se223  1  0.24312683  0.08677567  0.18828636  1
  Se  Se224  1  0.24889462  0.08018528  0.69738227  1
  Se  Se225  1  0.25373284  0.41123086  0.19633012  1
  Se  Se226  1  0.24595464  0.42151588  0.68101084  1
  Se  Se227  1  0.25321848  0.74982191  0.19784028  1
  Se  Se228  1  0.24463678  0.74785329  0.70137509  1
  Se  Se229  1  0.56150761  0.09446348  0.20450842  1
  Se  Se230  1  0.58212733  0.08511942  0.69374258  1
  Se  Se231  1  0.57806926  0.42403213  0.19396128  1
  Se  Se232  1  0.58030723  0.42291465  0.69171155  1
  Se  Se233  1  0.58371969  0.75469767  0.18454340  1
  Se  Se234  1  0.57282928  0.75916659  0.68658776  1
  Se  Se235  1  0.92041391  0.07729957  0.19731223  1
  Se  Se236  1  0.92234652  0.07835504  0.69162410  1
  Se  Se237  1  0.91804903  0.41427840  0.20211956  1
  Se  Se238  1  0.92087694  0.41152601  0.70120780  1
  Se  Se239  1  0.92413215  0.74479920  0.19927492  1
  Se  Se240  1  0.90775857  0.75464240  0.68910302  1
  Se  Se241  1  0.08020807  0.25241774  0.19671924  1
  Se  Se242  1  0.08457615  0.24762142  0.69366992  1
  Se  Se243  1  0.08451076  0.58224638  0.20032595  1
  Se  Se244  1  0.08906001  0.57623098  0.68518328  1
  Se  Se245  1  0.08591359  0.91829230  0.19624123  1
  Se  Se246  1  0.07972111  0.91640266  0.70209901  1
  Se  Se247  1  0.42211330  0.23861257  0.20353961  1
  Se  Se248  1  0.42238371  0.23997929  0.68806260  1
  Se  Se249  1  0.40845715  0.59788042  0.20009144  1
  Se  Se250  1  0.41367504  0.58873917  0.69169254  1
  Se  Se251  1  0.41976333  0.91058814  0.18891595  1
  Se  Se252  1  0.41081125  0.92290430  0.70021135  1
  Se  Se253  1  0.75812346  0.23617827  0.18721439  1
  Se  Se254  1  0.75902813  0.24017420  0.68836795  1
  Se  Se255  1  0.75604322  0.57799601  0.19124223  1
  Se  Se256  1  0.75711855  0.57163304  0.69248050  1
  Se  Se257  1  0.73210643  0.92642431  0.19571290  1
  Se  Se258  1  0.74843136  0.91006790  0.68454390  1
