# generated using pymatgen
data_In86Cu29Se144
_symmetry_space_group_name_H-M   'P 1'
_cell_length_a   17.58873153
_cell_length_b   17.58613678
_cell_length_c   23.45616178
_cell_angle_alpha   90.01672518
_cell_angle_beta   89.99124604
_cell_angle_gamma   90.00779558
_symmetry_Int_Tables_number   1
_chemical_formula_structural   In86Cu29Se144
_chemical_formula_sum   'In86 Cu29 Se144'
_cell_volume   7255.40879990
_cell_formula_units_Z   1
loop_
 _symmetry_equiv_pos_site_id
 _symmetry_equiv_pos_as_xyz
  1  'x, y, z'
loop_
 _atom_site_type_symbol
 _atom_site_label
 _atom_site_symmetry_multiplicity
 _atom_site_fract_x
 _atom_site_fract_y
 _atom_site_fract_z
 _atom_site_occupancy
  In  In0  1  -0.01485372  0.17730807  0.13583883  1
  In  In1  1  -0.00546771  0.17044541  0.62872045  1
  In  In2  1  -0.00166490  0.49133301  0.11828351  1
  In  In3  1  -0.01816731  0.49524147  0.61911934  1
  In  In4  1  -0.01397490  0.84942662  0.13833346  1
  In  In5  1  0.01160535  0.83791575  0.62148623  1
  In  In6  1  0.33137022  0.15548806  0.12479279  1
  In  In7  1  0.33292473  0.16160853  0.62387739  1
  In  In8  1  0.32155770  0.50645941  0.11405707  1
  In  In9  1  0.31806877  0.49129302  0.62823430  1
  In  In10  1  0.33956446  0.83811049  0.12472431  1
  In  In11  1  0.34090876  0.84827997  0.62743161  1
  In  In12  1  0.67098534  0.16459681  0.12201213  1
  In  In13  1  0.68323837  0.18660365  0.61416092  1
  In  In14  1  0.68349324  0.48328603  0.13150674  1
  In  In15  1  0.68494842  0.47642262  0.64639767  1
  In  In16  1  0.67213835  0.82395103  0.13091321  1
  In  In17  1  0.66088825  0.83316837  0.62799010  1
  In  In18  1  0.17447040  0.01023625  0.36079142  1
  In  In19  1  0.16930282  0.00617351  0.86869474  1
  In  In20  1  0.14367656  0.32504589  0.37541179  1
  In  In21  1  0.16782937  0.32982364  0.87276934  1
  In  In22  1  0.16249178  0.68006857  0.36804218  1
  In  In23  1  0.15281037  0.66961595  0.87951850  1
  In  In24  1  0.50470655  0.00962541  0.36884206  1
  In  In25  1  0.50838397  0.02397917  0.87691731  1
  In  In26  1  0.50249291  0.31580481  0.37818013  1
  In  In27  1  0.49097186  0.32879795  0.86581430  1
  In  In28  1  0.50725070  0.66153538  0.36933525  1
  In  In29  1  0.50709895  0.64614108  0.87212853  1
  In  In30  1  0.84078804  0.01422039  0.36592518  1
  In  In31  1  0.83591463  -0.00842215  0.88619573  1
  In  In32  1  0.83689440  0.33577752  0.37513085  1
  In  In33  1  0.83407784  0.33461396  0.87674518  1
  In  In34  1  0.83086172  0.66067908  0.36505490  1
  In  In35  1  0.82588186  0.66572845  0.88272319  1
  In  In36  1  -0.00269946  0.17142707  0.37943166  1
  In  In37  1  -0.00455834  0.16620186  0.87317492  1
  In  In38  1  -0.02205696  0.47634093  0.35850501  1
  In  In39  1  0.00741877  0.48518045  0.89377277  1
  In  In40  1  0.01868589  0.83986045  0.35097959  1
  In  In41  1  -0.01375156  0.83445439  0.88061228  1
  In  In42  1  0.33621549  0.14892748  0.38720218  1
  In  In43  1  0.34124606  0.17432486  0.86610435  1
  In  In44  1  0.33907508  0.50464503  0.37967250  1
  In  In45  1  0.34130386  0.48246130  0.87509961  1
  In  In46  1  0.32717579  0.85965623  0.37267971  1
  In  In47  1  0.32405653  0.83985324  0.87277601  1
  In  In48  1  0.67024357  0.17062082  0.37087549  1
  In  In49  1  0.65767083  0.16706843  0.88577409  1
  In  In50  1  0.68087128  0.50963589  0.36582718  1
  In  In51  1  0.66840952  0.50596323  0.86705613  1
  In  In52  1  0.66722667  0.83629277  0.36481859  1
  In  In53  1  0.68568446  0.83429649  0.87957697  1
  In  In54  1  0.16726892  -0.00355281  0.13920029  1
  In  In55  1  0.15843234  0.01174630  0.62894187  1
  In  In56  1  0.14632322  0.33600652  0.12138888  1
  In  In57  1  0.17276719  0.32467335  0.63268919  1
  In  In58  1  0.16327934  0.64821555  0.11932094  1
  In  In59  1  0.16283090  0.66340317  0.62514205  1
  In  In60  1  0.49507857  0.00708217  0.12965378  1
  In  In61  1  0.48824266  0.01199120  0.63036244  1
  In  In62  1  0.52091973  0.33402134  0.12360404  1
  In  In63  1  0.51259664  0.32114060  0.63365738  1
  In  In64  1  0.49763977  0.67471043  0.12538005  1
  In  In65  1  0.51451356  0.67141090  0.63244575  1
  In  In66  1  0.82911573  0.00365450  0.12429209  1
  In  In67  1  0.83230134  0.02213999  0.62473362  1
  In  In68  1  0.83661970  0.32354227  0.11851299  1
  In  In69  1  0.83156179  0.33108392  0.62939662  1
  In  In70  1  0.83278538  0.66466985  0.12492476  1
  In  In71  1  0.83672126  0.65138853  0.62433734  1
  In  In72  1  0.15855033  0.16779270  0.00018456  1
  In  In73  1  0.15896330  0.49245905  0.49972395  1
  In  In74  1  0.51370865  0.48872621  0.51812515  1
  In  In75  1  -0.00513131  0.66644559  0.75494836  1
  In  In76  1  0.50300262  0.83241812  0.00459534  1
  In  In77  1  0.16066765  0.82893708  0.00649711  1
  In  In78  1  0.66876572  0.00090425  0.75424680  1
  In  In79  1  0.33275027  0.66384999  0.75109287  1
  In  In80  1  0.50681023  0.84334098  0.49027672  1
  In  In81  1  0.83519065  0.83388860  0.48504398  1
  In  In82  1  0.33452403  0.33032991  0.25516848  1
  In  In83  1  0.50035924  0.49456047  -0.00346087  1
  In  In84  1  0.33144212  0.67257042  0.24626286  1
  In  In85  1  0.16858025  0.84083139  0.49934833  1
  Cu  Cu86  1  0.49964012  0.83991711  0.24639556  1
  Cu  Cu87  1  0.33398827  0.32497416  -0.00532644  1
  Cu  Cu88  1  0.66142332  0.01383477  0.49593001  1
  Cu  Cu89  1  0.16664988  0.84954200  0.74733925  1
  Cu  Cu90  1  0.82788325  0.83129851  0.24789207  1
  Cu  Cu91  1  0.83628041  0.49733508  0.24252275  1
  Cu  Cu92  1  -0.00559497  0.00481555  0.49984896  1
  Cu  Cu93  1  0.16332660  0.16623976  0.25216569  1
  Cu  Cu94  1  0.67182008  0.33980083  0.49890087  1
  Cu  Cu95  1  0.66364474  0.66079789  0.00553085  1
  Cu  Cu96  1  0.83392783  0.49650152  0.75377754  1
  Cu  Cu97  1  0.50196625  0.16438479  0.74829345  1
  Cu  Cu98  1  0.34073332  0.00394931  -0.00073783  1
  Cu  Cu99  1  0.83948493  0.83575113  0.75500158  1
  Cu  Cu100  1  0.82989496  0.16733305  0.24767328  1
  Cu  Cu101  1  0.68188515  0.65872057  0.49860485  1
  Cu  Cu102  1  -0.00969634  0.66606866  0.00443301  1
  Cu  Cu103  1  0.50280597  0.16713366  0.25026939  1
  Cu  Cu104  1  0.16111053  0.49692996  0.24580410  1
  Cu  Cu105  1  -0.00570438  0.65759773  0.48619955  1
  Cu  Cu106  1  0.50968194  0.50108737  0.24712501  1
  Cu  Cu107  1  0.34488876  0.67372374  0.50006689  1
  Cu  Cu108  1  0.67071191  0.32593470  -0.00072208  1
  Cu  Cu109  1  0.32601710  0.32079487  0.50235188  1
  Cu  Cu110  1  0.16445553  0.16668009  0.74823521  1
  Cu  Cu111  1  0.83349648  0.17186268  0.75216828  1
  Cu  Cu112  1  0.16060219  0.49386743  0.75655175  1
  Cu  Cu113  1  0.00023880  0.00080016  0.00778261  1
  Cu  Cu114  1  0.50498170  0.83140989  0.75196067  1
  Se  Se115  1  0.08049733  0.07818634  0.06836404  1
  Se  Se116  1  0.07482402  0.08535968  0.55699540  1
  Se  Se117  1  0.09820941  0.43167120  0.04853297  1
  Se  Se118  1  0.07561042  0.40434495  0.56318808  1
  Se  Se119  1  0.06688812  0.74727359  0.06724145  1
  Se  Se120  1  0.07444938  0.73617409  0.54939028  1
  Se  Se121  1  0.42082286  0.08769651  0.05314213  1
  Se  Se122  1  0.42084362  0.08750213  0.55333269  1
  Se  Se123  1  0.41080535  0.40362068  0.06046724  1
  Se  Se124  1  0.40520230  0.40349605  0.56279004  1
  Se  Se125  1  0.40217627  0.73898102  0.05322854  1
  Se  Se126  1  0.42294232  0.75297797  0.56047503  1
  Se  Se127  1  0.76886137  0.10065411  0.05398866  1
  Se  Se128  1  0.75224683  0.08967888  0.54741276  1
  Se  Se129  1  0.75259182  0.41191311  0.05099594  1
  Se  Se130  1  0.75106390  0.41934969  0.55887236  1
  Se  Se131  1  0.74712690  0.74647215  0.05529446  1
  Se  Se132  1  0.75156589  0.75021778  0.55794738  1
  Se  Se133  1  0.25312627  0.25497063  0.06114251  1
  Se  Se134  1  0.24186619  0.24189888  0.55703461  1
  Se  Se135  1  0.24799746  0.58634154  0.04255748  1
  Se  Se136  1  0.25749672  0.59157510  0.55334016  1
  Se  Se137  1  0.25516335  0.92830230  0.05680848  1
  Se  Se138  1  0.25649967  0.93064645  0.55954870  1
  Se  Se139  1  0.58344856  0.24477122  0.05056599  1
  Se  Se140  1  0.58406965  0.25748570  0.54977506  1
  Se  Se141  1  0.58501782  0.57988354  0.06536031  1
  Se  Se142  1  0.60434928  0.58868346  0.56673305  1
  Se  Se143  1  0.58807843  0.91942451  0.06679397  1
  Se  Se144  1  0.59066886  0.92947681  0.55943017  1
  Se  Se145  1  0.93086104  0.25114589  0.05180562  1
  Se  Se146  1  0.89406944  0.23248423  0.56212263  1
  Se  Se147  1  0.91009297  0.57853057  0.05509773  1
  Se  Se148  1  0.91248511  0.58131221  0.54551285  1
  Se  Se149  1  0.91413991  0.91617704  0.05648999  1
  Se  Se150  1  0.91537270  0.91962500  0.55777395  1
  Se  Se151  1  0.07937338  0.24732441  0.45268765  1
  Se  Se152  1  0.07096160  0.26086722  0.94415615  1
  Se  Se153  1  0.08320352  0.58201485  0.43023132  1
  Se  Se154  1  0.07990771  0.58872348  0.95222932  1
  Se  Se155  1  0.07111928  0.91992888  0.43928522  1
  Se  Se156  1  0.08133264  0.92598340  0.94302619  1
  Se  Se157  1  0.41504017  0.24510233  0.44828761  1
  Se  Se158  1  0.42134957  0.24602124  0.94254390  1
  Se  Se159  1  0.42759452  0.58598784  0.45022000  1
  Se  Se160  1  0.40668406  0.58785974  0.94262329  1
  Se  Se161  1  0.40914521  0.93707422  0.44525090  1
  Se  Se162  1  0.41599010  0.92157498  0.93896330  1
  Se  Se163  1  0.74820832  0.25449480  0.44219908  1
  Se  Se164  1  0.75533506  0.24531789  0.94538324  1
  Se  Se165  1  0.76250033  0.57813538  0.44304545  1
  Se  Se166  1  0.74205903  0.57778033  0.94694100  1
  Se  Se167  1  0.73932665  0.92962145  0.43678790  1
  Se  Se168  1  0.74768404  0.91752188  0.95491745  1
  Se  Se169  1  0.23640128  0.07558683  0.44614890  1
  Se  Se170  1  0.25785969  0.08407406  0.94111880  1
  Se  Se171  1  0.25650120  0.40748009  0.43892617  1
  Se  Se172  1  0.25133947  0.41042264  0.94373602  1
  Se  Se173  1  0.26302003  0.74932315  0.43903452  1
  Se  Se174  1  0.25392591  0.74609577  0.94259628  1
  Se  Se175  1  0.57953785  0.09405189  0.44062645  1
  Se  Se176  1  0.59823634  0.06760990  0.95477344  1
  Se  Se177  1  0.58908926  0.41814849  0.43654949  1
  Se  Se178  1  0.58990094  0.40567509  0.93726699  1
  Se  Se179  1  0.59823687  0.73999244  0.44161377  1
  Se  Se180  1  0.58782399  0.73938217  0.94091424  1
  Se  Se181  1  0.91002952  0.08643348  0.44663421  1
  Se  Se182  1  0.92361028  0.08099756  0.94678389  1
  Se  Se183  1  0.92115158  0.41420105  0.44623566  1
  Se  Se184  1  0.89290526  0.43265401  0.94801067  1
  Se  Se185  1  0.92956245  0.74923269  0.42597525  1
  Se  Se186  1  0.91032704  0.75051407  0.94965109  1
  Se  Se187  1  0.24572818  0.24260171  0.31575579  1
  Se  Se188  1  0.24860982  0.24989411  0.80192254  1
  Se  Se189  1  0.24631501  0.57297246  0.30635505  1
  Se  Se190  1  0.23952930  0.57983101  0.81348277  1
  Se  Se191  1  0.23151339  0.90308071  0.29835513  1
  Se  Se192  1  0.25535623  0.92586145  0.80029802  1
  Se  Se193  1  0.58533740  0.25371980  0.30046568  1
  Se  Se194  1  0.58418797  0.24223180  0.80738488  1
  Se  Se195  1  0.59067338  0.58836917  0.29825372  1
  Se  Se196  1  0.58121775  0.57796059  0.79505607  1
  Se  Se197  1  0.58303491  0.92193473  0.30091857  1
  Se  Se198  1  0.58049578  0.91061388  0.81684222  1
  Se  Se199  1  0.91354647  0.24718877  0.30533823  1
  Se  Se200  1  0.91774195  0.25463325  0.80510739  1
  Se  Se201  1  0.91874756  0.58305702  0.29640675  1
  Se  Se202  1  0.91292431  0.57536940  0.81664498  1
  Se  Se203  1  0.90988084  0.91440573  0.30228164  1
  Se  Se204  1  0.91797369  0.92190514  0.80778059  1
  Se  Se205  1  0.07413417  0.08793797  0.30497491  1
  Se  Se206  1  0.08166622  0.08585442  0.80438775  1
  Se  Se207  1  0.08116000  0.40833933  0.29692812  1
  Se  Se208  1  0.07606977  0.41498867  0.81093757  1
  Se  Se209  1  0.08188813  0.73681300  0.28866229  1
  Se  Se210  1  0.08748932  0.76669484  0.80699972  1
  Se  Se211  1  0.41329249  0.08872854  0.30330987  1
  Se  Se212  1  0.41822278  0.08023378  0.80068377  1
  Se  Se213  1  0.42870941  0.42566551  0.31089310  1
  Se  Se214  1  0.42229373  0.42234945  0.79751055  1
  Se  Se215  1  0.42034903  0.76069748  0.31177885  1
  Se  Se216  1  0.42387400  0.75338831  0.81332864  1
  Se  Se217  1  0.74453932  0.08306392  0.29924837  1
  Se  Se218  1  0.75807409  0.08851342  0.81470455  1
  Se  Se219  1  0.75547091  0.41630780  0.30142646  1
  Se  Se220  1  0.74812662  0.41255115  0.80459125  1
  Se  Se221  1  0.74523624  0.74619745  0.30030725  1
  Se  Se222  1  0.75649830  0.75048966  0.80554828  1
  Se  Se223  1  0.25263503  0.08571439  0.20120700  1
  Se  Se224  1  0.25077046  0.08301503  0.69744681  1
  Se  Se225  1  0.24838834  0.41875040  0.18984614  1
  Se  Se226  1  0.24744113  0.41336601  0.70424997  1
  Se  Se227  1  0.24064729  0.75339511  0.18240088  1
  Se  Se228  1  0.24275011  0.75982545  0.68994317  1
  Se  Se229  1  0.58511857  0.08661494  0.19425980  1
  Se  Se230  1  0.59133642  0.09249720  0.68726523  1
  Se  Se231  1  0.59182431  0.41090299  0.20096478  1
  Se  Se232  1  0.56948337  0.42410498  0.69893129  1
  Se  Se233  1  0.57879093  0.74811720  0.19821783  1
  Se  Se234  1  0.59447762  0.75044202  0.70474894  1
  Se  Se235  1  0.91409227  0.07927963  0.19859929  1
  Se  Se236  1  0.91572734  0.08434167  0.70169898  1
  Se  Se237  1  0.91600997  0.41103642  0.18911040  1
  Se  Se238  1  0.91648132  0.41602696  0.69794472  1
  Se  Se239  1  0.91245103  0.74707310  0.19676542  1
  Se  Se240  1  0.91289272  0.75712070  0.68724823  1
  Se  Se241  1  0.08403512  0.25161416  0.19852342  1
  Se  Se242  1  0.07911802  0.25118252  0.69885553  1
  Se  Se243  1  0.07821528  0.57682999  0.19126012  1
  Se  Se244  1  0.08395599  0.57375082  0.69277161  1
  Se  Se245  1  0.08387335  0.91470913  0.20384654  1
  Se  Se246  1  0.07564887  0.92395845  0.69579804  1
  Se  Se247  1  0.42357654  0.24803600  0.18857118  1
  Se  Se248  1  0.41580143  0.24444638  0.69455125  1
  Se  Se249  1  0.41952349  0.57254631  0.18939804  1
  Se  Se250  1  0.41830461  0.57865445  0.68579650  1
  Se  Se251  1  0.41099059  0.92139853  0.19753599  1
  Se  Se252  1  0.42380235  0.91821199  0.70166930  1
  Se  Se253  1  0.74997640  0.25172697  0.19210640  1
  Se  Se254  1  0.74509177  0.25264193  0.70099106  1
  Se  Se255  1  0.74859977  0.58405326  0.19577547  1
  Se  Se256  1  0.75455896  0.58650981  0.70138228  1
  Se  Se257  1  0.74808301  0.91812072  0.19465764  1
  Se  Se258  1  0.76106709  0.91296060  0.68974574  1
