# generated using pymatgen
data_In86Cu29Se144
_symmetry_space_group_name_H-M   'P 1'
_cell_length_a   17.58908859
_cell_length_b   17.58437279
_cell_length_c   23.45054225
_cell_angle_alpha   89.99163677
_cell_angle_beta   89.99963972
_cell_angle_gamma   89.98396526
_symmetry_Int_Tables_number   1
_chemical_formula_structural   In86Cu29Se144
_chemical_formula_sum   'In86 Cu29 Se144'
_cell_volume   7253.09032921
_cell_formula_units_Z   1
loop_
 _symmetry_equiv_pos_site_id
 _symmetry_equiv_pos_as_xyz
  1  'x, y, z'
loop_
 _atom_site_type_symbol
 _atom_site_label
 _atom_site_symmetry_multiplicity
 _atom_site_fract_x
 _atom_site_fract_y
 _atom_site_fract_z
 _atom_site_occupancy
  In  In0  1  0.00269640  0.16809299  0.12494667  1
  In  In1  1  0.00024915  0.17931566  0.61903200  1
  In  In2  1  -0.00038684  0.48888797  0.12505368  1
  In  In3  1  0.01563351  0.52809778  0.60366404  1
  In  In4  1  0.00089788  0.85004079  0.12534042  1
  In  In5  1  -0.00126501  0.79851729  0.62725203  1
  In  In6  1  0.33028428  0.18501446  0.12461377  1
  In  In7  1  0.34267270  0.16534029  0.63470109  1
  In  In8  1  0.32946401  0.49669003  0.12052554  1
  In  In9  1  0.33497091  0.50063956  0.62742954  1
  In  In10  1  0.33516586  0.82007843  0.11836159  1
  In  In11  1  0.33181038  0.83442253  0.62404610  1
  In  In12  1  0.67257939  0.16430167  0.13584852  1
  In  In13  1  0.66551883  0.15775932  0.61965516  1
  In  In14  1  0.65787487  0.50031815  0.12852171  1
  In  In15  1  0.67990699  0.51030737  0.61070658  1
  In  In16  1  0.66952336  0.83774471  0.11725506  1
  In  In17  1  0.66381186  0.84534820  0.63681542  1
  In  In18  1  0.15823082  0.00400307  0.37834801  1
  In  In19  1  0.17875817  -0.00551435  0.87545175  1
  In  In20  1  0.17690859  0.33843957  0.36771804  1
  In  In21  1  0.17426150  0.32534472  0.88558699  1
  In  In22  1  0.16894707  0.65848135  0.39037059  1
  In  In23  1  0.15977945  0.65613191  0.86627043  1
  In  In24  1  0.50566103  -0.01813292  0.37644514  1
  In  In25  1  0.49368547  -0.01169921  0.86908277  1
  In  In26  1  0.50794774  0.34856222  0.36005621  1
  In  In27  1  0.49822224  0.35212855  0.87927155  1
  In  In28  1  0.50246664  0.66196899  0.38750437  1
  In  In29  1  0.50157055  0.66719721  0.86776930  1
  In  In30  1  0.83720412  0.00995896  0.37180458  1
  In  In31  1  0.81382346  -0.00520918  0.86538166  1
  In  In32  1  0.83221604  0.32937082  0.37716850  1
  In  In33  1  0.84092118  0.34066748  0.87755505  1
  In  In34  1  0.82458787  0.66378280  0.38279330  1
  In  In35  1  0.84783096  0.68217618  0.85173820  1
  In  In36  1  -0.00918556  0.15725013  0.37067520  1
  In  In37  1  0.00514646  0.17911560  0.88082501  1
  In  In38  1  0.01460653  0.48854563  0.38478812  1
  In  In39  1  0.00636144  0.51663012  0.87871956  1
  In  In40  1  -0.00836158  0.84360133  0.37733458  1
  In  In41  1  -0.00069119  0.81035160  0.87713932  1
  In  In42  1  0.32175804  0.17047796  0.37412880  1
  In  In43  1  0.32836438  0.15853536  0.87176901  1
  In  In44  1  0.34188505  0.48577491  0.38508133  1
  In  In45  1  0.33411657  0.50240064  0.86961552  1
  In  In46  1  0.34459497  0.82840758  0.39175181  1
  In  In47  1  0.34315147  0.84099046  0.86573246  1
  In  In48  1  0.67943914  0.17980706  0.36976027  1
  In  In49  1  0.67842058  0.16149687  0.87354927  1
  In  In50  1  0.66548066  0.48732010  0.38669019  1
  In  In51  1  0.65337266  0.50055242  0.87598305  1
  In  In52  1  0.65496286  0.82853583  0.37552550  1
  In  In53  1  0.66758597  0.82752558  0.86913591  1
  In  In54  1  0.14661436  0.00007247  0.12492236  1
  In  In55  1  0.18768856  -0.00722174  0.62778749  1
  In  In56  1  0.16533304  0.33956495  0.12252044  1
  In  In57  1  0.16620524  0.34834503  0.62397058  1
  In  In58  1  0.17276289  0.66035559  0.11747727  1
  In  In59  1  0.17093111  0.66897318  0.62586896  1
  In  In60  1  0.51049895  -0.00067906  0.12538251  1
  In  In61  1  0.50274206  -0.00380472  0.62645028  1
  In  In62  1  0.49019574  0.34888853  0.14179355  1
  In  In63  1  0.49124095  0.32854503  0.62392380  1
  In  In64  1  0.49515213  0.66168327  0.11260624  1
  In  In65  1  0.49783462  0.66767770  0.62724614  1
  In  In66  1  0.83507639  -0.00120252  0.12667302  1
  In  In67  1  0.82014173  -0.00914841  0.62441101  1
  In  In68  1  0.83876471  0.33142675  0.13617801  1
  In  In69  1  0.83643613  0.34179623  0.60877338  1
  In  In70  1  0.81998539  0.66883630  0.11815761  1
  In  In71  1  0.83585515  0.66304633  0.64043805  1
  In  In72  1  0.00310378  -0.00464564  0.74966402  1
  In  In73  1  0.83730239  0.16546408  0.00762566  1
  In  In74  1  0.16566992  0.16461033  0.49522983  1
  In  In75  1  0.83642694  0.50963885  -0.00427347  1
  In  In76  1  -0.00005494  0.34058778  0.74972897  1
  In  In77  1  0.16541030  0.82862270  -0.00318452  1
  In  In78  1  0.33042894  0.00268064  0.25433851  1
  In  In79  1  0.65842226  0.33185312  0.74619921  1
  In  In80  1  0.66270332  0.66219565  0.25792349  1
  In  In81  1  -0.00267156  0.66882918  0.25235647  1
  In  In82  1  0.33378244  0.66126915  0.24621660  1
  In  In83  1  0.83519467  0.82810501  0.50532134  1
  In  In84  1  0.49942982  0.16970845  0.00820415  1
  In  In85  1  0.50351884  0.16997803  0.49806593  1
  Cu  Cu86  1  0.66763253  -0.00131284  0.50200739  1
  Cu  Cu87  1  0.66494138  0.33623630  0.00738661  1
  Cu  Cu88  1  0.16999728  0.50236837  0.74645035  1
  Cu  Cu89  1  -0.00771331  0.33433194  0.49499437  1
  Cu  Cu90  1  0.16027024  0.17017826  0.24900834  1
  Cu  Cu91  1  0.49903501  0.16546473  0.75073188  1
  Cu  Cu92  1  0.34267528  0.66701281  -0.01064063  1
  Cu  Cu93  1  0.32901379  0.33669940  0.50119319  1
  Cu  Cu94  1  0.83430276  0.49822550  0.74368589  1
  Cu  Cu95  1  0.00405067  -0.00612518  0.50046008  1
  Cu  Cu96  1  0.33378119  0.34117377  0.00152238  1
  Cu  Cu97  1  0.50336451  0.16435747  0.24857487  1
  Cu  Cu98  1  0.33196917  0.66495839  0.50933381  1
  Cu  Cu99  1  0.82777893  0.16178799  0.74344934  1
  Cu  Cu100  1  0.83429028  0.16766628  0.25153401  1
  Cu  Cu101  1  0.17713701  0.16893685  0.75461225  1
  Cu  Cu102  1  0.83609796  0.49325952  0.25786626  1
  Cu  Cu103  1  0.65920608  0.66986434  0.50469006  1
  Cu  Cu104  1  0.66354676  0.67051955  -0.00744159  1
  Cu  Cu105  1  0.17181224  0.83034936  0.74916682  1
  Cu  Cu106  1  0.49708294  0.50200239  0.74843072  1
  Cu  Cu107  1  0.32842370  0.00275327  -0.00552305  1
  Cu  Cu108  1  0.49962548  0.83252386  0.74782755  1
  Cu  Cu109  1  0.65729010  -0.01129803  -0.00557210  1
  Cu  Cu110  1  0.16079792  0.83862056  0.25549088  1
  Cu  Cu111  1  0.50256643  0.82966696  0.24900816  1
  Cu  Cu112  1  0.17170639  0.49326184  0.25094596  1
  Cu  Cu113  1  -0.00891195  0.00184814  -0.00000676  1
  Cu  Cu114  1  0.83394972  0.84592281  0.24686452  1
  Se  Se115  1  0.07760399  0.08393949  0.05050612  1
  Se  Se116  1  0.08193588  0.07535399  0.56250228  1
  Se  Se117  1  0.09905764  0.43777363  0.05567944  1
  Se  Se118  1  0.07768385  0.41283860  0.55082306  1
  Se  Se119  1  0.07382076  0.74675062  0.06103355  1
  Se  Se120  1  0.08847056  0.74603870  0.55251900  1
  Se  Se121  1  0.40484121  0.07621671  0.06328555  1
  Se  Se122  1  0.41250714  0.08114437  0.55768201  1
  Se  Se123  1  0.42275343  0.41595586  0.05672347  1
  Se  Se124  1  0.41451160  0.41573076  0.55568827  1
  Se  Se125  1  0.42079794  0.75305320  0.04481050  1
  Se  Se126  1  0.41796359  0.75128192  0.55662737  1
  Se  Se127  1  0.73551227  0.07409642  0.05475991  1
  Se  Se128  1  0.75466068  0.08113665  0.55157893  1
  Se  Se129  1  0.75347219  0.41557803  0.06171951  1
  Se  Se130  1  0.74233178  0.41203664  0.54455201  1
  Se  Se131  1  0.74731478  0.75291156  0.04668839  1
  Se  Se132  1  0.74100792  0.74666595  0.56663332  1
  Se  Se133  1  0.24829520  0.25552885  0.05107150  1
  Se  Se134  1  0.25420030  0.25069158  0.56159483  1
  Se  Se135  1  0.26108901  0.58842412  0.04866872  1
  Se  Se136  1  0.24809728  0.57757290  0.55763574  1
  Se  Se137  1  0.25111957  0.92295438  0.06023369  1
  Se  Se138  1  0.25089464  0.91308540  0.55079659  1
  Se  Se139  1  0.58872125  0.25696201  0.06953500  1
  Se  Se140  1  0.59350743  0.26018888  0.55693601  1
  Se  Se141  1  0.59081025  0.58312569  0.05170596  1
  Se  Se142  1  0.57506443  0.58318382  0.55445474  1
  Se  Se143  1  0.57324759  0.91078242  0.05101784  1
  Se  Se144  1  0.58721543  0.91577958  0.55700901  1
  Se  Se145  1  0.92489364  0.26535872  0.05687741  1
  Se  Se146  1  0.91348936  0.24531344  0.54609252  1
  Se  Se147  1  0.92505853  0.59309632  0.06192302  1
  Se  Se148  1  0.89481085  0.58311980  0.55921858  1
  Se  Se149  1  0.91071418  0.91644304  0.05274384  1
  Se  Se150  1  0.92849025  0.91602435  0.56591710  1
  Se  Se151  1  0.07689466  0.25494283  0.43533328  1
  Se  Se152  1  0.08133118  0.25437589  0.95301454  1
  Se  Se153  1  0.07707906  0.58360978  0.45395122  1
  Se  Se154  1  0.08942931  0.59132895  0.94923951  1
  Se  Se155  1  0.08561547  0.91205567  0.44622917  1
  Se  Se156  1  0.07257871  0.92170130  0.93834989  1
  Se  Se157  1  0.40816349  0.25654325  0.43962770  1
  Se  Se158  1  0.41283168  0.25539431  0.94234613  1
  Se  Se159  1  0.41161523  0.58239268  0.45070137  1
  Se  Se160  1  0.42387672  0.57962938  0.93841783  1
  Se  Se161  1  0.42525863  0.91808096  0.45315562  1
  Se  Se162  1  0.41301002  0.91784448  0.94570930  1
  Se  Se163  1  0.75432427  0.24575032  0.44843276  1
  Se  Se164  1  0.74528648  0.26020053  0.94559636  1
  Se  Se165  1  0.74026693  0.58549806  0.44993938  1
  Se  Se166  1  0.74642704  0.59221795  0.93216276  1
  Se  Se167  1  0.74777504  0.91709824  0.43994779  1
  Se  Se168  1  0.74683681  0.91283995  0.94161311  1
  Se  Se169  1  0.26222966  0.07058163  0.44522656  1
  Se  Se170  1  0.24372558  0.08771320  0.94678326  1
  Se  Se171  1  0.24068291  0.41656228  0.44897063  1
  Se  Se172  1  0.25401708  0.42301247  0.94367210  1
  Se  Se173  1  0.25170213  0.74813909  0.45271913  1
  Se  Se174  1  0.25738057  0.74750328  0.93284242  1
  Se  Se175  1  0.59291979  0.07869758  0.43734755  1
  Se  Se176  1  0.58418508  0.08195507  0.94010632  1
  Se  Se177  1  0.56407357  0.41642900  0.44668864  1
  Se  Se178  1  0.58400233  0.42020251  0.95345404  1
  Se  Se179  1  0.57824125  0.75631519  0.45208136  1
  Se  Se180  1  0.57852381  0.75257063  0.93977151  1
  Se  Se181  1  0.92002556  0.07800796  0.44857302  1
  Se  Se182  1  0.91360754  0.07788637  0.93400865  1
  Se  Se183  1  0.90981841  0.42128046  0.44481110  1
  Se  Se184  1  0.93261705  0.41347066  0.94510829  1
  Se  Se185  1  0.92541305  0.73989386  0.44422684  1
  Se  Se186  1  0.90911792  0.73733284  0.94298682  1
  Se  Se187  1  0.25086038  0.24922227  0.29795642  1
  Se  Se188  1  0.25483301  0.25622130  0.80802990  1
  Se  Se189  1  0.24617395  0.57717495  0.31223621  1
  Se  Se190  1  0.25390452  0.58629133  0.79898326  1
  Se  Se191  1  0.25008046  0.90687453  0.31634631  1
  Se  Se192  1  0.25249068  0.92008408  0.79887215  1
  Se  Se193  1  0.58491280  0.24972992  0.30164220  1
  Se  Se194  1  0.57529826  0.24454650  0.81568640  1
  Se  Se195  1  0.57247068  0.57241225  0.31374159  1
  Se  Se196  1  0.58513553  0.58153568  0.79969825  1
  Se  Se197  1  0.58761702  0.91343007  0.29930152  1
  Se  Se198  1  0.58458362  0.91600253  0.80163731  1
  Se  Se199  1  0.91733900  0.25105247  0.30520502  1
  Se  Se200  1  0.90692472  0.24169801  0.80491613  1
  Se  Se201  1  0.91279870  0.57842953  0.31565962  1
  Se  Se202  1  0.92229216  0.57515089  0.79892199  1
  Se  Se203  1  0.91844503  0.92375329  0.30289722  1
  Se  Se204  1  0.91611263  0.90949378  0.81251908  1
  Se  Se205  1  0.08383458  0.08186796  0.30328784  1
  Se  Se206  1  0.08937981  0.09125575  0.81057694  1
  Se  Se207  1  0.08222117  0.41530328  0.30325456  1
  Se  Se208  1  0.09250407  0.42311491  0.81140412  1
  Se  Se209  1  0.08952656  0.75199198  0.31609995  1
  Se  Se210  1  0.08436887  0.74874442  0.79967751  1
  Se  Se211  1  0.42590940  0.08756238  0.31386800  1
  Se  Se212  1  0.41603311  0.08075004  0.80441915  1
  Se  Se213  1  0.40137215  0.41283739  0.30144356  1
  Se  Se214  1  0.41684954  0.41528568  0.80113839  1
  Se  Se215  1  0.42285180  0.75092805  0.30987605  1
  Se  Se216  1  0.41522266  0.74770563  0.79913897  1
  Se  Se217  1  0.74830912  0.08305093  0.30204422  1
  Se  Se218  1  0.74042759  0.08143459  0.79381152  1
  Se  Se219  1  0.74738546  0.41648532  0.31069108  1
  Se  Se220  1  0.75516479  0.41925054  0.80664178  1
  Se  Se221  1  0.75988358  0.75998367  0.30759463  1
  Se  Se222  1  0.73366364  0.73507281  0.79803817  1
  Se  Se223  1  0.24187034  0.08774533  0.18858916  1
  Se  Se224  1  0.25466228  0.08302544  0.69952521  1
  Se  Se225  1  0.25478154  0.41444624  0.19393987  1
  Se  Se226  1  0.25256874  0.41458705  0.69745088  1
  Se  Se227  1  0.23775061  0.75847793  0.19332494  1
  Se  Se228  1  0.25575182  0.74799285  0.69579969  1
  Se  Se229  1  0.58578637  0.07774062  0.19888875  1
  Se  Se230  1  0.58202668  0.08704989  0.69349862  1
  Se  Se231  1  0.59520122  0.41278614  0.20168807  1
  Se  Se232  1  0.57784064  0.42571408  0.68495266  1
  Se  Se233  1  0.57892824  0.74762462  0.18768970  1
  Se  Se234  1  0.58356513  0.74872477  0.69616161  1
  Se  Se235  1  0.91527544  0.08751384  0.19175368  1
  Se  Se236  1  0.91708601  0.08893042  0.68691416  1
  Se  Se237  1  0.92258579  0.41644410  0.20228660  1
  Se  Se238  1  0.91752250  0.42489591  0.68199331  1
  Se  Se239  1  0.90705572  0.75671563  0.18893289  1
  Se  Se240  1  0.90702669  0.75767846  0.70563563  1
  Se  Se241  1  0.08312363  0.25459245  0.19195266  1
  Se  Se242  1  0.09380213  0.24510585  0.69388874  1
  Se  Se243  1  0.09332438  0.58124148  0.19473985  1
  Se  Se244  1  0.08345616  0.58311004  0.69248891  1
  Se  Se245  1  0.07773466  0.92150276  0.20328317  1
  Se  Se246  1  0.08899035  0.90648380  0.68687081  1
  Se  Se247  1  0.41541459  0.24743582  0.20055757  1
  Se  Se248  1  0.41739101  0.25508616  0.70275205  1
  Se  Se249  1  0.42819355  0.57441859  0.18999750  1
  Se  Se250  1  0.41300547  0.58672843  0.69705932  1
  Se  Se251  1  0.41582625  0.90753210  0.19135745  1
  Se  Se252  1  0.41641468  0.91693514  0.69429844  1
  Se  Se253  1  0.74952714  0.25385994  0.20184576  1
  Se  Se254  1  0.75668012  0.25144332  0.68501416  1
  Se  Se255  1  0.75995767  0.57724051  0.19689874  1
  Se  Se256  1  0.74056013  0.57759145  0.69806314  1
  Se  Se257  1  0.74385708  0.91897585  0.19172385  1
  Se  Se258  1  0.75813709  0.91516259  0.70419598  1
