# generated using pymatgen
data_In86Cu29Se144
_symmetry_space_group_name_H-M   'P 1'
_cell_length_a   17.57901712
_cell_length_b   17.58150541
_cell_length_c   23.44565789
_cell_angle_alpha   90.02001238
_cell_angle_beta   89.99332647
_cell_angle_gamma   90.00403976
_symmetry_Int_Tables_number   1
_chemical_formula_structural   In86Cu29Se144
_chemical_formula_sum   'In86 Cu29 Se144'
_cell_volume   7246.24545501
_cell_formula_units_Z   1
loop_
 _symmetry_equiv_pos_site_id
 _symmetry_equiv_pos_as_xyz
  1  'x, y, z'
loop_
 _atom_site_type_symbol
 _atom_site_label
 _atom_site_symmetry_multiplicity
 _atom_site_fract_x
 _atom_site_fract_y
 _atom_site_fract_z
 _atom_site_occupancy
  In  In0  1  0.01404793  0.15833302  0.12847368  1
  In  In1  1  -0.00088778  0.17211622  0.62507967  1
  In  In2  1  -0.01345541  0.49695066  0.12422765  1
  In  In3  1  -0.01970608  0.49448701  0.62506847  1
  In  In4  1  0.00309173  0.84658607  0.12539415  1
  In  In5  1  0.01192559  0.83892800  0.62801854  1
  In  In6  1  0.32217135  0.17516785  0.12734779  1
  In  In7  1  0.33751332  0.17816956  0.62065537  1
  In  In8  1  0.34804616  0.48673344  0.12695254  1
  In  In9  1  0.34399208  0.49736225  0.62956290  1
  In  In10  1  0.33864095  0.82227026  0.14282996  1
  In  In11  1  0.34266666  0.82287443  0.62741557  1
  In  In12  1  0.65429101  0.16053857  0.12865877  1
  In  In13  1  0.68545778  0.16955965  0.61846810  1
  In  In14  1  0.66357205  0.49181684  0.10885549  1
  In  In15  1  0.66922618  0.49897251  0.63159244  1
  In  In16  1  0.66671349  0.83634008  0.12302931  1
  In  In17  1  0.64952974  0.84355882  0.62224226  1
  In  In18  1  0.17754539  0.00508340  0.36558009  1
  In  In19  1  0.16769971  0.02484445  0.88235529  1
  In  In20  1  0.15520987  0.32412635  0.36919576  1
  In  In21  1  0.16061254  0.32574225  0.87018615  1
  In  In22  1  0.18613560  0.66737193  0.37026135  1
  In  In23  1  0.17119246  0.65293959  0.87209606  1
  In  In24  1  0.49690227  -0.00024465  0.36601119  1
  In  In25  1  0.48761933  -0.00858231  0.88606325  1
  In  In26  1  0.50444285  0.34595217  0.37757485  1
  In  In27  1  0.50962128  0.34816494  0.86706398  1
  In  In28  1  0.49125673  0.67291747  0.38288126  1
  In  In29  1  0.50008578  0.66869931  0.87544666  1
  In  In30  1  0.84428163  0.01005858  0.36653598  1
  In  In31  1  0.83057783  -0.01641919  0.87477087  1
  In  In32  1  0.83638548  0.31975659  0.38816089  1
  In  In33  1  0.83313709  0.33817803  0.87352885  1
  In  In34  1  0.81901086  0.66128843  0.37667117  1
  In  In35  1  0.81743185  0.67565532  0.87771639  1
  In  In36  1  0.00029968  0.16848847  0.37847580  1
  In  In37  1  0.00726523  0.17584700  0.87054384  1
  In  In38  1  0.00165719  0.48364040  0.37430547  1
  In  In39  1  0.00078846  0.48184762  0.87279667  1
  In  In40  1  -0.00837119  0.84427466  0.36991997  1
  In  In41  1  -0.01343336  0.83248431  0.87481978  1
  In  In42  1  0.31954048  0.15945063  0.37048542  1
  In  In43  1  0.32087647  0.16756555  0.88235372  1
  In  In44  1  0.34667187  0.50618389  0.36837816  1
  In  In45  1  0.34151650  0.50749930  0.86786284  1
  In  In46  1  0.36326389  0.85999424  0.33415483  1
  In  In47  1  0.35048055  0.83876785  0.88266653  1
  In  In48  1  0.67941662  0.16672370  0.37801586  1
  In  In49  1  0.65797723  0.17807891  0.87008146  1
  In  In50  1  0.66169381  0.48855299  0.39163806  1
  In  In51  1  0.65969566  0.50227390  0.87701610  1
  In  In52  1  0.64862509  0.83559828  0.37304379  1
  In  In53  1  0.66750261  0.82761286  0.88006990  1
  In  In54  1  0.15875235  0.00183858  0.13610565  1
  In  In55  1  0.15398122  0.00117174  0.62295862  1
  In  In56  1  0.18140193  0.31928401  0.12733459  1
  In  In57  1  0.17752575  0.32403778  0.62795422  1
  In  In58  1  0.17911211  0.67647490  0.12774609  1
  In  In59  1  0.17589748  0.67846756  0.62918009  1
  In  In60  1  0.49987851  -0.01147461  0.13869698  1
  In  In61  1  0.51510186  -0.00930284  0.61501701  1
  In  In62  1  0.48696615  0.33408910  0.11654901  1
  In  In63  1  0.49098064  0.34502258  0.63185499  1
  In  In64  1  0.49732068  0.66163409  0.12298595  1
  In  In65  1  0.50646272  0.66722244  0.62753580  1
  In  In66  1  0.84239500  -0.00350192  0.12844568  1
  In  In67  1  0.83315708  0.02352539  0.62120949  1
  In  In68  1  0.83494575  0.34658271  0.12320993  1
  In  In69  1  0.83304476  0.33560574  0.63110458  1
  In  In70  1  0.81954305  0.65833746  0.11705845  1
  In  In71  1  0.82951970  0.64690585  0.62496467  1
  In  In72  1  0.83405371  0.16846098  -0.00852250  1
  In  In73  1  0.66181228  0.66549644  0.24966407  1
  In  In74  1  0.16831580  0.49560489  0.49978000  1
  In  In75  1  0.00340088  0.66702260  0.24290596  1
  In  In76  1  0.82748866  0.83400408  0.49766960  1
  In  In77  1  0.33227976  0.00332731  0.75991296  1
  In  In78  1  0.16681177  0.49492266  -0.00352341  1
  In  In79  1  0.66921676  0.00585887  0.74453135  1
  In  In80  1  0.16976652  0.83676622  0.00929666  1
  In  In81  1  0.17451725  0.83771559  0.49109913  1
  In  In82  1  0.00124769  0.66200546  0.74659068  1
  In  In83  1  0.50263943  0.16961482  0.49992228  1
  In  In84  1  0.49922300  0.16882227  0.00270753  1
  In  In85  1  0.66611718  0.32652603  0.25235758  1
  Cu  Cu86  1  0.00219220  -0.00051534  0.00528850  1
  Cu  Cu87  1  0.66466934  0.65706879  0.50364866  1
  Cu  Cu88  1  0.00158525  0.66031936  0.49839451  1
  Cu  Cu89  1  0.82813632  0.49897227  0.75341831  1
  Cu  Cu90  1  0.16312041  0.17241719  0.25175234  1
  Cu  Cu91  1  0.83419000  0.83486415  0.75202632  1
  Cu  Cu92  1  -0.00614813  0.01266621  0.49982772  1
  Cu  Cu93  1  0.49094699  0.16383430  0.24651665  1
  Cu  Cu94  1  -0.00691865  0.32888435  0.50170613  1
  Cu  Cu95  1  0.17199090  0.49610870  0.74918487  1
  Cu  Cu96  1  0.17202513  0.49380754  0.25064833  1
  Cu  Cu97  1  0.33771892  0.66877314  0.00161567  1
  Cu  Cu98  1  0.32780387  0.33077394  0.49992292  1
  Cu  Cu99  1  0.17101728  0.83846105  0.75034971  1
  Cu  Cu100  1  0.83378603  0.49158269  0.25233427  1
  Cu  Cu101  1  0.83405688  0.84178727  0.24464872  1
  Cu  Cu102  1  0.66657091  -0.00530308  0.00394351  1
  Cu  Cu103  1  0.84195250  0.17019034  0.74929848  1
  Cu  Cu104  1  0.34673694  0.66698447  0.50044547  1
  Cu  Cu105  1  0.50126668  0.49935785  0.25020133  1
  Cu  Cu106  1  -0.01474741  0.66638840  -0.00048220  1
  Cu  Cu107  1  0.50222997  0.83128353  0.75260102  1
  Cu  Cu108  1  0.33502787  -0.00681711  0.48867158  1
  Cu  Cu109  1  0.65885099  0.67002514  -0.00216727  1
  Cu  Cu110  1  0.16336729  0.16657014  0.74876231  1
  Cu  Cu111  1  0.84098557  0.16920583  0.25356829  1
  Cu  Cu112  1  0.00454070  0.32550749  -0.00318955  1
  Cu  Cu113  1  0.50129968  0.50864457  0.75043590  1
  Cu  Cu114  1  0.49801273  0.17615683  0.74753877  1
  Se  Se115  1  0.09079483  0.07973394  0.05442620  1
  Se  Se116  1  0.08241112  0.08955920  0.55379556  1
  Se  Se117  1  0.07873962  0.40876520  0.06041340  1
  Se  Se118  1  0.07645192  0.40954512  0.56149652  1
  Se  Se119  1  0.07265286  0.73882106  0.05970572  1
  Se  Se120  1  0.08080203  0.74444725  0.55380048  1
  Se  Se121  1  0.41874802  0.08254539  0.07016407  1
  Se  Se122  1  0.40985163  0.07233943  0.55634545  1
  Se  Se123  1  0.42197915  0.42395924  0.04508296  1
  Se  Se124  1  0.41103967  0.41410328  0.55303025  1
  Se  Se125  1  0.41221658  0.75228720  0.06104784  1
  Se  Se126  1  0.42689617  0.75233652  0.55493729  1
  Se  Se127  1  0.74687840  0.08100905  0.05847833  1
  Se  Se128  1  0.72968977  0.06300599  0.55107431  1
  Se  Se129  1  0.75848808  0.41715708  0.04758523  1
  Se  Se130  1  0.76994307  0.43620031  0.56578478  1
  Se  Se131  1  0.74442841  0.75092132  0.05264969  1
  Se  Se132  1  0.74380811  0.74289256  0.56213795  1
  Se  Se133  1  0.25793779  0.25490469  0.04772115  1
  Se  Se134  1  0.24539790  0.24401306  0.54895212  1
  Se  Se135  1  0.25502352  0.58597462  0.05814149  1
  Se  Se136  1  0.25637763  0.59257311  0.55755143  1
  Se  Se137  1  0.25691963  0.91808300  0.07401433  1
  Se  Se138  1  0.25967135  0.92172604  0.56214252  1
  Se  Se139  1  0.59562644  0.25965215  0.05806198  1
  Se  Se140  1  0.58366040  0.25776213  0.56608569  1
  Se  Se141  1  0.57850725  0.58342321  0.05086165  1
  Se  Se142  1  0.58241664  0.57686903  0.56008061  1
  Se  Se143  1  0.57790702  0.91935540  0.05838532  1
  Se  Se144  1  0.58117898  0.90921975  0.53927083  1
  Se  Se145  1  0.92295270  0.24897318  0.05990648  1
  Se  Se146  1  0.90896682  0.24910695  0.55784647  1
  Se  Se147  1  0.90882495  0.57712240  0.05219494  1
  Se  Se148  1  0.91523743  0.58042154  0.54948713  1
  Se  Se149  1  0.91505988  0.91489750  0.05237477  1
  Se  Se150  1  0.92342902  0.92137729  0.55860783  1
  Se  Se151  1  0.08277660  0.25164697  0.44872178  1
  Se  Se152  1  0.09097032  0.24268341  0.94727918  1
  Se  Se153  1  0.08355180  0.58798086  0.43517497  1
  Se  Se154  1  0.06979014  0.58878881  0.94096188  1
  Se  Se155  1  0.07433850  0.92810919  0.44155146  1
  Se  Se156  1  0.07983984  0.91849852  0.94087085  1
  Se  Se157  1  0.40797316  0.25211115  0.43726721  1
  Se  Se158  1  0.41991142  0.25635562  0.93486088  1
  Se  Se159  1  0.42227748  0.57426709  0.44909390  1
  Se  Se160  1  0.41546607  0.58561683  0.94401000  1
  Se  Se161  1  0.41344779  0.91134207  0.43211526  1
  Se  Se162  1  0.41244492  0.91805292  0.96124223  1
  Se  Se163  1  0.72982108  0.26321271  0.45041764  1
  Se  Se164  1  0.73681697  0.26057244  0.94304317  1
  Se  Se165  1  0.75167507  0.57748421  0.45072071  1
  Se  Se166  1  0.74496277  0.58595893  0.94610548  1
  Se  Se167  1  0.74941019  0.92087475  0.43005926  1
  Se  Se168  1  0.74979032  0.91225478  0.94923641  1
  Se  Se169  1  0.24598685  0.07975660  0.44659552  1
  Se  Se170  1  0.27235111  0.06451635  0.95141143  1
  Se  Se171  1  0.25465355  0.41155064  0.43427387  1
  Se  Se172  1  0.25566779  0.41283046  0.93253787  1
  Se  Se173  1  0.27006645  0.74835916  0.43941043  1
  Se  Se174  1  0.25051593  0.74308099  0.94232408  1
  Se  Se175  1  0.58588019  0.07731744  0.43834313  1
  Se  Se176  1  0.59275160  0.07684215  0.94061305  1
  Se  Se177  1  0.57653791  0.41057156  0.45868122  1
  Se  Se178  1  0.57477187  0.42350516  0.94676752  1
  Se  Se179  1  0.58879678  0.74401846  0.44734584  1
  Se  Se180  1  0.57466389  0.75646895  0.94769907  1
  Se  Se181  1  0.90782971  0.09141614  0.44622328  1
  Se  Se182  1  0.92531897  0.07335009  0.93727051  1
  Se  Se183  1  0.91580000  0.41789833  0.44839585  1
  Se  Se184  1  0.91925001  0.41098123  0.94776581  1
  Se  Se185  1  0.92239334  0.74221401  0.43871806  1
  Se  Se186  1  0.90775096  0.75336032  0.94579405  1
  Se  Se187  1  0.25142668  0.25504945  0.30225572  1
  Se  Se188  1  0.25013056  0.24460123  0.80391697  1
  Se  Se189  1  0.25582822  0.57947991  0.29936398  1
  Se  Se190  1  0.25339499  0.58538894  0.79709284  1
  Se  Se191  1  0.23009348  0.89980360  0.30028965  1
  Se  Se192  1  0.24255946  0.91287200  0.81983726  1
  Se  Se193  1  0.57214368  0.23903627  0.31145220  1
  Se  Se194  1  0.58597890  0.25871550  0.79641076  1
  Se  Se195  1  0.58218135  0.57253447  0.31480607  1
  Se  Se196  1  0.58494626  0.59019363  0.80536111  1
  Se  Se197  1  0.57810447  0.91401037  0.29828888  1
  Se  Se198  1  0.57872917  0.92010098  0.80999417  1
  Se  Se199  1  0.91753492  0.25445746  0.30953971  1
  Se  Se200  1  0.91867582  0.25583695  0.80599867  1
  Se  Se201  1  0.91160729  0.58036993  0.30787611  1
  Se  Se202  1  0.91230996  0.58038764  0.81315867  1
  Se  Se203  1  0.92068221  0.92430054  0.29481062  1
  Se  Se204  1  0.91967439  0.91943615  0.79984683  1
  Se  Se205  1  0.08233184  0.08803755  0.30715339  1
  Se  Se206  1  0.08275555  0.08251974  0.80350793  1
  Se  Se207  1  0.08173690  0.41394760  0.29858264  1
  Se  Se208  1  0.08537316  0.41344287  0.79904607  1
  Se  Se209  1  0.08335573  0.75067891  0.31305625  1
  Se  Se210  1  0.08921541  0.75422636  0.80937546  1
  Se  Se211  1  0.40740999  0.08252808  0.30175558  1
  Se  Se212  1  0.42913449  0.09348445  0.81326272  1
  Se  Se213  1  0.41955644  0.41140167  0.30129720  1
  Se  Se214  1  0.41658814  0.41932240  0.79822526  1
  Se  Se215  1  0.41587621  0.73078292  0.30051477  1
  Se  Se216  1  0.41496254  0.75383337  0.80673695  1
  Se  Se217  1  0.75070800  0.08739574  0.30119247  1
  Se  Se218  1  0.75920782  0.09164848  0.81079961  1
  Se  Se219  1  0.75198818  0.41750974  0.31454980  1
  Se  Se220  1  0.74405131  0.41782506  0.80800276  1
  Se  Se221  1  0.75647057  0.75998497  0.30577444  1
  Se  Se222  1  0.74524197  0.75578260  0.80175188  1
  Se  Se223  1  0.24680290  0.08893335  0.19830679  1
  Se  Se224  1  0.24780322  0.08720274  0.68947056  1
  Se  Se225  1  0.25511048  0.41332135  0.19361836  1
  Se  Se226  1  0.25507278  0.41483650  0.69354610  1
  Se  Se227  1  0.24207894  0.75032683  0.20788321  1
  Se  Se228  1  0.25654419  0.75383664  0.70201566  1
  Se  Se229  1  0.58256554  0.08030962  0.20255864  1
  Se  Se230  1  0.57495000  0.09377234  0.68599114  1
  Se  Se231  1  0.58119401  0.41873067  0.18956733  1
  Se  Se232  1  0.58181323  0.41923035  0.69968889  1
  Se  Se233  1  0.57389891  0.75678482  0.19262812  1
  Se  Se234  1  0.58801747  0.75432276  0.69685295  1
  Se  Se235  1  0.92019786  0.08532462  0.19512217  1
  Se  Se236  1  0.92158122  0.08362106  0.69635803  1
  Se  Se237  1  0.91986119  0.41138761  0.20029140  1
  Se  Se238  1  0.91648820  0.41588534  0.70447275  1
  Se  Se239  1  0.90409144  0.75087927  0.18517424  1
  Se  Se240  1  0.91083560  0.75460422  0.68688932  1
  Se  Se241  1  0.08241344  0.25520296  0.19507305  1
  Se  Se242  1  0.08306798  0.25289650  0.69503320  1
  Se  Se243  1  0.09403248  0.57204839  0.18569062  1
  Se  Se244  1  0.09187373  0.57321051  0.68439158  1
  Se  Se245  1  0.08140480  0.91150644  0.20229038  1
  Se  Se246  1  0.08487916  0.92130299  0.70111475  1
  Se  Se247  1  0.41680365  0.25353299  0.19262818  1
  Se  Se248  1  0.40860782  0.25533150  0.69743070  1
  Se  Se249  1  0.41793157  0.58101638  0.19552335  1
  Se  Se250  1  0.41638524  0.59088697  0.69625520  1
  Se  Se251  1  0.41025914  0.91719849  0.20967401  1
  Se  Se252  1  0.42545429  0.91903128  0.69434982  1
  Se  Se253  1  0.75918053  0.24213369  0.18823170  1
  Se  Se254  1  0.75068914  0.24757411  0.69848911  1
  Se  Se255  1  0.74890932  0.56683916  0.19267853  1
  Se  Se256  1  0.74691261  0.58720386  0.70381298  1
  Se  Se257  1  0.74671996  0.92147309  0.19241973  1
  Se  Se258  1  0.75917246  0.91385505  0.68523050  1
