# generated using pymatgen
data_In86Cu29Se144
_symmetry_space_group_name_H-M   'P 1'
_cell_length_a   17.59243648
_cell_length_b   17.59435099
_cell_length_c   23.44946563
_cell_angle_alpha   90.01016894
_cell_angle_beta   90.03475565
_cell_angle_gamma   90.00509613
_symmetry_Int_Tables_number   1
_chemical_formula_structural   In86Cu29Se144
_chemical_formula_sum   'In86 Cu29 Se144'
_cell_volume   7258.25304499
_cell_formula_units_Z   1
loop_
 _symmetry_equiv_pos_site_id
 _symmetry_equiv_pos_as_xyz
  1  'x, y, z'
loop_
 _atom_site_type_symbol
 _atom_site_label
 _atom_site_symmetry_multiplicity
 _atom_site_fract_x
 _atom_site_fract_y
 _atom_site_fract_z
 _atom_site_occupancy
  In  In0  1  0.00117357  0.16405216  0.13620285  1
  In  In1  1  0.00313560  0.17979133  0.60309827  1
  In  In2  1  0.01103054  0.48935244  0.13733045  1
  In  In3  1  0.00376331  0.47627852  0.61069548  1
  In  In4  1  -0.01768951  0.83887289  0.14773237  1
  In  In5  1  0.00363959  0.84124031  0.60581607  1
  In  In6  1  0.33847060  0.16738569  0.13328397  1
  In  In7  1  0.32484108  0.19045397  0.61625707  1
  In  In8  1  0.32341216  0.50816088  0.13366808  1
  In  In9  1  0.31574193  0.47397345  0.60482985  1
  In  In10  1  0.32680493  0.83644655  0.13962210  1
  In  In11  1  0.32923997  0.82687132  0.60909244  1
  In  In12  1  0.65629437  0.17452664  0.13650827  1
  In  In13  1  0.67829485  0.17039786  0.62494524  1
  In  In14  1  0.65340899  0.48960667  0.12566216  1
  In  In15  1  0.66333111  0.50599597  0.62872170  1
  In  In16  1  0.68222117  0.83402614  0.12740711  1
  In  In17  1  0.66752141  0.83052461  0.61431734  1
  In  In18  1  0.15996761  -0.00264232  0.37673906  1
  In  In19  1  0.16858564  -0.00114910  0.87541575  1
  In  In20  1  0.16623652  0.33255845  0.37958448  1
  In  In21  1  0.17410755  0.33884586  0.86368641  1
  In  In22  1  0.17090411  0.66827457  0.37600063  1
  In  In23  1  0.14861495  0.65794697  0.87597172  1
  In  In24  1  0.48974292  -0.00669911  0.36762876  1
  In  In25  1  0.52164386  0.00810195  0.87850774  1
  In  In26  1  0.49829568  0.33485001  0.38212734  1
  In  In27  1  0.49944883  0.33418341  0.87332564  1
  In  In28  1  0.48975438  0.67296971  0.37927041  1
  In  In29  1  0.49869007  0.64976112  0.87208624  1
  In  In30  1  0.84328011  0.00206406  0.37631791  1
  In  In31  1  0.82418757  -0.00455087  0.87875939  1
  In  In32  1  0.83292988  0.32934477  0.37741645  1
  In  In33  1  0.83364917  0.32910385  0.85958596  1
  In  In34  1  0.84947140  0.67513782  0.36399262  1
  In  In35  1  0.83271433  0.68344098  0.87259790  1
  In  In36  1  0.00611270  0.17052465  0.38054337  1
  In  In37  1  -0.00971533  0.17244519  0.87261772  1
  In  In38  1  0.00676988  0.50224993  0.37314048  1
  In  In39  1  0.01289380  0.49208639  0.87784416  1
  In  In40  1  0.00181053  0.84115422  0.37938851  1
  In  In41  1  -0.01003772  0.82339832  0.87602678  1
  In  In42  1  0.32923516  0.16787417  0.37350403  1
  In  In43  1  0.33262180  0.19665105  0.87773580  1
  In  In44  1  0.32856830  0.49374641  0.38204098  1
  In  In45  1  0.33456332  0.48056231  0.87871577  1
  In  In46  1  0.33304204  0.83656057  0.37451915  1
  In  In47  1  0.33050494  0.83497727  0.87680756  1
  In  In48  1  0.67946583  0.17583790  0.37339072  1
  In  In49  1  0.66459101  0.16451497  0.87502954  1
  In  In50  1  0.66807071  0.48320296  0.37649645  1
  In  In51  1  0.66161238  0.50122442  0.86283713  1
  In  In52  1  0.66356564  0.83924077  0.37432270  1
  In  In53  1  0.68167905  0.84472329  0.87286650  1
  In  In54  1  0.16696581  -0.00150571  0.14145420  1
  In  In55  1  0.15441263  0.01592039  0.59275970  1
  In  In56  1  0.16537382  0.33769364  0.13138076  1
  In  In57  1  0.16621924  0.33040236  0.61649937  1
  In  In58  1  0.16745409  0.66005553  0.13858948  1
  In  In59  1  0.16548911  0.66270119  0.61598760  1
  In  In60  1  0.48990757  0.01412272  0.13767593  1
  In  In61  1  0.51130764  -0.00339830  0.61647612  1
  In  In62  1  0.50592823  0.32238220  0.13314496  1
  In  In63  1  0.49176861  0.34066357  0.63059852  1
  In  In64  1  0.49045068  0.65377691  0.12792759  1
  In  In65  1  0.50793627  0.66666721  0.61546251  1
  In  In66  1  0.83910172  -0.00982297  0.14074047  1
  In  In67  1  0.84602135  0.00820930  0.60234549  1
  In  In68  1  0.83317608  0.32985871  0.13149967  1
  In  In69  1  0.83914450  0.32155127  0.64031979  1
  In  In70  1  0.83187562  0.67845483  0.12893572  1
  In  In71  1  0.82225646  0.66829367  0.62074607  1
  In  In72  1  0.83385079  0.49755967  0.49600944  1
  In  In73  1  0.50667782  0.83280632  0.00325824  1
  In  In74  1  0.49206442  0.16650747  0.49252416  1
  In  In75  1  -0.00654484  0.66256642  0.74444947  1
  In  In76  1  0.34077530  0.01543912  0.73650813  1
  In  In77  1  0.16292568  0.83233413  0.02150991  1
  In  In78  1  0.49609074  0.49510666  -0.00114746  1
  In  In79  1  0.66176834  0.65955871  0.24552956  1
  In  In80  1  0.82844827  0.16176524  -0.00087321  1
  In  In81  1  -0.00091649  0.01002964  0.73137005  1
  In  In82  1  0.34186339  0.65365591  0.74759134  1
  In  In83  1  0.67530896  0.00675374  0.74699093  1
  In  In84  1  0.16718768  0.17141933  0.01000494  1
  In  In85  1  0.83281979  0.50033328  0.00374048  1
  Cu  Cu86  1  0.83225973  0.84003208  0.74545487  1
  Cu  Cu87  1  0.34486081  0.01568697  0.00427590  1
  Cu  Cu88  1  0.67146771  0.00090869  0.00693736  1
  Cu  Cu89  1  0.49874394  0.83392975  0.25371874  1
  Cu  Cu90  1  0.49438346  0.17261649  0.75338648  1
  Cu  Cu91  1  0.00389047  0.33525358  0.00357284  1
  Cu  Cu92  1  0.67020576  0.66845380  0.49400730  1
  Cu  Cu93  1  -0.00432963  0.66480023  0.00283960  1
  Cu  Cu94  1  -0.00229842  -0.01514667  0.00925908  1
  Cu  Cu95  1  0.16887528  0.48979887  0.74536654  1
  Cu  Cu96  1  0.49229592  0.49384558  0.25406869  1
  Cu  Cu97  1  0.00221410  0.67002326  0.49273634  1
  Cu  Cu98  1  0.34417092  0.66939478  0.49286757  1
  Cu  Cu99  1  0.16444992  0.83090076  0.26026182  1
  Cu  Cu100  1  0.83339540  0.48923149  0.25288221  1
  Cu  Cu101  1  0.66615235  0.33421687  0.50344629  1
  Cu  Cu102  1  0.50168078  0.17032341  0.25877152  1
  Cu  Cu103  1  0.16500445  0.16951257  0.25787521  1
  Cu  Cu104  1  0.83425208  0.50570204  0.74438941  1
  Cu  Cu105  1  0.50556078  0.82519590  0.73864764  1
  Cu  Cu106  1  0.16942595  0.49553457  0.26020075  1
  Cu  Cu107  1  0.33573272  -0.00482833  0.49151509  1
  Cu  Cu108  1  0.50192123  0.49902229  0.74477587  1
  Cu  Cu109  1  0.31725640  0.66861372  0.00989266  1
  Cu  Cu110  1  0.66716880  -0.00119514  0.49447092  1
  Cu  Cu111  1  0.67189512  0.67252256  -0.00275663  1
  Cu  Cu112  1  0.16921536  0.83841106  0.74088497  1
  Cu  Cu113  1  0.84037720  0.16298717  0.25617096  1
  Cu  Cu114  1  0.15983328  0.17193477  0.73870451  1
  Se  Se115  1  0.07782958  0.06977022  0.06297173  1
  Se  Se116  1  0.03313285  0.06130211  0.53895524  1
  Se  Se117  1  0.08509694  0.41752537  0.05761152  1
  Se  Se118  1  0.11091967  0.43117023  0.54353614  1
  Se  Se119  1  0.06793364  0.74191041  0.07273988  1
  Se  Se120  1  0.08940827  0.74998806  0.54775185  1
  Se  Se121  1  0.42619793  0.09649385  0.05864749  1
  Se  Se122  1  0.40618555  0.07772224  0.56080493  1
  Se  Se123  1  0.41493532  0.41766865  0.07096924  1
  Se  Se124  1  0.42621095  0.41331202  0.54893601  1
  Se  Se125  1  0.40550155  0.74818804  0.06191010  1
  Se  Se126  1  0.42676240  0.75328060  0.54796265  1
  Se  Se127  1  0.74997208  0.07770146  0.07049079  1
  Se  Se128  1  0.74342999  0.08689076  0.54852586  1
  Se  Se129  1  0.74343912  0.40648583  0.05857462  1
  Se  Se130  1  0.74847536  0.41385871  0.56324207  1
  Se  Se131  1  0.75447733  0.75293744  0.05214146  1
  Se  Se132  1  0.75483067  0.75156351  0.54539596  1
  Se  Se133  1  0.26126421  0.26111609  0.06283135  1
  Se  Se134  1  0.21858544  0.22579188  0.54526857  1
  Se  Se135  1  0.23787782  0.58110125  0.06004535  1
  Se  Se136  1  0.26166547  0.59172327  0.55232474  1
  Se  Se137  1  0.26292219  0.93266507  0.06279447  1
  Se  Se138  1  0.24823332  0.91890175  0.54762047  1
  Se  Se139  1  0.59042207  0.25361413  0.05896963  1
  Se  Se140  1  0.58212408  0.25046558  0.55969882  1
  Se  Se141  1  0.59041473  0.59329237  0.05468038  1
  Se  Se142  1  0.59268678  0.58225062  0.54904104  1
  Se  Se143  1  0.58611410  0.92534054  0.06725888  1
  Se  Se144  1  0.58396453  0.91299468  0.54486752  1
  Se  Se145  1  0.92496339  0.25013723  0.05880823  1
  Se  Se146  1  0.91006395  0.27174483  0.55222198  1
  Se  Se147  1  0.92245861  0.58364389  0.06724780  1
  Se  Se148  1  0.92534417  0.58932694  0.55811294  1
  Se  Se149  1  0.91269295  0.90857197  0.06430499  1
  Se  Se150  1  0.89867373  0.89775802  0.54350385  1
  Se  Se151  1  0.10218622  0.23733357  0.45158934  1
  Se  Se152  1  0.07953777  0.25285491  0.94102121  1
  Se  Se153  1  0.08572801  0.58436012  0.44424910  1
  Se  Se154  1  0.07936200  0.58006533  0.95287758  1
  Se  Se155  1  0.09499515  0.90732433  0.45009016  1
  Se  Se156  1  0.08015135  0.91294985  0.94368081  1
  Se  Se157  1  0.39588374  0.26322659  0.44843440  1
  Se  Se158  1  0.42303744  0.25730762  0.94858715  1
  Se  Se159  1  0.42174839  0.57604246  0.44575638  1
  Se  Se160  1  0.39969081  0.59194959  0.94619633  1
  Se  Se161  1  0.42381184  0.91148323  0.44546557  1
  Se  Se162  1  0.41511704  0.92701204  0.94231726  1
  Se  Se163  1  0.75163418  0.25220429  0.45173371  1
  Se  Se164  1  0.74911074  0.25909755  0.93914297  1
  Se  Se165  1  0.75010024  0.58998797  0.43136394  1
  Se  Se166  1  0.74588570  0.58810204  0.93668035  1
  Se  Se167  1  0.75169332  0.91875873  0.44100510  1
  Se  Se168  1  0.75230164  0.91548097  0.95424294  1
  Se  Se169  1  0.25190653  0.07979486  0.44179240  1
  Se  Se170  1  0.25541218  0.08317790  0.94241925  1
  Se  Se171  1  0.23057780  0.42858805  0.45180977  1
  Se  Se172  1  0.24176257  0.41199008  0.94426138  1
  Se  Se173  1  0.25470176  0.75168147  0.44509549  1
  Se  Se174  1  0.24309656  0.74910827  0.94434188  1
  Se  Se175  1  0.58496516  0.07928435  0.43408142  1
  Se  Se176  1  0.59188499  0.08758105  0.95373761  1
  Se  Se177  1  0.58267672  0.41763194  0.45195189  1
  Se  Se178  1  0.59519072  0.41549766  0.94072229  1
  Se  Se179  1  0.58438897  0.75069125  0.44178540  1
  Se  Se180  1  0.58786919  0.74541584  0.93388238  1
  Se  Se181  1  0.91860176  0.08959609  0.44817693  1
  Se  Se182  1  0.92768585  0.06963602  0.94410143  1
  Se  Se183  1  0.93025750  0.40835301  0.44344024  1
  Se  Se184  1  0.91846750  0.40665243  0.94162414  1
  Se  Se185  1  0.91412637  0.75163594  0.44438592  1
  Se  Se186  1  0.91284485  0.74987729  0.95180472  1
  Se  Se187  1  0.24973850  0.25552855  0.30612917  1
  Se  Se188  1  0.24754006  0.24666826  0.79590953  1
  Se  Se189  1  0.25442985  0.58147867  0.30957918  1
  Se  Se190  1  0.24095739  0.57490923  0.80927946  1
  Se  Se191  1  0.24953737  0.91973642  0.30633108  1
  Se  Se192  1  0.25171957  0.91760206  0.79978289  1
  Se  Se193  1  0.58313122  0.25467693  0.31265260  1
  Se  Se194  1  0.58355319  0.24881731  0.80680826  1
  Se  Se195  1  0.57754000  0.57431472  0.31247086  1
  Se  Se196  1  0.58238113  0.58844916  0.79490780  1
  Se  Se197  1  0.58378213  0.91860456  0.30143364  1
  Se  Se198  1  0.57905802  0.91089071  0.80154579  1
  Se  Se199  1  0.92037149  0.24953494  0.30991390  1
  Se  Se200  1  0.92758661  0.25425189  0.79699330  1
  Se  Se201  1  0.91714591  0.57490171  0.30209151  1
  Se  Se202  1  0.91122868  0.57622168  0.81510310  1
  Se  Se203  1  0.91805224  0.91516419  0.30605451  1
  Se  Se204  1  0.91651562  0.91834491  0.80432246  1
  Se  Se205  1  0.08065227  0.08391479  0.30730144  1
  Se  Se206  1  0.09047476  0.08807790  0.80456474  1
  Se  Se207  1  0.08226677  0.40985160  0.30684527  1
  Se  Se208  1  0.07854221  0.41319363  0.79890213  1
  Se  Se209  1  0.07976405  0.74833914  0.31130857  1
  Se  Se210  1  0.08838757  0.75918353  0.80155095  1
  Se  Se211  1  0.41206253  0.08580228  0.30412609  1
  Se  Se212  1  0.42144664  0.08813554  0.81598195  1
  Se  Se213  1  0.41305630  0.41247392  0.31146984  1
  Se  Se214  1  0.41959713  0.41819306  0.80230339  1
  Se  Se215  1  0.41431704  0.75034115  0.30392867  1
  Se  Se216  1  0.42416567  0.75690443  0.80772593  1
  Se  Se217  1  0.75334093  0.08245071  0.30804008  1
  Se  Se218  1  0.76733119  0.09490686  0.80657155  1
  Se  Se219  1  0.74861978  0.40686444  0.30423293  1
  Se  Se220  1  0.75138185  0.42133733  0.79892101  1
  Se  Se221  1  0.74794769  0.75207288  0.30367790  1
  Se  Se222  1  0.74956918  0.75693207  0.79922908  1
  Se  Se223  1  0.25000419  0.08940500  0.20132808  1
  Se  Se224  1  0.23450518  0.08572197  0.67792251  1
  Se  Se225  1  0.25082228  0.41580351  0.20146582  1
  Se  Se226  1  0.25098206  0.40835160  0.69054047  1
  Se  Se227  1  0.24795384  0.74836840  0.20457707  1
  Se  Se228  1  0.25019250  0.75003025  0.69020324  1
  Se  Se229  1  0.58384471  0.08444823  0.20549527  1
  Se  Se230  1  0.57222545  0.09186208  0.69184395  1
  Se  Se231  1  0.58188019  0.41441951  0.20239558  1
  Se  Se232  1  0.58716700  0.41401086  0.69541185  1
  Se  Se233  1  0.57210831  0.75511701  0.18655215  1
  Se  Se234  1  0.59156456  0.74648332  0.68714859  1
  Se  Se235  1  0.92372198  0.07801379  0.20382828  1
  Se  Se236  1  0.90671709  0.10074769  0.67910600  1
  Se  Se237  1  0.91933417  0.40759362  0.19967593  1
  Se  Se238  1  0.92034593  0.42461370  0.69331951  1
  Se  Se239  1  0.91470630  0.73527482  0.20738944  1
  Se  Se240  1  0.91438523  0.76226172  0.68512185  1
  Se  Se241  1  0.08480628  0.25103103  0.19871010  1
  Se  Se242  1  0.07667462  0.25130564  0.68420239  1
  Se  Se243  1  0.08319979  0.57907216  0.20701473  1
  Se  Se244  1  0.08736816  0.57346068  0.68782638  1
  Se  Se245  1  0.08191180  0.91592135  0.20639675  1
  Se  Se246  1  0.09535155  0.91762418  0.67834384  1
  Se  Se247  1  0.41664656  0.25198425  0.20413649  1
  Se  Se248  1  0.40978780  0.24968221  0.69568701  1
  Se  Se249  1  0.41268340  0.58434504  0.20419542  1
  Se  Se250  1  0.42129855  0.57016095  0.67801778  1
  Se  Se251  1  0.41398657  0.92025986  0.20222805  1
  Se  Se252  1  0.42287602  0.90687951  0.68415733  1
  Se  Se253  1  0.75562262  0.24470110  0.20040813  1
  Se  Se254  1  0.73892884  0.25326616  0.70238492  1
  Se  Se255  1  0.75553695  0.56727561  0.18792435  1
  Se  Se256  1  0.74934099  0.59055417  0.69655273  1
  Se  Se257  1  0.74525918  0.91393437  0.20438013  1
  Se  Se258  1  0.75941144  0.92031298  0.68083285  1
