# generated using pymatgen
data_In86Cu29Se144
_symmetry_space_group_name_H-M   'P 1'
_cell_length_a   17.58748450
_cell_length_b   17.58692529
_cell_length_c   23.45136441
_cell_angle_alpha   89.99473070
_cell_angle_beta   89.98439843
_cell_angle_gamma   89.97980696
_symmetry_Int_Tables_number   1
_chemical_formula_structural   In86Cu29Se144
_chemical_formula_sum   'In86 Cu29 Se144'
_cell_volume   7253.73552159
_cell_formula_units_Z   1
loop_
 _symmetry_equiv_pos_site_id
 _symmetry_equiv_pos_as_xyz
  1  'x, y, z'
loop_
 _atom_site_type_symbol
 _atom_site_label
 _atom_site_symmetry_multiplicity
 _atom_site_fract_x
 _atom_site_fract_y
 _atom_site_fract_z
 _atom_site_occupancy
  In  In0  1  -0.01386042  0.16135821  0.12012533  1
  In  In1  1  -0.01476161  0.14679360  0.61236514  1
  In  In2  1  -0.01273132  0.51231941  0.12943594  1
  In  In3  1  -0.00689822  0.50799521  0.61949780  1
  In  In4  1  -0.01181903  0.84031450  0.12660335  1
  In  In5  1  0.00129189  0.85044595  0.62761436  1
  In  In6  1  0.34199087  0.15786102  0.13797734  1
  In  In7  1  0.34835532  0.17456060  0.61656458  1
  In  In8  1  0.33302599  0.49858992  0.13639745  1
  In  In9  1  0.34547753  0.49604672  0.62440749  1
  In  In10  1  0.33645329  0.83651098  0.14062342  1
  In  In11  1  0.32918454  0.81784371  0.62558234  1
  In  In12  1  0.66383176  0.15990435  0.12018101  1
  In  In13  1  0.65183602  0.14863726  0.61930211  1
  In  In14  1  0.67909923  0.50830226  0.12356577  1
  In  In15  1  0.66928512  0.50914497  0.61570282  1
  In  In16  1  0.67256905  0.82647786  0.13862736  1
  In  In17  1  0.66312802  0.83554479  0.62416732  1
  In  In18  1  0.17072988  0.00309306  0.37436876  1
  In  In19  1  0.16236012  0.00790985  0.87116211  1
  In  In20  1  0.16730264  0.31502615  0.37786779  1
  In  In21  1  0.17780708  0.32706901  0.86956641  1
  In  In22  1  0.17464724  0.67626142  0.36747789  1
  In  In23  1  0.16500705  0.66097607  0.87427002  1
  In  In24  1  0.50704351  0.00065761  0.37456751  1
  In  In25  1  0.51505924  -0.00276937  0.87575823  1
  In  In26  1  0.49690458  0.34254327  0.38234417  1
  In  In27  1  0.48786839  0.32545939  0.86859783  1
  In  In28  1  0.49967480  0.67117867  0.37908757  1
  In  In29  1  0.50400807  0.66333161  0.86547497  1
  In  In30  1  0.83606785  0.00374718  0.36843950  1
  In  In31  1  0.83472417  -0.00127913  0.87810029  1
  In  In32  1  0.82856998  0.33833443  0.38085273  1
  In  In33  1  0.83081419  0.33184123  0.88087220  1
  In  In34  1  0.82512012  0.66439795  0.36702430  1
  In  In35  1  0.82504740  0.68570949  0.89123083  1
  In  In36  1  0.00248180  0.15061818  0.38692868  1
  In  In37  1  -0.00631567  0.15143917  0.87049031  1
  In  In38  1  -0.01311111  0.50553036  0.37532783  1
  In  In39  1  -0.00805393  0.50212534  0.87590666  1
  In  In40  1  0.00684042  0.84027888  0.36508598  1
  In  In41  1  -0.01791730  0.83478191  0.87948274  1
  In  In42  1  0.33490994  0.16576811  0.37644895  1
  In  In43  1  0.33102334  0.17529586  0.87321421  1
  In  In44  1  0.34757405  0.51217713  0.36923279  1
  In  In45  1  0.33715278  0.50225371  0.86721292  1
  In  In46  1  0.35715597  0.85185909  0.35824031  1
  In  In47  1  0.34739292  0.83231630  0.87381649  1
  In  In48  1  0.67948182  0.15715889  0.38178211  1
  In  In49  1  0.67548477  0.15831717  0.87843982  1
  In  In50  1  0.64840864  0.52628098  0.39665312  1
  In  In51  1  0.66891960  0.51302915  0.87138416  1
  In  In52  1  0.64423389  0.81843170  0.36140355  1
  In  In53  1  0.67538002  0.84266742  0.86539063  1
  In  In54  1  0.16400329  0.00263735  0.13374641  1
  In  In55  1  0.15105451  -0.00012490  0.62416134  1
  In  In56  1  0.16961790  0.33974687  0.12860822  1
  In  In57  1  0.18487666  0.32680164  0.62670967  1
  In  In58  1  0.16189399  0.67071783  0.13370455  1
  In  In59  1  0.17711415  0.68685334  0.62550752  1
  In  In60  1  0.49627349  0.00483182  0.13747035  1
  In  In61  1  0.51131862  0.00881943  0.61861064  1
  In  In62  1  0.50667779  0.31806668  0.12939590  1
  In  In63  1  0.48766996  0.31977857  0.61664260  1
  In  In64  1  0.50184024  0.67416705  0.14098466  1
  In  In65  1  0.50460563  0.66477244  0.61940076  1
  In  In66  1  0.83711432  -0.00437825  0.12417494  1
  In  In67  1  0.82582351  -0.00169558  0.62664652  1
  In  In68  1  0.83201724  0.33505535  0.11602947  1
  In  In69  1  0.83447270  0.33292434  0.62130157  1
  In  In70  1  0.83270113  0.67000254  0.12648344  1
  In  In71  1  0.82714917  0.65603483  0.61803675  1
  In  In72  1  0.15998525  0.50014731  -0.00661222  1
  In  In73  1  0.82565515  0.83570400  0.49825417  1
  In  In74  1  0.16620626  0.49587409  0.50353073  1
  In  In75  1  0.50792457  0.49576790  -0.00147446  1
  In  In76  1  0.17004561  0.83949849  0.49644362  1
  In  In77  1  0.50882664  0.83489651  0.00950745  1
  In  In78  1  0.66628048  0.33810321  0.25284291  1
  In  In79  1  0.00280953  0.32690165  0.25149783  1
  In  In80  1  0.33584278  -0.00253480  0.74795644  1
  In  In81  1  0.00100565  0.67630381  0.74725131  1
  In  In82  1  0.01010848  0.32995164  0.75618236  1
  In  In83  1  0.16011086  0.17044379  -0.00215785  1
  In  In84  1  0.65938902  0.32661569  0.74114798  1
  In  In85  1  0.15659930  0.83648184  0.00392864  1
  Cu  Cu86  1  0.33836831  -0.00022189  0.49323254  1
  Cu  Cu87  1  -0.00423389  0.66938667  0.49540097  1
  Cu  Cu88  1  0.17083105  0.16065097  0.25571447  1
  Cu  Cu89  1  0.34417565  0.66883716  0.49687903  1
  Cu  Cu90  1  0.67138867  0.33244186  0.50541637  1
  Cu  Cu91  1  0.82655865  0.50926417  0.25288556  1
  Cu  Cu92  1  0.33156080  0.33063719  0.49700934  1
  Cu  Cu93  1  0.82968786  0.50283113  0.74736004  1
  Cu  Cu94  1  0.67611101  0.00036916  -0.00011997  1
  Cu  Cu95  1  0.16488748  0.82805364  0.24938640  1
  Cu  Cu96  1  0.34200560  0.32498204  0.00229631  1
  Cu  Cu97  1  0.83554672  0.83680070  0.24963355  1
  Cu  Cu98  1  0.33916858  0.00642719  0.01162884  1
  Cu  Cu99  1  0.17090124  0.16786506  0.74657899  1
  Cu  Cu100  1  0.32916239  0.66567983  0.00353363  1
  Cu  Cu101  1  0.49831353  0.50227568  0.74390073  1
  Cu  Cu102  1  0.66690690  -0.00332263  0.49616530  1
  Cu  Cu103  1  0.82637255  0.83370747  0.75281966  1
  Cu  Cu104  1  0.16820542  0.49579821  0.25151009  1
  Cu  Cu105  1  0.50114337  0.82503508  0.74517786  1
  Cu  Cu106  1  0.82863903  0.15079971  0.74763467  1
  Cu  Cu107  1  0.17844969  0.50915037  0.74541447  1
  Cu  Cu108  1  -0.00847268  0.33874210  -0.00272101  1
  Cu  Cu109  1  0.66464622  0.32778103  -0.00050349  1
  Cu  Cu110  1  0.83446295  0.16239259  0.25048936  1
  Cu  Cu111  1  0.50188419  0.50232401  0.25885732  1
  Cu  Cu112  1  0.67051021  0.67363565  0.00079663  1
  Cu  Cu113  1  -0.00111133  0.32672143  0.49726261  1
  Cu  Cu114  1  0.49929506  0.16833605  0.25577986  1
  Se  Se115  1  0.07762136  0.07381551  0.05613673  1
  Se  Se116  1  0.08932774  0.08619979  0.54954350  1
  Se  Se117  1  0.07391576  0.41154277  0.05968628  1
  Se  Se118  1  0.07606375  0.40359535  0.56345367  1
  Se  Se119  1  0.07286224  0.74018333  0.06102014  1
  Se  Se120  1  0.07343846  0.74910759  0.55633147  1
  Se  Se121  1  0.42415587  0.08838573  0.06153305  1
  Se  Se122  1  0.42145873  0.08276508  0.54891349  1
  Se  Se123  1  0.41468961  0.41220564  0.06197801  1
  Se  Se124  1  0.41561158  0.41456638  0.54910304  1
  Se  Se125  1  0.40942176  0.74498649  0.06291351  1
  Se  Se126  1  0.42047055  0.75423653  0.55364182  1
  Se  Se127  1  0.75674916  0.08486548  0.05546745  1
  Se  Se128  1  0.74857440  0.07864102  0.55298068  1
  Se  Se129  1  0.74313167  0.41638719  0.05167136  1
  Se  Se130  1  0.75521251  0.41910668  0.55449752  1
  Se  Se131  1  0.74764248  0.75616035  0.05909726  1
  Se  Se132  1  0.73765908  0.73968070  0.55239541  1
  Se  Se133  1  0.25524972  0.25113706  0.06160817  1
  Se  Se134  1  0.25055087  0.24508249  0.54954883  1
  Se  Se135  1  0.25103177  0.58283624  0.06062904  1
  Se  Se136  1  0.25588916  0.59420814  0.55661291  1
  Se  Se137  1  0.25703351  0.92073355  0.06341500  1
  Se  Se138  1  0.26001708  0.92541137  0.56044331  1
  Se  Se139  1  0.58109737  0.24555734  0.05218412  1
  Se  Se140  1  0.58442807  0.24673592  0.55288344  1
  Se  Se141  1  0.58375184  0.59748072  0.05954154  1
  Se  Se142  1  0.57511334  0.57584126  0.54805635  1
  Se  Se143  1  0.59542385  0.92792115  0.06679397  1
  Se  Se144  1  0.58392539  0.91496695  0.55136089  1
  Se  Se145  1  0.91438895  0.24961474  0.04980762  1
  Se  Se146  1  0.91282659  0.24775082  0.55257267  1
  Se  Se147  1  0.89879992  0.57336783  0.05731221  1
  Se  Se148  1  0.91395959  0.58267501  0.54596832  1
  Se  Se149  1  0.91492651  0.91500372  0.05094973  1
  Se  Se150  1  0.92107138  0.92641677  0.55244738  1
  Se  Se151  1  0.08469129  0.24199026  0.44986210  1
  Se  Se152  1  0.07300400  0.26258223  0.93487065  1
  Se  Se153  1  0.08431600  0.59144799  0.44017579  1
  Se  Se154  1  0.06661445  0.59793017  0.94561091  1
  Se  Se155  1  0.07276808  0.92725821  0.44344909  1
  Se  Se156  1  0.07512569  0.92910429  0.94122166  1
  Se  Se157  1  0.41845150  0.24852893  0.44549237  1
  Se  Se158  1  0.42068478  0.24288919  0.94622759  1
  Se  Se159  1  0.42394416  0.57769726  0.44916350  1
  Se  Se160  1  0.41319435  0.58979069  0.94363070  1
  Se  Se161  1  0.42326210  0.91480520  0.44413686  1
  Se  Se162  1  0.41498561  0.92425008  0.94893896  1
  Se  Se163  1  0.75252195  0.25024868  0.44877801  1
  Se  Se164  1  0.75172075  0.24604754  0.94783998  1
  Se  Se165  1  0.76953322  0.57662008  0.44461390  1
  Se  Se166  1  0.74754722  0.58296647  0.94800566  1
  Se  Se167  1  0.73903880  0.91703680  0.43049414  1
  Se  Se168  1  0.75060108  0.91123751  0.94508673  1
  Se  Se169  1  0.25046275  0.08322576  0.44580716  1
  Se  Se170  1  0.25817248  0.07672264  0.94488614  1
  Se  Se171  1  0.25439003  0.41463822  0.43667204  1
  Se  Se172  1  0.26319152  0.40872524  0.94318477  1
  Se  Se173  1  0.26306323  0.75103053  0.43914025  1
  Se  Se174  1  0.25482986  0.74913829  0.94349962  1
  Se  Se175  1  0.58321396  0.08517324  0.44682244  1
  Se  Se176  1  0.58724258  0.08069455  0.94867159  1
  Se  Se177  1  0.58667452  0.41435771  0.45189455  1
  Se  Se178  1  0.59095976  0.40613606  0.93276020  1
  Se  Se179  1  0.58613536  0.74998788  0.44721380  1
  Se  Se180  1  0.58725823  0.74748378  0.93826479  1
  Se  Se181  1  0.89623175  0.08889624  0.44652081  1
  Se  Se182  1  0.91098761  0.08912736  0.94566229  1
  Se  Se183  1  0.92002550  0.41600047  0.44699644  1
  Se  Se184  1  0.90921242  0.42358185  0.94533214  1
  Se  Se185  1  0.92155000  0.75254563  0.43503910  1
  Se  Se186  1  0.91768403  0.75545026  0.95709014  1
  Se  Se187  1  0.25318371  0.24870927  0.30389909  1
  Se  Se188  1  0.25667051  0.25220691  0.79573747  1
  Se  Se189  1  0.24999325  0.58112057  0.30399683  1
  Se  Se190  1  0.25508063  0.59161640  0.80404623  1
  Se  Se191  1  0.24387670  0.91398176  0.30428996  1
  Se  Se192  1  0.24740180  0.91100133  0.81267038  1
  Se  Se193  1  0.58262214  0.24676657  0.31564185  1
  Se  Se194  1  0.58044071  0.23813199  0.80830211  1
  Se  Se195  1  0.58566448  0.58769841  0.30874156  1
  Se  Se196  1  0.58612444  0.58182000  0.79630145  1
  Se  Se197  1  0.57397852  0.91566055  0.29808141  1
  Se  Se198  1  0.57953357  0.91257578  0.79939931  1
  Se  Se199  1  0.91035479  0.24365838  0.31307545  1
  Se  Se200  1  0.90424929  0.24279238  0.80359641  1
  Se  Se201  1  0.91974372  0.58898629  0.29996305  1
  Se  Se202  1  0.90953280  0.58570675  0.80598779  1
  Se  Se203  1  0.91995236  0.92207063  0.29990085  1
  Se  Se204  1  0.91305805  0.91597502  0.80346648  1
  Se  Se205  1  0.08067586  0.08295258  0.30724265  1
  Se  Se206  1  0.08428348  0.08597483  0.79763072  1
  Se  Se207  1  0.08778633  0.41935831  0.31452377  1
  Se  Se208  1  0.09829955  0.43291008  0.80986907  1
  Se  Se209  1  0.07907403  0.74449237  0.30025299  1
  Se  Se210  1  0.08573135  0.76061187  0.81414045  1
  Se  Se211  1  0.41693316  0.08256095  0.30786292  1
  Se  Se212  1  0.42161849  0.08439441  0.81224440  1
  Se  Se213  1  0.41812290  0.41307985  0.30441570  1
  Se  Se214  1  0.41847185  0.41818346  0.79995818  1
  Se  Se215  1  0.39703050  0.72701289  0.31123033  1
  Se  Se216  1  0.41653027  0.74654921  0.80127725  1
  Se  Se217  1  0.74521962  0.08165752  0.30036327  1
  Se  Se218  1  0.74654836  0.07303139  0.80537429  1
  Se  Se219  1  0.74735058  0.43152465  0.31515916  1
  Se  Se220  1  0.75213717  0.41591913  0.80418339  1
  Se  Se221  1  0.74949207  0.75319871  0.29988282  1
  Se  Se222  1  0.75100891  0.74198010  0.80539256  1
  Se  Se223  1  0.25368160  0.07617125  0.20210687  1
  Se  Se224  1  0.24981348  0.08769971  0.68491035  1
  Se  Se225  1  0.25244983  0.40993971  0.20232911  1
  Se  Se226  1  0.25543403  0.41990595  0.69343864  1
  Se  Se227  1  0.25262873  0.74430453  0.20043564  1
  Se  Se228  1  0.24825526  0.75538482  0.70483123  1
  Se  Se229  1  0.58559494  0.09197105  0.19900236  1
  Se  Se230  1  0.57983591  0.08068777  0.69932883  1
  Se  Se231  1  0.57783220  0.42861664  0.18919651  1
  Se  Se232  1  0.57511534  0.42069180  0.68162896  1
  Se  Se233  1  0.57154155  0.76758109  0.20572814  1
  Se  Se234  1  0.58720879  0.74467014  0.69191966  1
  Se  Se235  1  0.91862139  0.08066968  0.19634200  1
  Se  Se236  1  0.91874939  0.07430858  0.69477978  1
  Se  Se237  1  0.90390842  0.41746859  0.19778583  1
  Se  Se238  1  0.91705816  0.42142043  0.69549266  1
  Se  Se239  1  0.91693865  0.74960558  0.19672777  1
  Se  Se240  1  0.90383097  0.75848124  0.68482108  1
  Se  Se241  1  0.09158494  0.23630564  0.18935246  1
  Se  Se242  1  0.08486629  0.24259385  0.68549875  1
  Se  Se243  1  0.08396651  0.57654527  0.19701783  1
  Se  Se244  1  0.09150109  0.58123505  0.68650234  1
  Se  Se245  1  0.08218977  0.91206344  0.19534935  1
  Se  Se246  1  0.09656978  0.90588333  0.69818126  1
  Se  Se247  1  0.41747196  0.25335643  0.20226747  1
  Se  Se248  1  0.41615496  0.24895076  0.69618893  1
  Se  Se249  1  0.41792168  0.58229451  0.20090553  1
  Se  Se250  1  0.41616990  0.58926839  0.69189903  1
  Se  Se251  1  0.42189993  0.91637844  0.20515425  1
  Se  Se252  1  0.42452366  0.90950940  0.68522529  1
  Se  Se253  1  0.75685474  0.24836971  0.19179730  1
  Se  Se254  1  0.75567288  0.23658723  0.68662722  1
  Se  Se255  1  0.74430132  0.59260893  0.19870723  1
  Se  Se256  1  0.74651533  0.58404658  0.69363373  1
  Se  Se257  1  0.75250672  0.92263037  0.19790559  1
  Se  Se258  1  0.74463634  0.91571940  0.69574302  1
