# generated using pymatgen
data_In86Cu29Se144
_symmetry_space_group_name_H-M   'P 1'
_cell_length_a   17.59047385
_cell_length_b   17.58424129
_cell_length_c   23.44070448
_cell_angle_alpha   89.98104151
_cell_angle_beta   90.02644511
_cell_angle_gamma   90.00555634
_symmetry_Int_Tables_number   1
_chemical_formula_structural   In86Cu29Se144
_chemical_formula_sum   'In86 Cu29 Se144'
_cell_volume   7250.56350213
_cell_formula_units_Z   1
loop_
 _symmetry_equiv_pos_site_id
 _symmetry_equiv_pos_as_xyz
  1  'x, y, z'
loop_
 _atom_site_type_symbol
 _atom_site_label
 _atom_site_symmetry_multiplicity
 _atom_site_fract_x
 _atom_site_fract_y
 _atom_site_fract_z
 _atom_site_occupancy
  In  In0  1  -0.00542460  0.15757693  0.13041698  1
  In  In1  1  -0.01098262  0.16304790  0.62087751  1
  In  In2  1  -0.00751630  0.52262788  0.12894897  1
  In  In3  1  -0.01070968  0.50912006  0.62090425  1
  In  In4  1  -0.00570569  0.83350000  0.12253849  1
  In  In5  1  0.00957317  0.83375604  0.61500985  1
  In  In6  1  0.33968190  0.15140744  0.12837262  1
  In  In7  1  0.33182263  0.16556170  0.63086513  1
  In  In8  1  0.35009864  0.50039072  0.12449294  1
  In  In9  1  0.34730572  0.49583186  0.63152474  1
  In  In10  1  0.32976287  0.83594815  0.12815009  1
  In  In11  1  0.33666220  0.83280783  0.62758525  1
  In  In12  1  0.65998973  0.17941546  0.12932505  1
  In  In13  1  0.67512768  0.15924325  0.62166155  1
  In  In14  1  0.66316778  0.51012604  0.11892011  1
  In  In15  1  0.66945586  0.50577925  0.61746591  1
  In  In16  1  0.65084816  0.81342123  0.11143476  1
  In  In17  1  0.66343122  0.82644876  0.61477617  1
  In  In18  1  0.15613772  -0.01507195  0.36915959  1
  In  In19  1  0.15949487  -0.01313045  0.86945295  1
  In  In20  1  0.17389142  0.34216395  0.37700316  1
  In  In21  1  0.16813635  0.31950518  0.87200118  1
  In  In22  1  0.17865397  0.68190528  0.36910701  1
  In  In23  1  0.18365018  0.66929548  0.87476691  1
  In  In24  1  0.48213614  0.00309235  0.36720698  1
  In  In25  1  0.49340565  0.00239256  0.88229337  1
  In  In26  1  0.51328686  0.32844508  0.37344288  1
  In  In27  1  0.49669120  0.34626650  0.88582939  1
  In  In28  1  0.50113490  0.66835554  0.37376139  1
  In  In29  1  0.49321153  0.67257985  0.88820195  1
  In  In30  1  0.84411384  -0.01742876  0.37959405  1
  In  In31  1  0.83394291  -0.01047534  0.87513594  1
  In  In32  1  0.81711789  0.34493215  0.37942578  1
  In  In33  1  0.83064543  0.34263295  0.87924072  1
  In  In34  1  0.83135249  0.66812997  0.36834508  1
  In  In35  1  0.83492945  0.66407286  0.87956992  1
  In  In36  1  0.00168490  0.14785248  0.37475998  1
  In  In37  1  0.00954071  0.16149737  0.87378952  1
  In  In38  1  -0.01759129  0.50677510  0.37725449  1
  In  In39  1  -0.00829042  0.49852968  0.87773057  1
  In  In40  1  -0.00353310  0.82856807  0.37108851  1
  In  In41  1  -0.00306888  0.84838498  0.88309222  1
  In  In42  1  0.34998689  0.15491779  0.37405650  1
  In  In43  1  0.34042656  0.17057574  0.86821033  1
  In  In44  1  0.33082058  0.51466968  0.37915516  1
  In  In45  1  0.34223421  0.50867690  0.86647825  1
  In  In46  1  0.33529724  0.83313616  0.37548373  1
  In  In47  1  0.33119223  0.83150282  0.87880573  1
  In  In48  1  0.66126158  0.18142620  0.36871419  1
  In  In49  1  0.66607302  0.15577106  0.88259582  1
  In  In50  1  0.66503074  0.50218000  0.36984066  1
  In  In51  1  0.66685920  0.50579060  0.89176367  1
  In  In52  1  0.67838304  0.82100353  0.37660800  1
  In  In53  1  0.66856646  0.81803599  0.89842959  1
  In  In54  1  0.16672856  -0.00733914  0.12740018  1
  In  In55  1  0.17532127  -0.01183936  0.63188299  1
  In  In56  1  0.17027678  0.33640829  0.12398093  1
  In  In57  1  0.18010490  0.34047536  0.62483937  1
  In  In58  1  0.15447017  0.68303264  0.13525213  1
  In  In59  1  0.16783552  0.68920762  0.62064917  1
  In  In60  1  0.49155777  -0.01079616  0.12086504  1
  In  In61  1  0.49875225  -0.01356572  0.62619201  1
  In  In62  1  0.51964421  0.34828926  0.10630907  1
  In  In63  1  0.48688546  0.34057982  0.62470862  1
  In  In64  1  0.49696657  0.66723521  0.12811605  1
  In  In65  1  0.49655835  0.65853505  0.61929677  1
  In  In66  1  0.84913782  -0.01263334  0.13045193  1
  In  In67  1  0.84012192  0.00468707  0.62122526  1
  In  In68  1  0.79975270  0.33796268  0.12612241  1
  In  In69  1  0.83619051  0.33581305  0.61789096  1
  In  In70  1  0.82992036  0.67241694  0.12243989  1
  In  In71  1  0.83717861  0.66304477  0.60965621  1
  In  In72  1  0.16237387  0.50776068  0.50234192  1
  In  In73  1  0.66587652  0.66633585  0.75064719  1
  In  In74  1  -0.00733537  0.33299447  0.25428659  1
  In  In75  1  0.16926246  0.16139106  0.00428726  1
  In  In76  1  0.66567655  0.33734053  0.76299551  1
  In  In77  1  0.66031515  -0.00572407  0.75725711  1
  In  In78  1  0.34129658  0.33012829  0.24994803  1
  In  In79  1  0.66728984  -0.00568552  0.24889445  1
  In  In80  1  0.16769323  0.16360506  0.50570397  1
  In  In81  1  0.50559525  0.16743517  0.49648299  1
  In  In82  1  0.83076177  0.16260168  0.00589428  1
  In  In83  1  0.00825595  0.33138340  0.74029485  1
  In  In84  1  0.16872734  0.50518200  -0.00104689  1
  In  In85  1  0.00485714  0.67139358  0.74444472  1
  Cu  Cu86  1  0.66743112  0.66367039  0.49141354  1
  Cu  Cu87  1  0.66933990  0.33789787  0.49648680  1
  Cu  Cu88  1  0.16890572  0.15929248  0.25196278  1
  Cu  Cu89  1  0.82633859  0.50219472  0.24836084  1
  Cu  Cu90  1  0.16829376  0.83808092  0.25055039  1
  Cu  Cu91  1  0.82983993  0.16229233  0.25049921  1
  Cu  Cu92  1  0.66973392  -0.00151560  0.49873716  1
  Cu  Cu93  1  -0.01237391  0.33965178  0.00519709  1
  Cu  Cu94  1  0.83605027  0.82656011  0.24895090  1
  Cu  Cu95  1  0.83452011  0.83794160  0.74974120  1
  Cu  Cu96  1  0.49833569  0.50084443  0.75278320  1
  Cu  Cu97  1  -0.00425815  -0.01092641  0.49535712  1
  Cu  Cu98  1  0.66410734  -0.00005010  0.00700547  1
  Cu  Cu99  1  0.50358661  0.50442553  0.24726087  1
  Cu  Cu100  1  0.49375296  0.16565971  0.75291189  1
  Cu  Cu101  1  0.17416190  0.50008925  0.74791450  1
  Cu  Cu102  1  0.17266153  0.15638228  0.75188130  1
  Cu  Cu103  1  0.32910195  -0.00813540  0.49980740  1
  Cu  Cu104  1  0.34200741  0.33423187  -0.00584983  1
  Cu  Cu105  1  -0.00347034  0.67498864  0.00389708  1
  Cu  Cu106  1  0.33217086  0.67019338  0.00523488  1
  Cu  Cu107  1  0.49239510  0.83183139  0.75780158  1
  Cu  Cu108  1  0.33818897  0.67253157  0.50040925  1
  Cu  Cu109  1  0.16855925  0.51115949  0.25335979  1
  Cu  Cu110  1  0.84241865  0.16893550  0.74542519  1
  Cu  Cu111  1  0.17189954  0.83397480  0.75017532  1
  Cu  Cu112  1  0.33363412  -0.00366767  0.00028425  1
  Cu  Cu113  1  0.49772677  0.83053828  0.24659136  1
  Cu  Cu114  1  -0.00522301  0.32659965  0.49787020  1
  Se  Se115  1  0.07201754  0.07464761  0.05751389  1
  Se  Se116  1  0.07653779  0.06798505  0.55883200  1
  Se  Se117  1  0.07456027  0.41769133  0.06160036  1
  Se  Se118  1  0.07445907  0.40599220  0.55951388  1
  Se  Se119  1  0.08511612  0.75386725  0.05411981  1
  Se  Se120  1  0.06342141  0.72677887  0.55084250  1
  Se  Se121  1  0.41757536  0.08169845  0.05098331  1
  Se  Se122  1  0.41144488  0.07713125  0.55675055  1
  Se  Se123  1  0.41933596  0.42416073  0.04616477  1
  Se  Se124  1  0.42364606  0.42864943  0.55227102  1
  Se  Se125  1  0.41350131  0.75332956  0.05999148  1
  Se  Se126  1  0.42149826  0.75490658  0.55636028  1
  Se  Se127  1  0.74512345  0.07405672  0.07044674  1
  Se  Se128  1  0.75431309  0.08255604  0.54997986  1
  Se  Se129  1  0.74529633  0.42445186  0.04998474  1
  Se  Se130  1  0.75262374  0.41977781  0.55205214  1
  Se  Se131  1  0.76940032  0.77332460  0.05490372  1
  Se  Se132  1  0.74888076  0.74773230  0.54751404  1
  Se  Se133  1  0.26240480  0.25795928  0.05783218  1
  Se  Se134  1  0.26461273  0.25764638  0.55429340  1
  Se  Se135  1  0.25102901  0.59016680  0.06684272  1
  Se  Se136  1  0.25885131  0.59137713  0.56307414  1
  Se  Se137  1  0.24867853  0.91668348  0.05481251  1
  Se  Se138  1  0.24851182  0.90980492  0.55605943  1
  Se  Se139  1  0.58644808  0.24269098  0.04791808  1
  Se  Se140  1  0.59194886  0.25862614  0.56169342  1
  Se  Se141  1  0.58044304  0.59713897  0.05258649  1
  Se  Se142  1  0.58414879  0.58389149  0.54952997  1
  Se  Se143  1  0.57632449  0.91218115  0.05067062  1
  Se  Se144  1  0.58284244  0.91868084  0.55178005  1
  Se  Se145  1  0.91561031  0.25818062  0.06863214  1
  Se  Se146  1  0.91050004  0.24419152  0.55038297  1
  Se  Se147  1  0.91280562  0.58723664  0.05109097  1
  Se  Se148  1  0.91652493  0.57721381  0.54249450  1
  Se  Se149  1  0.91779392  0.91742279  0.05037089  1
  Se  Se150  1  0.91242705  0.91179307  0.55426406  1
  Se  Se151  1  0.08048978  0.25358911  0.43867530  1
  Se  Se152  1  0.07250360  0.25937763  0.94885422  1
  Se  Se153  1  0.08327088  0.59168209  0.43282674  1
  Se  Se154  1  0.07578260  0.59566667  0.93937711  1
  Se  Se155  1  0.08210241  0.90739171  0.44423319  1
  Se  Se156  1  0.09152435  0.91727298  0.95003367  1
  Se  Se157  1  0.41054329  0.25823768  0.44185692  1
  Se  Se158  1  0.41983948  0.24396628  0.94346211  1
  Se  Se159  1  0.41984577  0.58780663  0.44764807  1
  Se  Se160  1  0.40730186  0.58136691  0.94933760  1
  Se  Se161  1  0.41898653  0.91851392  0.44450377  1
  Se  Se162  1  0.41755249  0.91089315  0.94824097  1
  Se  Se163  1  0.74644604  0.24697860  0.44505511  1
  Se  Se164  1  0.74500933  0.25489576  0.94437380  1
  Se  Se165  1  0.75176947  0.58089954  0.43851007  1
  Se  Se166  1  0.74236076  0.60287580  0.95033830  1
  Se  Se167  1  0.75056579  0.91164345  0.44666055  1
  Se  Se168  1  0.74822745  0.92269189  0.94929855  1
  Se  Se169  1  0.25232396  0.07555996  0.43949942  1
  Se  Se170  1  0.25583747  0.07866110  0.93760513  1
  Se  Se171  1  0.25986624  0.41524210  0.44921565  1
  Se  Se172  1  0.25316063  0.41044241  0.93701127  1
  Se  Se173  1  0.25198749  0.75428136  0.44852767  1
  Se  Se174  1  0.24777440  0.75200174  0.95164408  1
  Se  Se175  1  0.58994030  0.07472795  0.43470241  1
  Se  Se176  1  0.58107641  0.08047819  0.95138328  1
  Se  Se177  1  0.58492825  0.41805476  0.44240558  1
  Se  Se178  1  0.59441734  0.40797199  0.95193621  1
  Se  Se179  1  0.58269543  0.75193136  0.44421563  1
  Se  Se180  1  0.58715548  0.73083457  0.96167296  1
  Se  Se181  1  0.91493560  0.07964274  0.44733935  1
  Se  Se182  1  0.92208842  0.07935015  0.94193819  1
  Se  Se183  1  0.91470642  0.41361025  0.44550731  1
  Se  Se184  1  0.90950010  0.42434536  0.95062198  1
  Se  Se185  1  0.89783570  0.76310092  0.43690679  1
  Se  Se186  1  0.91662791  0.75390443  0.94312387  1
  Se  Se187  1  0.24537224  0.24198162  0.31136419  1
  Se  Se188  1  0.25185894  0.24872543  0.79929258  1
  Se  Se189  1  0.25750577  0.59081962  0.30287122  1
  Se  Se190  1  0.25397091  0.58769991  0.79958311  1
  Se  Se191  1  0.25529143  0.91847190  0.30437157  1
  Se  Se192  1  0.25558923  0.91546890  0.80471573  1
  Se  Se193  1  0.56998414  0.24222021  0.29674481  1
  Se  Se194  1  0.57603537  0.23939223  0.81469579  1
  Se  Se195  1  0.58452642  0.58848490  0.30224078  1
  Se  Se196  1  0.57747755  0.57942003  0.81446115  1
  Se  Se197  1  0.57734777  0.90723105  0.31172794  1
  Se  Se198  1  0.58113324  0.89940787  0.82000419  1
  Se  Se199  1  0.90768715  0.24158574  0.31550091  1
  Se  Se200  1  0.91539475  0.25053281  0.81008051  1
  Se  Se201  1  0.91469870  0.58330912  0.29842360  1
  Se  Se202  1  0.91353991  0.58099733  0.80333851  1
  Se  Se203  1  0.91822305  0.91499751  0.29886568  1
  Se  Se204  1  0.91972119  0.91841343  0.80243634  1
  Se  Se205  1  0.08133627  0.07588987  0.30017959  1
  Se  Se206  1  0.08240996  0.07857193  0.80167217  1
  Se  Se207  1  0.08799036  0.42639590  0.30981769  1
  Se  Se208  1  0.09078494  0.42399169  0.80864893  1
  Se  Se209  1  0.08429095  0.75158077  0.30134394  1
  Se  Se210  1  0.08931095  0.75632750  0.81164311  1
  Se  Se211  1  0.41942815  0.09018557  0.29211455  1
  Se  Se212  1  0.41666411  0.07479625  0.80406731  1
  Se  Se213  1  0.42265221  0.42679522  0.31122248  1
  Se  Se214  1  0.41899141  0.41144645  0.80470369  1
  Se  Se215  1  0.41559782  0.74972758  0.30514914  1
  Se  Se216  1  0.41443005  0.74408538  0.81114144  1
  Se  Se217  1  0.75446763  0.08114929  0.31440266  1
  Se  Se218  1  0.75927485  0.09132690  0.80624662  1
  Se  Se219  1  0.74446655  0.41477306  0.29926624  1
  Se  Se220  1  0.75595577  0.43686973  0.81090554  1
  Se  Se221  1  0.74531342  0.74539525  0.29628996  1
  Se  Se222  1  0.75357442  0.76114073  0.81052112  1
  Se  Se223  1  0.24923231  0.07875096  0.19508245  1
  Se  Se224  1  0.25709295  0.07519534  0.69757433  1
  Se  Se225  1  0.24531947  0.42595314  0.19442930  1
  Se  Se226  1  0.25883055  0.41440732  0.69881853  1
  Se  Se227  1  0.25229693  0.75139814  0.20027361  1
  Se  Se228  1  0.25384174  0.74887892  0.69777836  1
  Se  Se229  1  0.57676818  0.08096687  0.18838080  1
  Se  Se230  1  0.57772880  0.08968172  0.69226556  1
  Se  Se231  1  0.58277377  0.42264431  0.18944517  1
  Se  Se232  1  0.58284353  0.42398816  0.69311390  1
  Se  Se233  1  0.58471931  0.74781136  0.19726057  1
  Se  Se234  1  0.57471179  0.75827074  0.69316019  1
  Se  Se235  1  0.91674300  0.07881626  0.20286599  1
  Se  Se236  1  0.92141174  0.07895051  0.69676626  1
  Se  Se237  1  0.90819982  0.41983487  0.18826754  1
  Se  Se238  1  0.90871209  0.42356880  0.69449147  1
  Se  Se239  1  0.92073926  0.74514212  0.19395211  1
  Se  Se240  1  0.90689095  0.75536172  0.68641433  1
  Se  Se241  1  0.09141675  0.24569329  0.19377794  1
  Se  Se242  1  0.09814046  0.23542370  0.68433148  1
  Se  Se243  1  0.07999234  0.58920493  0.20156550  1
  Se  Se244  1  0.09428490  0.57627600  0.68591878  1
  Se  Se245  1  0.07970300  0.91357311  0.19451271  1
  Se  Se246  1  0.08151659  0.90859894  0.69453279  1
  Se  Se247  1  0.42421367  0.25750987  0.17691370  1
  Se  Se248  1  0.41775761  0.25047163  0.69550464  1
  Se  Se249  1  0.41351460  0.58643204  0.19979272  1
  Se  Se250  1  0.42011190  0.58908854  0.69919319  1
  Se  Se251  1  0.41402743  0.91785878  0.19854727  1
  Se  Se252  1  0.41570677  0.91696274  0.70046350  1
  Se  Se253  1  0.74491854  0.24925391  0.20420258  1
  Se  Se254  1  0.75411202  0.24967401  0.69384056  1
  Se  Se255  1  0.74854927  0.58692384  0.19124157  1
  Se  Se256  1  0.75883524  0.58252220  0.68925147  1
  Se  Se257  1  0.75091369  0.90202167  0.18767381  1
  Se  Se258  1  0.74821272  0.91213585  0.68924681  1
