# generated using pymatgen
data_In86Cu29Se144
_symmetry_space_group_name_H-M   'P 1'
_cell_length_a   17.56317788
_cell_length_b   17.56686588
_cell_length_c   23.42036595
_cell_angle_alpha   89.97986660
_cell_angle_beta   89.98213923
_cell_angle_gamma   90.00173236
_symmetry_Int_Tables_number   1
_chemical_formula_structural   In86Cu29Se144
_chemical_formula_sum   'In86 Cu29 Se144'
_cell_volume   7225.88448077
_cell_formula_units_Z   1
loop_
 _symmetry_equiv_pos_site_id
 _symmetry_equiv_pos_as_xyz
  1  'x, y, z'
loop_
 _atom_site_type_symbol
 _atom_site_label
 _atom_site_symmetry_multiplicity
 _atom_site_fract_x
 _atom_site_fract_y
 _atom_site_fract_z
 _atom_site_occupancy
  In  In0  1  0.00956889  0.16816834  0.12334011  1
  In  In1  1  -0.01000411  0.15520010  0.61742802  1
  In  In2  1  -0.00384805  0.48991849  0.12736522  1
  In  In3  1  0.00252083  0.50053667  0.62125952  1
  In  In4  1  0.00193361  0.83886114  0.11817485  1
  In  In5  1  -0.00986104  0.84422808  0.63359839  1
  In  In6  1  0.32901563  0.16824845  0.12549460  1
  In  In7  1  0.34705775  0.18044387  0.61673973  1
  In  In8  1  0.32741210  0.50912530  0.13754398  1
  In  In9  1  0.32635824  0.50098252  0.61703628  1
  In  In10  1  0.32754845  0.83262804  0.12845296  1
  In  In11  1  0.33149320  0.82049909  0.62322600  1
  In  In12  1  0.66048517  0.17351999  0.14076490  1
  In  In13  1  0.66266927  0.16333754  0.61504776  1
  In  In14  1  0.65234729  0.51203909  0.15605664  1
  In  In15  1  0.66974303  0.51359217  0.59672469  1
  In  In16  1  0.68123602  0.81983931  0.14644188  1
  In  In17  1  0.68000117  0.83855036  0.60863899  1
  In  In18  1  0.17985236  0.00423145  0.37653043  1
  In  In19  1  0.16409706  0.00747131  0.87600452  1
  In  In20  1  0.16853877  0.33522653  0.37280257  1
  In  In21  1  0.17327567  0.32161083  0.88033519  1
  In  In22  1  0.16972243  0.65132204  0.37265105  1
  In  In23  1  0.15782398  0.67318129  0.88618454  1
  In  In24  1  0.51955572  -0.01621223  0.38685073  1
  In  In25  1  0.51012025  -0.00491771  0.86729422  1
  In  In26  1  0.49405665  0.33580888  0.37185690  1
  In  In27  1  0.49740167  0.35004185  0.87365341  1
  In  In28  1  0.50595108  0.66476215  0.36326127  1
  In  In29  1  0.50120409  0.66821915  0.87121659  1
  In  In30  1  0.82653865  0.00036233  0.37763063  1
  In  In31  1  0.82303783  -0.01343364  0.86668974  1
  In  In32  1  0.83652677  0.33343805  0.38114379  1
  In  In33  1  0.82878536  0.33280885  0.87519283  1
  In  In34  1  0.79630840  0.68962824  0.40287259  1
  In  In35  1  0.86930460  0.67268685  0.86588764  1
  In  In36  1  -0.01121751  0.17572309  0.38648818  1
  In  In37  1  0.01793447  0.16871548  0.87217374  1
  In  In38  1  0.00744929  0.49780326  0.38148861  1
  In  In39  1  0.00650194  0.52969611  0.86550485  1
  In  In40  1  -0.01620246  0.82381161  0.37297303  1
  In  In41  1  -0.00043830  0.83195552  0.87308668  1
  In  In42  1  0.32454714  0.17501403  0.38190759  1
  In  In43  1  0.31729885  0.16736959  0.87273067  1
  In  In44  1  0.33688198  0.49584701  0.36623658  1
  In  In45  1  0.33410021  0.48349101  0.87133860  1
  In  In46  1  0.36576972  0.82618855  0.36903037  1
  In  In47  1  0.33260948  0.82913405  0.87828658  1
  In  In48  1  0.66690442  0.16608236  0.37914767  1
  In  In49  1  0.68126849  0.16164481  0.87617645  1
  In  In50  1  0.66471646  0.50220570  0.37563428  1
  In  In51  1  0.66835463  0.50131721  0.87663167  1
  In  In52  1  0.66107164  0.83370760  0.36579679  1
  In  In53  1  0.66444237  0.84444601  0.87266797  1
  In  In54  1  0.17023499  -0.00399118  0.10799337  1
  In  In55  1  0.15017543  0.00019284  0.62885850  1
  In  In56  1  0.16511648  0.33174197  0.12554136  1
  In  In57  1  0.18014480  0.34525745  0.62199248  1
  In  In58  1  0.17239108  0.67320894  0.11899777  1
  In  In59  1  0.16751589  0.65726160  0.62533394  1
  In  In60  1  0.50202136  0.00473296  0.13155897  1
  In  In61  1  0.51216229  0.01079403  0.61734646  1
  In  In62  1  0.48056071  0.35210874  0.16406704  1
  In  In63  1  0.49600595  0.33592990  0.61317496  1
  In  In64  1  0.49512346  0.67619835  0.15665139  1
  In  In65  1  0.51142560  0.67286564  0.59477949  1
  In  In66  1  0.82985524  -0.00586933  0.12596740  1
  In  In67  1  0.83124243  -0.00506630  0.62403137  1
  In  In68  1  0.82794538  0.34783833  0.14269726  1
  In  In69  1  0.83495415  0.33073757  0.61276687  1
  In  In70  1  0.82752841  0.67501882  0.12990595  1
  In  In71  1  0.83238153  0.66857429  0.61303325  1
  In  In72  1  0.33135946  0.65959259  0.74241511  1
  In  In73  1  0.84353381  0.16496667  0.00310166  1
  In  In74  1  0.67206288  0.67005460  0.73118488  1
  In  In75  1  -0.00833459  0.65913073  0.25405859  1
  In  In76  1  0.33981384  -0.00082212  0.24887145  1
  In  In77  1  0.00413634  0.33100279  0.74466608  1
  In  In78  1  0.16695923  0.83552767  0.50153606  1
  In  In79  1  -0.00326874  0.00234695  0.25208495  1
  In  In80  1  0.49112707  0.83807277  0.00466237  1
  In  In81  1  0.33049097  0.00295033  0.75476859  1
  In  In82  1  0.49587126  0.50692728  0.02402430  1
  In  In83  1  0.66400290  0.33179655  0.74463473  1
  In  In84  1  0.83542957  0.50287614  -0.00237958  1
  In  In85  1  0.49583454  0.16937950  0.01388664  1
  Cu  Cu86  1  0.16996627  0.82905747  0.24643281  1
  Cu  Cu87  1  0.49994560  0.49881415  0.73870845  1
  Cu  Cu88  1  -0.00268250  0.66628493  0.49892180  1
  Cu  Cu89  1  0.33537516  0.65613938  0.00345424  1
  Cu  Cu90  1  0.67414061  0.67596660  0.00834350  1
  Cu  Cu91  1  0.01168380  0.33300322  0.50140901  1
  Cu  Cu92  1  0.33685754  0.00647991  0.49936514  1
  Cu  Cu93  1  0.83318668  0.17210677  0.26077590  1
  Cu  Cu94  1  0.49812431  0.15927829  0.26200082  1
  Cu  Cu95  1  0.50198163  0.84189958  0.74099396  1
  Cu  Cu96  1  0.50258978  0.17414752  0.73946141  1
  Cu  Cu97  1  0.16561975  0.49407963  0.25123346  1
  Cu  Cu98  1  0.83503757  0.15420783  0.74662436  1
  Cu  Cu99  1  0.17063406  0.16921803  0.74757296  1
  Cu  Cu100  1  0.83755630  0.50317894  0.26726110  1
  Cu  Cu101  1  0.16088772  0.17147438  0.25135624  1
  Cu  Cu102  1  0.00461207  0.67332487  -0.00174406  1
  Cu  Cu103  1  -0.00305053  -0.00660719  0.49951704  1
  Cu  Cu104  1  0.33256765  0.34295693  0.49358177  1
  Cu  Cu105  1  0.66360442  0.34078322  0.01652885  1
  Cu  Cu106  1  0.66960871  -0.00386082  0.49863810  1
  Cu  Cu107  1  0.33289150  0.66720951  0.48978733  1
  Cu  Cu108  1  -0.00374820  -0.00433916  -0.00527521  1
  Cu  Cu109  1  0.66578508  -0.00243749  0.00266443  1
  Cu  Cu110  1  0.00332093  0.33853861  0.00186891  1
  Cu  Cu111  1  0.16655590  0.49939141  0.74701065  1
  Cu  Cu112  1  0.83115913  0.82808148  0.74503139  1
  Cu  Cu113  1  0.66243819  0.32974385  0.49135926  1
  Cu  Cu114  1  0.32650018  0.32662020  0.00250101  1
  Se  Se115  1  0.07593712  0.08045907  0.05003512  1
  Se  Se116  1  0.08201530  0.07822921  0.55018192  1
  Se  Se117  1  0.08524033  0.42038674  0.05648491  1
  Se  Se118  1  0.09037662  0.42064981  0.55449275  1
  Se  Se119  1  0.08765631  0.75631063  0.05234417  1
  Se  Se120  1  0.07605027  0.74772096  0.56184322  1
  Se  Se121  1  0.40389900  0.06791589  0.05920327  1
  Se  Se122  1  0.42293194  0.08932843  0.55079837  1
  Se  Se123  1  0.40755734  0.40127679  0.06901639  1
  Se  Se124  1  0.41536490  0.42579186  0.54846069  1
  Se  Se125  1  0.41781538  0.73292879  0.06571967  1
  Se  Se126  1  0.40971354  0.75622277  0.54363136  1
  Se  Se127  1  0.73825701  0.08845305  0.06098348  1
  Se  Se128  1  0.75265555  0.07953557  0.55334845  1
  Se  Se129  1  0.74342165  0.42892508  0.06906463  1
  Se  Se130  1  0.74969411  0.41029121  0.54459300  1
  Se  Se131  1  0.75469761  0.76314543  0.05904364  1
  Se  Se132  1  0.72701644  0.72568808  0.54866687  1
  Se  Se133  1  0.24333238  0.24298760  0.05520172  1
  Se  Se134  1  0.25430363  0.25712105  0.55173288  1
  Se  Se135  1  0.25051518  0.57585953  0.05703885  1
  Se  Se136  1  0.24947715  0.59065289  0.54851106  1
  Se  Se137  1  0.25684901  0.90603255  0.05104121  1
  Se  Se138  1  0.25668262  0.92768218  0.56221006  1
  Se  Se139  1  0.57859165  0.26520351  0.07377160  1
  Se  Se140  1  0.58054456  0.24897118  0.54910604  1
  Se  Se141  1  0.59326408  0.60095864  0.07274240  1
  Se  Se142  1  0.56930754  0.57216400  0.52927852  1
  Se  Se143  1  0.58902048  0.91724404  0.06484877  1
  Se  Se144  1  0.57974477  0.91478110  0.55007114  1
  Se  Se145  1  0.91653862  0.26722737  0.06447175  1
  Se  Se146  1  0.92146444  0.24769877  0.54814749  1
  Se  Se147  1  0.92357803  0.59456990  0.06119540  1
  Se  Se148  1  0.91697059  0.57823535  0.55087254  1
  Se  Se149  1  0.91274320  0.92015951  0.05322812  1
  Se  Se150  1  0.91362083  0.91106574  0.55365802  1
  Se  Se151  1  0.09114231  0.24862798  0.44512395  1
  Se  Se152  1  0.08291776  0.24896849  0.95073477  1
  Se  Se153  1  0.08671496  0.58622223  0.44983928  1
  Se  Se154  1  0.08332019  0.57770853  0.95249920  1
  Se  Se155  1  0.07568986  0.91924499  0.43426985  1
  Se  Se156  1  0.08266945  0.91688920  0.94053036  1
  Se  Se157  1  0.41649757  0.25309707  0.44658952  1
  Se  Se158  1  0.41549945  0.25718714  0.94126279  1
  Se  Se159  1  0.41364387  0.58688624  0.43329374  1
  Se  Se160  1  0.41831400  0.58209169  0.94139009  1
  Se  Se161  1  0.41458272  0.91688552  0.44805305  1
  Se  Se162  1  0.41223775  0.93135494  0.93774602  1
  Se  Se163  1  0.75418014  0.24563267  0.44763678  1
  Se  Se164  1  0.74034041  0.26128022  0.95273643  1
  Se  Se165  1  0.75968723  0.56318951  0.44874679  1
  Se  Se166  1  0.74615262  0.59768262  0.94013735  1
  Se  Se167  1  0.74562180  0.91058533  0.44161634  1
  Se  Se168  1  0.74795307  0.91588089  0.94717529  1
  Se  Se169  1  0.24646204  0.08743196  0.45200670  1
  Se  Se170  1  0.25029992  0.08382583  0.94539506  1
  Se  Se171  1  0.24774203  0.42456960  0.44020445  1
  Se  Se172  1  0.25094411  0.41439796  0.94651560  1
  Se  Se173  1  0.25276916  0.75318378  0.43235810  1
  Se  Se174  1  0.25755519  0.74469241  0.94890424  1
  Se  Se175  1  0.58451762  0.08502002  0.45086535  1
  Se  Se176  1  0.58702963  0.08271603  0.94458103  1
  Se  Se177  1  0.57868770  0.41552947  0.44157829  1
  Se  Se178  1  0.58499258  0.42077621  0.95250657  1
  Se  Se179  1  0.57224640  0.75672143  0.43412362  1
  Se  Se180  1  0.58731819  0.74662317  0.94485757  1
  Se  Se181  1  0.91329485  0.07814528  0.44687237  1
  Se  Se182  1  0.91960863  0.07801880  0.93221631  1
  Se  Se183  1  0.92442303  0.41341390  0.44924294  1
  Se  Se184  1  0.92604328  0.41353530  0.93593786  1
  Se  Se185  1  0.91210958  0.75533638  0.45369767  1
  Se  Se186  1  0.91519153  0.75480990  0.94898438  1
  Se  Se187  1  0.25003997  0.24924066  0.30342670  1
  Se  Se188  1  0.25162568  0.25620459  0.79912223  1
  Se  Se189  1  0.25153369  0.58190323  0.29724489  1
  Se  Se190  1  0.24521530  0.57806735  0.81212897  1
  Se  Se191  1  0.25040362  0.90482917  0.30988172  1
  Se  Se192  1  0.24317471  0.90637274  0.80938312  1
  Se  Se193  1  0.58203334  0.24616012  0.30962562  1
  Se  Se194  1  0.57932457  0.24538325  0.81351291  1
  Se  Se195  1  0.58295268  0.57131176  0.29884895  1
  Se  Se196  1  0.57950656  0.57822836  0.80082683  1
  Se  Se197  1  0.58068633  0.92315086  0.29951850  1
  Se  Se198  1  0.58951881  0.91923036  0.79435155  1
  Se  Se199  1  0.92161106  0.25431735  0.30789664  1
  Se  Se200  1  0.90941323  0.24047570  0.80712581  1
  Se  Se201  1  0.90760515  0.58930742  0.32873971  1
  Se  Se202  1  0.89964710  0.56565039  0.79603199  1
  Se  Se203  1  0.90332519  0.90873702  0.30307601  1
  Se  Se204  1  0.91369114  0.91019968  0.80148783  1
  Se  Se205  1  0.08685703  0.08939018  0.31381158  1
  Se  Se206  1  0.08683375  0.08367340  0.79831183  1
  Se  Se207  1  0.07955849  0.41647987  0.30538198  1
  Se  Se208  1  0.08932536  0.41914402  0.81131321  1
  Se  Se209  1  0.08889979  0.75394179  0.30880928  1
  Se  Se210  1  0.06378564  0.72520199  0.81187391  1
  Se  Se211  1  0.41760652  0.08020354  0.32198856  1
  Se  Se212  1  0.42721302  0.09748985  0.80822464  1
  Se  Se213  1  0.40180475  0.39773534  0.29780385  1
  Se  Se214  1  0.41857060  0.41641334  0.79459952  1
  Se  Se215  1  0.41139737  0.73502702  0.29193356  1
  Se  Se216  1  0.42432032  0.75959765  0.80034380  1
  Se  Se217  1  0.74915099  0.08460345  0.30725415  1
  Se  Se218  1  0.74473742  0.07750715  0.79977712  1
  Se  Se219  1  0.75283316  0.41389243  0.31140962  1
  Se  Se220  1  0.75566002  0.42419188  0.80433479  1
  Se  Se221  1  0.75106933  0.74225561  0.30720793  1
  Se  Se222  1  0.75061221  0.74918482  0.80904340  1
  Se  Se223  1  0.23520200  0.08135387  0.19243695  1
  Se  Se224  1  0.25199657  0.09174061  0.68507568  1
  Se  Se225  1  0.24854119  0.41130302  0.19657789  1
  Se  Se226  1  0.25802130  0.42252593  0.69706148  1
  Se  Se227  1  0.25344975  0.74242219  0.19694804  1
  Se  Se228  1  0.23560366  0.75742909  0.69607346  1
  Se  Se229  1  0.58172446  0.08109839  0.20434221  1
  Se  Se230  1  0.58788497  0.08758721  0.69387974  1
  Se  Se231  1  0.60591439  0.39341530  0.20964154  1
  Se  Se232  1  0.58705975  0.42572841  0.67910678  1
  Se  Se233  1  0.60006324  0.74007490  0.21501988  1
  Se  Se234  1  0.57338124  0.75721552  0.67857579  1
  Se  Se235  1  0.90851983  0.09621323  0.19129795  1
  Se  Se236  1  0.92009034  0.07374836  0.69377291  1
  Se  Se237  1  0.92047181  0.42381782  0.20827200  1
  Se  Se238  1  0.90905532  0.41612226  0.68834075  1
  Se  Se239  1  0.91722264  0.76384207  0.19437705  1
  Se  Se240  1  0.91000552  0.74299304  0.68960982  1
  Se  Se241  1  0.07786035  0.25352037  0.19697133  1
  Se  Se242  1  0.09082350  0.24317023  0.68146563  1
  Se  Se243  1  0.08855867  0.58001102  0.19031231  1
  Se  Se244  1  0.08124381  0.58097079  0.69539961  1
  Se  Se245  1  0.09348128  0.91654747  0.19104536  1
  Se  Se246  1  0.08629947  0.91129540  0.70013941  1
  Se  Se247  1  0.41106912  0.23271401  0.20328193  1
  Se  Se248  1  0.42005663  0.26140159  0.69254229  1
  Se  Se249  1  0.44700542  0.54749402  0.19538943  1
  Se  Se250  1  0.43012780  0.58795958  0.67750252  1
  Se  Se251  1  0.42955718  0.90197350  0.19520089  1
  Se  Se252  1  0.41583233  0.91912520  0.68496193  1
  Se  Se253  1  0.75004716  0.25425464  0.20516305  1
  Se  Se254  1  0.75896063  0.24130041  0.68875690  1
  Se  Se255  1  0.76451437  0.58436213  0.20330549  1
  Se  Se256  1  0.75479392  0.56755630  0.68149064  1
  Se  Se257  1  0.73672799  0.93704909  0.19775851  1
  Se  Se258  1  0.74664731  0.90973589  0.69168916  1
