# generated using pymatgen
data_In86Cu29Se144
_symmetry_space_group_name_H-M   'P 1'
_cell_length_a   17.66331300
_cell_length_b   17.65860601
_cell_length_c   23.51978331
_cell_angle_alpha   90.03082110
_cell_angle_beta   89.99055457
_cell_angle_gamma   90.01160646
_symmetry_Int_Tables_number   1
_chemical_formula_structural   In86Cu29Se144
_chemical_formula_sum   'In86 Cu29 Se144'
_cell_volume   7336.04219174
_cell_formula_units_Z   1
loop_
 _symmetry_equiv_pos_site_id
 _symmetry_equiv_pos_as_xyz
  1  'x, y, z'
loop_
 _atom_site_type_symbol
 _atom_site_label
 _atom_site_symmetry_multiplicity
 _atom_site_fract_x
 _atom_site_fract_y
 _atom_site_fract_z
 _atom_site_occupancy
  In  In0  1  0.00199771  0.14401536  0.11743988  1
  In  In1  1  -0.00974590  0.16546682  0.63202300  1
  In  In2  1  -0.00336906  0.51636008  0.12183180  1
  In  In3  1  -0.00074410  0.51988560  0.62438144  1
  In  In4  1  -0.00139122  0.84397434  0.11959856  1
  In  In5  1  0.00445754  0.83322913  0.62612369  1
  In  In6  1  0.31831081  0.16189787  0.10828019  1
  In  In7  1  0.32460916  0.16187147  0.62447619  1
  In  In8  1  0.35208356  0.50382640  0.13152251  1
  In  In9  1  0.33742721  0.49844766  0.61778147  1
  In  In10  1  0.31902129  0.84473253  0.14386356  1
  In  In11  1  0.33884425  0.84857095  0.61065064  1
  In  In12  1  0.64891519  0.18416660  0.13803187  1
  In  In13  1  0.65653776  0.15835127  0.62804487  1
  In  In14  1  0.66352243  0.50142206  0.12536443  1
  In  In15  1  0.67232328  0.50918392  0.61663144  1
  In  In16  1  0.67450600  0.82715438  0.12992151  1
  In  In17  1  0.65926166  0.83383719  0.63173177  1
  In  In18  1  0.16441085  -0.01450115  0.36722999  1
  In  In19  1  0.16635693  -0.01086090  0.87232703  1
  In  In20  1  0.17594563  0.32669238  0.37084184  1
  In  In21  1  0.16553374  0.32661144  0.87989930  1
  In  In22  1  0.20579889  0.71826830  0.32698388  1
  In  In23  1  0.15854627  0.69443406  0.88446813  1
  In  In24  1  0.48826912  -0.01555455  0.35602000  1
  In  In25  1  0.50892529  -0.00231968  0.87612232  1
  In  In26  1  0.51946456  0.33200183  0.36708028  1
  In  In27  1  0.49502770  0.33061344  0.88635931  1
  In  In28  1  0.50597890  0.66596511  0.37574244  1
  In  In29  1  0.50291494  0.65344496  0.87950661  1
  In  In30  1  0.83718191  -0.00207759  0.37193526  1
  In  In31  1  0.82605802  -0.01503326  0.87579600  1
  In  In32  1  0.82926402  0.35049011  0.37585300  1
  In  In33  1  0.84038238  0.33907336  0.88121302  1
  In  In34  1  0.82804521  0.66415877  0.36973427  1
  In  In35  1  0.83292166  0.66779056  0.87578235  1
  In  In36  1  0.01047996  0.15640744  0.37154737  1
  In  In37  1  0.01200340  0.15205185  0.88285460  1
  In  In38  1  -0.01169697  0.51200426  0.37880267  1
  In  In39  1  -0.01232286  0.50500082  0.88024740  1
  In  In40  1  0.02216900  0.84712176  0.35799906  1
  In  In41  1  -0.00030181  0.83080062  0.87133221  1
  In  In42  1  0.34249991  0.14594917  0.37000029  1
  In  In43  1  0.35091975  0.14741809  0.88992359  1
  In  In44  1  0.33943699  0.51763016  0.36934431  1
  In  In45  1  0.34464131  0.51021010  0.88010517  1
  In  In46  1  0.34700414  0.84454521  0.38141708  1
  In  In47  1  0.31894169  0.83412719  0.88044654  1
  In  In48  1  0.64618427  0.15336995  0.35026719  1
  In  In49  1  0.66625801  0.14949532  0.88100733  1
  In  In50  1  0.66799321  0.50650250  0.37172098  1
  In  In51  1  0.66137091  0.50489941  0.87818289  1
  In  In52  1  0.66041901  0.82112270  0.36881535  1
  In  In53  1  0.67437774  0.83572755  0.87181348  1
  In  In54  1  0.15966510  -0.00656876  0.11844839  1
  In  In55  1  0.17107539  -0.00719847  0.63180535  1
  In  In56  1  0.17808478  0.31564360  0.11833865  1
  In  In57  1  0.17244576  0.32910266  0.62658318  1
  In  In58  1  0.14818302  0.68759456  0.14747190  1
  In  In59  1  0.15342188  0.67421505  0.62763659  1
  In  In60  1  0.48695087  0.01714137  0.13905029  1
  In  In61  1  0.50275006  -0.00638028  0.63080366  1
  In  In62  1  0.49625342  0.34538779  0.11143917  1
  In  In63  1  0.49310695  0.33386764  0.61928510  1
  In  In64  1  0.50734237  0.65247923  0.14246304  1
  In  In65  1  0.50401234  0.67879202  0.61645057  1
  In  In66  1  0.83824328  -0.00761988  0.12755078  1
  In  In67  1  0.83717696  -0.00966468  0.63420722  1
  In  In68  1  0.81455418  0.33403051  0.12305317  1
  In  In69  1  0.82118508  0.33663648  0.62298188  1
  In  In70  1  0.83110247  0.67285370  0.12104272  1
  In  In71  1  0.83845668  0.66441775  0.62499298  1
  In  In72  1  0.16026714  0.51162240  0.49807907  1
  In  In73  1  0.34016379  0.32897164  0.24575277  1
  In  In74  1  0.82694107  0.17050911  0.48828673  1
  In  In75  1  0.33323765  0.66760048  0.75333194  1
  In  In76  1  0.49929355  0.82643024  0.01798251  1
  In  In77  1  0.66483643  0.32931779  0.75288586  1
  In  In78  1  -0.00509407  0.33156221  0.25110136  1
  In  In79  1  0.82984253  0.16411110  0.00314542  1
  In  In80  1  0.16798470  0.16344474  0.49439127  1
  In  In81  1  0.83675046  0.83225649  0.50204174  1
  In  In82  1  0.17755788  0.50335192  0.01201833  1
  In  In83  1  -0.00367131  0.33108682  0.76123304  1
  In  In84  1  0.49923500  0.16798322  0.49491649  1
  In  In85  1  0.33167432  0.32835938  0.74719343  1
  Cu  Cu86  1  -0.00239181  0.34225553  0.50238200  1
  Cu  Cu87  1  0.33695443  0.66386419  0.01247322  1
  Cu  Cu88  1  0.83812422  0.50426306  0.74719467  1
  Cu  Cu89  1  0.16689652  0.15073472  0.24155598  1
  Cu  Cu90  1  0.49685767  0.83161812  0.74780727  1
  Cu  Cu91  1  0.16097535  0.49628805  0.24498244  1
  Cu  Cu92  1  -0.00180907  0.67560408  0.49784486  1
  Cu  Cu93  1  0.34193017  0.34358082  0.49295740  1
  Cu  Cu94  1  0.67048845  0.34301255  0.49268097  1
  Cu  Cu95  1  0.50595044  0.50180853  0.75100461  1
  Cu  Cu96  1  0.66010216  0.34043911  0.00296509  1
  Cu  Cu97  1  0.66632368  -0.00339433  0.50427169  1
  Cu  Cu98  1  0.33185829  0.67509534  0.49041742  1
  Cu  Cu99  1  0.66430281  0.66433349  0.49321177  1
  Cu  Cu100  1  0.82518242  0.50250352  0.24766813  1
  Cu  Cu101  1  -0.00294027  0.33643460  -0.00068127  1
  Cu  Cu102  1  0.83771207  0.83056906  0.24754958  1
  Cu  Cu103  1  -0.00132461  0.67110709  0.00166536  1
  Cu  Cu104  1  0.16537726  0.83301168  0.75106312  1
  Cu  Cu105  1  0.83209276  0.82724297  0.75065125  1
  Cu  Cu106  1  0.16597333  0.51034283  0.75421179  1
  Cu  Cu107  1  0.83549281  0.16309148  0.24469367  1
  Cu  Cu108  1  0.50622187  0.82889279  0.25037513  1
  Cu  Cu109  1  0.50072567  0.15287640  0.75448904  1
  Cu  Cu110  1  0.66189872  0.00450448  0.00546929  1
  Cu  Cu111  1  0.83138603  0.15162300  0.75628174  1
  Cu  Cu112  1  0.33120815  -0.00931439  0.00581794  1
  Cu  Cu113  1  0.66682368  0.66606218  0.00410594  1
  Cu  Cu114  1  0.16854500  0.15844874  0.75525462  1
  Se  Se115  1  0.09213188  0.08408100  0.04619806  1
  Se  Se116  1  0.08151932  0.08838547  0.56539426  1
  Se  Se117  1  0.07740080  0.41120353  0.06344383  1
  Se  Se118  1  0.07967924  0.41359227  0.56468667  1
  Se  Se119  1  0.08255025  0.74634210  0.05932368  1
  Se  Se120  1  0.08358709  0.75413704  0.55190355  1
  Se  Se121  1  0.41710220  0.07707997  0.05273210  1
  Se  Se122  1  0.41491292  0.08081240  0.56010726  1
  Se  Se123  1  0.39596698  0.41614951  0.05093078  1
  Se  Se124  1  0.42351945  0.42269478  0.54867468  1
  Se  Se125  1  0.40805024  0.74315428  0.07970954  1
  Se  Se126  1  0.41464341  0.75332720  0.54892061  1
  Se  Se127  1  0.73966225  0.08468459  0.06778419  1
  Se  Se128  1  0.74848381  0.07985038  0.55988617  1
  Se  Se129  1  0.74732538  0.42279323  0.05158857  1
  Se  Se130  1  0.75310583  0.42078277  0.55020092  1
  Se  Se131  1  0.74900452  0.75583179  0.05051463  1
  Se  Se132  1  0.74066260  0.74417240  0.55886313  1
  Se  Se133  1  0.24610723  0.24882151  0.03728387  1
  Se  Se134  1  0.26190613  0.26191566  0.55126059  1
  Se  Se135  1  0.25013725  0.59738144  0.07799556  1
  Se  Se136  1  0.25639097  0.59783473  0.55827018  1
  Se  Se137  1  0.25194328  0.90530734  0.05798231  1
  Se  Se138  1  0.23206776  0.91127229  0.55305841  1
  Se  Se139  1  0.58187467  0.25004862  0.05288148  1
  Se  Se140  1  0.59552691  0.25860351  0.55523982  1
  Se  Se141  1  0.58024841  0.58877495  0.05830014  1
  Se  Se142  1  0.58080502  0.58531014  0.55183390  1
  Se  Se143  1  0.58593701  0.92563342  0.07018326  1
  Se  Se144  1  0.58335375  0.91540688  0.55840795  1
  Se  Se145  1  0.92031135  0.25574064  0.06348413  1
  Se  Se146  1  0.91841779  0.25644607  0.55731063  1
  Se  Se147  1  0.91210556  0.58736688  0.04998262  1
  Se  Se148  1  0.91765527  0.58799385  0.54928550  1
  Se  Se149  1  0.91597360  0.92493897  0.05058262  1
  Se  Se150  1  0.92502658  0.92779816  0.55729515  1
  Se  Se151  1  0.07442010  0.26223904  0.44138175  1
  Se  Se152  1  0.07711067  0.25163888  0.94722954  1
  Se  Se153  1  0.08133221  0.60052606  0.43471432  1
  Se  Se154  1  0.08381724  0.58668216  0.94595364  1
  Se  Se155  1  0.08100787  0.91854968  0.44227661  1
  Se  Se156  1  0.10590015  0.88559488  0.93622608  1
  Se  Se157  1  0.41072408  0.25702656  0.43197560  1
  Se  Se158  1  0.40507030  0.25559980  0.95006491  1
  Se  Se159  1  0.41756894  0.58718959  0.44593437  1
  Se  Se160  1  0.41964319  0.58550386  0.95597918  1
  Se  Se161  1  0.42923580  0.93179100  0.44645505  1
  Se  Se162  1  0.41748849  0.91250811  0.94648647  1
  Se  Se163  1  0.73422740  0.25425737  0.42914548  1
  Se  Se164  1  0.73964439  0.25805504  0.94171470  1
  Se  Se165  1  0.75272440  0.58380403  0.44434451  1
  Se  Se166  1  0.74722844  0.58608600  0.94415781  1
  Se  Se167  1  0.74405748  0.91948346  0.44116408  1
  Se  Se168  1  0.73948239  0.91802824  0.95026849  1
  Se  Se169  1  0.25776932  0.07071845  0.44162600  1
  Se  Se170  1  0.25100729  0.06804198  0.94456031  1
  Se  Se171  1  0.25175556  0.41816724  0.43941292  1
  Se  Se172  1  0.25439393  0.41905588  0.93891184  1
  Se  Se173  1  0.25113435  0.74864567  0.43021469  1
  Se  Se174  1  0.25722221  0.74634005  0.95628977  1
  Se  Se175  1  0.59494589  0.08102985  0.44128741  1
  Se  Se176  1  0.57574895  0.08383893  0.95216756  1
  Se  Se177  1  0.58329895  0.42097536  0.44042270  1
  Se  Se178  1  0.57895811  0.42191666  0.94581580  1
  Se  Se179  1  0.58247157  0.75404810  0.44738805  1
  Se  Se180  1  0.58517325  0.74712791  0.94487701  1
  Se  Se181  1  0.92680233  0.07717861  0.44451032  1
  Se  Se182  1  0.91592299  0.07154103  0.94402381  1
  Se  Se183  1  0.91497733  0.42235105  0.44796825  1
  Se  Se184  1  0.91297129  0.42261695  0.95308160  1
  Se  Se185  1  0.92020572  0.75171396  0.43325381  1
  Se  Se186  1  0.91742866  0.75024516  0.94298707  1
  Se  Se187  1  0.24601059  0.23171842  0.30264209  1
  Se  Se188  1  0.24898430  0.24082657  0.81230455  1
  Se  Se189  1  0.24253428  0.57653115  0.30138912  1
  Se  Se190  1  0.24177020  0.58567069  0.81843198  1
  Se  Se191  1  0.26974529  0.92512593  0.30743910  1
  Se  Se192  1  0.25477354  0.91305749  0.80114820  1
  Se  Se193  1  0.58334685  0.25550212  0.28846087  1
  Se  Se194  1  0.57418196  0.24073148  0.81299771  1
  Se  Se195  1  0.59337590  0.59523846  0.30414355  1
  Se  Se196  1  0.58667436  0.58548680  0.80343994  1
  Se  Se197  1  0.59359707  0.91527872  0.29938878  1
  Se  Se198  1  0.58161698  0.91063638  0.80541534  1
  Se  Se199  1  0.90820044  0.24106110  0.31402985  1
  Se  Se200  1  0.90771106  0.23490054  0.81591004  1
  Se  Se201  1  0.91209076  0.58133598  0.30056557  1
  Se  Se202  1  0.91768035  0.58485947  0.80500446  1
  Se  Se203  1  0.91735790  0.91799313  0.30117869  1
  Se  Se204  1  0.91283905  0.91264052  0.80457844  1
  Se  Se205  1  0.08349787  0.07459522  0.29966636  1
  Se  Se206  1  0.08235076  0.07634329  0.80541008  1
  Se  Se207  1  0.08707017  0.41815309  0.31177757  1
  Se  Se208  1  0.09028883  0.42663932  0.81329060  1
  Se  Se209  1  0.06411028  0.72762823  0.30398426  1
  Se  Se210  1  0.08170501  0.74668468  0.79989828  1
  Se  Se211  1  0.44068023  0.09956832  0.29838231  1
  Se  Se212  1  0.41646117  0.07382124  0.80852534  1
  Se  Se213  1  0.42259682  0.42067158  0.30825637  1
  Se  Se214  1  0.42251483  0.42053054  0.80618499  1
  Se  Se215  1  0.42387809  0.75526516  0.31145224  1
  Se  Se216  1  0.42331928  0.75493628  0.81593067  1
  Se  Se217  1  0.75649918  0.08021198  0.30245611  1
  Se  Se218  1  0.74432711  0.07327181  0.80852360  1
  Se  Se219  1  0.74618934  0.41757451  0.30135004  1
  Se  Se220  1  0.75997443  0.42059336  0.80658627  1
  Se  Se221  1  0.75189886  0.74995240  0.30024142  1
  Se  Se222  1  0.74839846  0.74527772  0.80414500  1
  Se  Se223  1  0.25154804  0.07707373  0.18373571  1
  Se  Se224  1  0.25258378  0.08234796  0.69761667  1
  Se  Se225  1  0.24121299  0.41551891  0.18815642  1
  Se  Se226  1  0.24188758  0.43016416  0.69362099  1
  Se  Se227  1  0.25121526  0.74907823  0.21152237  1
  Se  Se228  1  0.24912205  0.75598009  0.68954499  1
  Se  Se229  1  0.59338550  0.07744868  0.19960862  1
  Se  Se230  1  0.58713968  0.07457471  0.70066549  1
  Se  Se231  1  0.57596879  0.41543798  0.18649696  1
  Se  Se232  1  0.57909746  0.41798561  0.68877122  1
  Se  Se233  1  0.59119454  0.74710130  0.19981444  1
  Se  Se234  1  0.57879504  0.74461874  0.69787590  1
  Se  Se235  1  0.92018127  0.08032482  0.19518795  1
  Se  Se236  1  0.91861850  0.07742856  0.70062002  1
  Se  Se237  1  0.90908575  0.42207032  0.18828391  1
  Se  Se238  1  0.91553947  0.41768961  0.69032518  1
  Se  Se239  1  0.91749150  0.75392069  0.18723930  1
  Se  Se240  1  0.91673213  0.75128401  0.69162677  1
  Se  Se241  1  0.08605744  0.24154935  0.19053828  1
  Se  Se242  1  0.09167512  0.24529164  0.69817439  1
  Se  Se243  1  0.07282860  0.58195244  0.20131554  1
  Se  Se244  1  0.08117678  0.58812046  0.69964231  1
  Se  Se245  1  0.08820351  0.91025927  0.19213254  1
  Se  Se246  1  0.08061056  0.91669946  0.69838554  1
  Se  Se247  1  0.41399055  0.24449561  0.17472371  1
  Se  Se248  1  0.42786542  0.23635222  0.69182589  1
  Se  Se249  1  0.41310982  0.58328348  0.20959096  1
  Se  Se250  1  0.42160315  0.57778681  0.69034232  1
  Se  Se251  1  0.42178681  0.91517403  0.20207642  1
  Se  Se252  1  0.41256218  0.91184218  0.69455039  1
  Se  Se253  1  0.75153519  0.25265139  0.20065612  1
  Se  Se254  1  0.75831361  0.23691412  0.69498699  1
  Se  Se255  1  0.75022572  0.58700028  0.18989376  1
  Se  Se256  1  0.75236251  0.58136642  0.69179905  1
  Se  Se257  1  0.75260509  0.91595226  0.19725581  1
  Se  Se258  1  0.74786317  0.91228128  0.69834446  1
