# generated using pymatgen
data_In86Cu29Se144
_symmetry_space_group_name_H-M   'P 1'
_cell_length_a   17.58547847
_cell_length_b   17.58164640
_cell_length_c   23.44786210
_cell_angle_alpha   90.01805756
_cell_angle_beta   89.98389223
_cell_angle_gamma   90.01066962
_symmetry_Int_Tables_number   1
_chemical_formula_structural   In86Cu29Se144
_chemical_formula_sum   'In86 Cu29 Se144'
_cell_volume   7249.64825647
_cell_formula_units_Z   1
loop_
 _symmetry_equiv_pos_site_id
 _symmetry_equiv_pos_as_xyz
  1  'x, y, z'
loop_
 _atom_site_type_symbol
 _atom_site_label
 _atom_site_symmetry_multiplicity
 _atom_site_fract_x
 _atom_site_fract_y
 _atom_site_fract_z
 _atom_site_occupancy
  In  In0  1  0.00504686  0.16444202  0.13282199  1
  In  In1  1  0.00067643  0.16552389  0.61319273  1
  In  In2  1  0.00970410  0.49304560  0.12875869  1
  In  In3  1  0.00944543  0.50665278  0.62151692  1
  In  In4  1  -0.00240931  0.83229707  0.12731939  1
  In  In5  1  -0.01802668  0.82488296  0.62445087  1
  In  In6  1  0.32874298  0.17311216  0.12662632  1
  In  In7  1  0.34023628  0.17104560  0.61978775  1
  In  In8  1  0.33412192  0.50898099  0.11904624  1
  In  In9  1  0.32226960  0.50895773  0.63081599  1
  In  In10  1  0.29982094  0.82744560  0.11726740  1
  In  In11  1  0.33425434  0.82017205  0.62699721  1
  In  In12  1  0.65948392  0.15454734  0.13115731  1
  In  In13  1  0.66830198  0.15997156  0.62241731  1
  In  In14  1  0.66822940  0.52457727  0.11275093  1
  In  In15  1  0.68128823  0.50215575  0.62332568  1
  In  In16  1  0.68477208  0.83416518  0.12181288  1
  In  In17  1  0.67621151  0.83787287  0.63207127  1
  In  In18  1  0.16592655  0.01307872  0.37535455  1
  In  In19  1  0.16426913  0.00174715  0.89157756  1
  In  In20  1  0.16465577  0.33837389  0.37970083  1
  In  In21  1  0.16972370  0.32266476  0.88413564  1
  In  In22  1  0.15701749  0.65784911  0.36715487  1
  In  In23  1  0.16617389  0.65943772  0.88020050  1
  In  In24  1  0.50786460  -0.01580973  0.38849254  1
  In  In25  1  0.50747258  -0.00970819  0.87115319  1
  In  In26  1  0.48687517  0.32758276  0.37710397  1
  In  In27  1  0.49809214  0.34954529  0.87184692  1
  In  In28  1  0.50700806  0.68230935  0.37397197  1
  In  In29  1  0.48759083  0.66475173  0.86465241  1
  In  In30  1  0.83656193  -0.00185461  0.37511502  1
  In  In31  1  0.81793194  -0.01238539  0.86517355  1
  In  In32  1  0.84405707  0.32414324  0.38108143  1
  In  In33  1  0.84132352  0.33029655  0.87325614  1
  In  In34  1  0.84225723  0.65976484  0.38460084  1
  In  In35  1  0.84567634  0.67930805  0.86180907  1
  In  In36  1  0.00093036  0.16842549  0.37271197  1
  In  In37  1  0.00806123  0.17107534  0.87776286  1
  In  In38  1  0.00428218  0.49998912  0.37487506  1
  In  In39  1  0.00257762  0.51307615  0.88536265  1
  In  In40  1  -0.01069513  0.82088953  0.37059304  1
  In  In41  1  0.00567855  0.81722607  0.88892802  1
  In  In42  1  0.33232845  0.15793078  0.39301214  1
  In  In43  1  0.31242984  0.16541311  0.87347806  1
  In  In44  1  0.32016080  0.49628170  0.37267328  1
  In  In45  1  0.33117051  0.50060436  0.87198741  1
  In  In46  1  0.34587394  0.83435692  0.37481508  1
  In  In47  1  0.33491962  0.82500092  0.87466023  1
  In  In48  1  0.68120360  0.15092808  0.38466127  1
  In  In49  1  0.67508032  0.14951490  0.86503054  1
  In  In50  1  0.67435329  0.51634164  0.37823049  1
  In  In51  1  0.64961433  0.50489166  0.87480333  1
  In  In52  1  0.66433989  0.84078326  0.38258122  1
  In  In53  1  0.67583473  0.83313232  0.86410766  1
  In  In54  1  0.14647565  -0.02592418  0.10727175  1
  In  In55  1  0.15790805  0.00287166  0.62030516  1
  In  In56  1  0.15198780  0.32862636  0.10945498  1
  In  In57  1  0.17155430  0.34310828  0.62221953  1
  In  In58  1  0.16146122  0.66800394  0.12684324  1
  In  In59  1  0.17486948  0.66092498  0.63252715  1
  In  In60  1  0.49782981  0.00446394  0.13249779  1
  In  In61  1  0.51198448  0.01467810  0.61563934  1
  In  In62  1  0.48874929  0.33899604  0.12524996  1
  In  In63  1  0.49701308  0.31595921  0.62466593  1
  In  In64  1  0.50401834  0.65741838  0.11930883  1
  In  In65  1  0.49376956  0.67845420  0.62861127  1
  In  In66  1  0.84393312  -0.00729527  0.13597285  1
  In  In67  1  0.82742025  -0.00603312  0.62143076  1
  In  In68  1  0.84325703  0.34437151  0.12795366  1
  In  In69  1  0.83284918  0.33308027  0.61508815  1
  In  In70  1  0.83476403  0.68742423  0.11752421  1
  In  In71  1  0.83621231  0.66836195  0.63186590  1
  In  In72  1  0.32808512  -0.00043443  0.25125151  1
  In  In73  1  0.66160820  0.33799647  0.74271482  1
  In  In74  1  0.83603365  0.50895797  -0.00736947  1
  In  In75  1  0.32804415  0.33337231  0.24825534  1
  In  In76  1  0.50174170  0.49916638  0.49848463  1
  In  In77  1  0.33600727  -0.00390820  0.75197200  1
  In  In78  1  0.49422522  0.17210862  0.00625312  1
  In  In79  1  0.00001200  0.33472198  0.75515680  1
  In  In80  1  0.17040250  0.83647383  0.49846516  1
  In  In81  1  0.67246889  0.33293739  0.25112196  1
  In  In82  1  -0.00436216  -0.00725828  0.74263280  1
  In  In83  1  0.83710358  0.16416120  0.00053450  1
  In  In84  1  0.49504774  0.83399960  -0.00852985  1
  In  In85  1  0.67112422  0.67354787  0.24204082  1
  Cu  Cu86  1  0.49886380  0.16922646  0.74394553  1
  Cu  Cu87  1  0.83750708  0.16441218  0.25797864  1
  Cu  Cu88  1  -0.01333881  -0.00563372  0.00381126  1
  Cu  Cu89  1  0.32951329  0.66506930  -0.00494568  1
  Cu  Cu90  1  0.33018444  0.33180033  0.50225343  1
  Cu  Cu91  1  0.16495359  0.16838979  0.24954366  1
  Cu  Cu92  1  0.66689209  0.33757328  -0.00518432  1
  Cu  Cu93  1  0.16542184  0.50264107  0.24808102  1
  Cu  Cu94  1  0.16674679  0.50394377  0.75210111  1
  Cu  Cu95  1  0.66876344  -0.00705327  -0.00355509  1
  Cu  Cu96  1  0.00109392  0.33548831  0.49634201  1
  Cu  Cu97  1  0.16524285  0.16887796  0.75233105  1
  Cu  Cu98  1  0.50890616  0.83544469  0.74787564  1
  Cu  Cu99  1  0.67381910  -0.00209414  0.50269508  1
  Cu  Cu100  1  0.83402450  0.83576983  0.25211192  1
  Cu  Cu101  1  0.16186262  0.82250758  0.75704570  1
  Cu  Cu102  1  0.49563558  0.83623750  0.25389871  1
  Cu  Cu103  1  0.50080671  0.50475761  0.23804874  1
  Cu  Cu104  1  0.84704627  0.50252818  0.25301946  1
  Cu  Cu105  1  0.50858460  0.15488879  0.26017495  1
  Cu  Cu106  1  -0.00223301  0.00422887  0.49727878  1
  Cu  Cu107  1  0.33372872  0.34254695  -0.00099018  1
  Cu  Cu108  1  0.67281475  0.67629717  0.50459261  1
  Cu  Cu109  1  0.83392792  0.50272041  0.75122950  1
  Cu  Cu110  1  0.33093807  0.66253695  0.50311852  1
  Cu  Cu111  1  0.66583902  0.33195741  0.50392143  1
  Cu  Cu112  1  0.15908313  0.83075506  0.24565515  1
  Cu  Cu113  1  -0.00006939  0.66426566  0.50103866  1
  Cu  Cu114  1  0.49116750  0.50537940  0.74751602  1
  Se  Se115  1  0.07060672  0.08076588  0.05506111  1
  Se  Se116  1  0.08737946  0.08540454  0.54593185  1
  Se  Se117  1  0.08878632  0.43218528  0.04766257  1
  Se  Se118  1  0.08361915  0.41757866  0.55250052  1
  Se  Se119  1  0.10254790  0.77387398  0.06287071  1
  Se  Se120  1  0.08323115  0.74521514  0.56051046  1
  Se  Se121  1  0.40701023  0.07535110  0.06028401  1
  Se  Se122  1  0.41299646  0.08166976  0.55293816  1
  Se  Se123  1  0.41906465  0.42257450  0.05250781  1
  Se  Se124  1  0.41150861  0.41405557  0.56202016  1
  Se  Se125  1  0.40757217  0.74726172  0.05767854  1
  Se  Se126  1  0.41543832  0.74907339  0.55040957  1
  Se  Se127  1  0.74500998  0.07369727  0.05990515  1
  Se  Se128  1  0.75663072  0.08650374  0.55189848  1
  Se  Se129  1  0.74659340  0.41405839  0.05717215  1
  Se  Se130  1  0.75170224  0.41998378  0.54861425  1
  Se  Se131  1  0.71947849  0.72377453  0.05564854  1
  Se  Se132  1  0.75713008  0.75391258  0.56115808  1
  Se  Se133  1  0.25579485  0.25418979  0.05311821  1
  Se  Se134  1  0.24624879  0.24974471  0.55628450  1
  Se  Se135  1  0.24560526  0.58864674  0.05418568  1
  Se  Se136  1  0.24430284  0.58151729  0.55357813  1
  Se  Se137  1  0.26091734  0.93086775  0.04702704  1
  Se  Se138  1  0.25876400  0.92109495  0.56282588  1
  Se  Se139  1  0.59384217  0.25953891  0.06283937  1
  Se  Se140  1  0.58467985  0.24544931  0.55436301  1
  Se  Se141  1  0.57504561  0.58334704  0.04186857  1
  Se  Se142  1  0.58835304  0.59098846  0.55980120  1
  Se  Se143  1  0.58290651  0.92146301  0.05887503  1
  Se  Se144  1  0.59179647  0.91581902  0.55883976  1
  Se  Se145  1  0.92356909  0.25605146  0.05953221  1
  Se  Se146  1  0.91697035  0.25097363  0.54812666  1
  Se  Se147  1  0.92063324  0.58722119  0.06368164  1
  Se  Se148  1  0.91597913  0.58512822  0.55879317  1
  Se  Se149  1  0.90571382  0.90964340  0.05750812  1
  Se  Se150  1  0.91963216  0.91915605  0.55333775  1
  Se  Se151  1  0.08386119  0.24927025  0.44389357  1
  Se  Se152  1  0.07999452  0.24794698  0.95182961  1
  Se  Se153  1  0.08527981  0.58359540  0.44652772  1
  Se  Se154  1  0.08819128  0.58340182  0.95627396  1
  Se  Se155  1  0.07453434  0.91855137  0.43713588  1
  Se  Se156  1  0.07774905  0.91511579  0.95285382  1
  Se  Se157  1  0.41827187  0.24877044  0.45351780  1
  Se  Se158  1  0.41108666  0.25758523  0.93802215  1
  Se  Se159  1  0.41285910  0.58836367  0.43702149  1
  Se  Se160  1  0.41509842  0.58504194  0.94095822  1
  Se  Se161  1  0.41058869  0.91379129  0.45172616  1
  Se  Se162  1  0.40425150  0.93204139  0.93878025  1
  Se  Se163  1  0.75005400  0.25152161  0.44703953  1
  Se  Se164  1  0.74078178  0.25122582  0.93787895  1
  Se  Se165  1  0.75260409  0.58571192  0.45472242  1
  Se  Se166  1  0.74628113  0.59132776  0.93030587  1
  Se  Se167  1  0.75734325  0.91549060  0.44781307  1
  Se  Se168  1  0.74948806  0.90908228  0.94369649  1
  Se  Se169  1  0.24795028  0.07159015  0.45399936  1
  Se  Se170  1  0.24369439  0.09414757  0.95258232  1
  Se  Se171  1  0.25015604  0.41836559  0.44930084  1
  Se  Se172  1  0.24896527  0.42027011  0.94329111  1
  Se  Se173  1  0.25340047  0.74049580  0.43743078  1
  Se  Se174  1  0.24831697  0.75302997  0.94490690  1
  Se  Se175  1  0.58559525  0.08020038  0.45043738  1
  Se  Se176  1  0.58732740  0.08112984  0.94434921  1
  Se  Se177  1  0.59182412  0.40951703  0.43616295  1
  Se  Se178  1  0.57811523  0.41977475  0.94827832  1
  Se  Se179  1  0.58420579  0.75317943  0.45078409  1
  Se  Se180  1  0.58295816  0.74760142  0.93027836  1
  Se  Se181  1  0.91585657  0.08762842  0.44212462  1
  Se  Se182  1  0.91648770  0.07149664  0.93442973  1
  Se  Se183  1  0.91752839  0.42096921  0.44440903  1
  Se  Se184  1  0.92590387  0.40547478  0.94490107  1
  Se  Se185  1  0.91665924  0.75205253  0.45214074  1
  Se  Se186  1  0.91199196  0.73718536  0.94989146  1
  Se  Se187  1  0.25035737  0.23843889  0.31294589  1
  Se  Se188  1  0.24704381  0.25653200  0.80210843  1
  Se  Se189  1  0.25201614  0.58350134  0.30043976  1
  Se  Se190  1  0.25092858  0.58831756  0.80472402  1
  Se  Se191  1  0.23849512  0.90653717  0.31122549  1
  Se  Se192  1  0.23706592  0.91418044  0.81196375  1
  Se  Se193  1  0.58371125  0.24475380  0.31510733  1
  Se  Se194  1  0.57868197  0.24555684  0.80957875  1
  Se  Se195  1  0.57967984  0.58068962  0.30308167  1
  Se  Se196  1  0.57935303  0.58493710  0.79857298  1
  Se  Se197  1  0.58214714  0.91470175  0.30767807  1
  Se  Se198  1  0.59117229  0.92159050  0.79830477  1
  Se  Se199  1  0.92082163  0.25491697  0.30243269  1
  Se  Se200  1  0.90887463  0.23299990  0.80444909  1
  Se  Se201  1  0.92278304  0.58989748  0.30804768  1
  Se  Se202  1  0.92325070  0.57674584  0.80561656  1
  Se  Se203  1  0.92011963  0.91786389  0.30432462  1
  Se  Se204  1  0.92301174  0.90501362  0.81386560  1
  Se  Se205  1  0.08210444  0.08386298  0.30199657  1
  Se  Se206  1  0.08879486  0.08068331  0.80745196  1
  Se  Se207  1  0.08833602  0.41692474  0.30542047  1
  Se  Se208  1  0.08947758  0.42321226  0.81498226  1
  Se  Se209  1  0.07787223  0.74635344  0.30100526  1
  Se  Se210  1  0.07988083  0.74160568  0.81117485  1
  Se  Se211  1  0.41926763  0.08180950  0.31702282  1
  Se  Se212  1  0.42282042  0.09252613  0.81172773  1
  Se  Se213  1  0.42542818  0.42610145  0.30334552  1
  Se  Se214  1  0.41178928  0.41732801  0.79909815  1
  Se  Se215  1  0.41511233  0.74622634  0.30170358  1
  Se  Se216  1  0.41534211  0.75837697  0.79692573  1
  Se  Se217  1  0.75065069  0.07883942  0.30413924  1
  Se  Se218  1  0.75526691  0.07845848  0.79233822  1
  Se  Se219  1  0.75875630  0.42679673  0.31111878  1
  Se  Se220  1  0.75365317  0.42060065  0.81002574  1
  Se  Se221  1  0.75495600  0.75300112  0.31345896  1
  Se  Se222  1  0.74995478  0.74628441  0.79510359  1
  Se  Se223  1  0.23947968  0.08534390  0.18791630  1
  Se  Se224  1  0.24359726  0.08541754  0.69231731  1
  Se  Se225  1  0.24266200  0.42073732  0.18533896  1
  Se  Se226  1  0.24782233  0.41769907  0.69905571  1
  Se  Se227  1  0.24800582  0.74658940  0.19959628  1
  Se  Se228  1  0.25207394  0.74872887  0.70161395  1
  Se  Se229  1  0.58775841  0.07154424  0.20492882  1
  Se  Se230  1  0.58540739  0.08502402  0.69643308  1
  Se  Se231  1  0.58764416  0.42468542  0.18527973  1
  Se  Se232  1  0.57019501  0.42783524  0.68307852  1
  Se  Se233  1  0.57471488  0.76237322  0.18633805  1
  Se  Se234  1  0.58855362  0.74853174  0.69505843  1
  Se  Se235  1  0.92056479  0.08346084  0.20087929  1
  Se  Se236  1  0.91389191  0.09165606  0.68626325  1
  Se  Se237  1  0.92615687  0.41408653  0.20149774  1
  Se  Se238  1  0.91122465  0.42035839  0.69023148  1
  Se  Se239  1  0.91383861  0.75018468  0.19783107  1
  Se  Se240  1  0.92079793  0.74533124  0.70284483  1
  Se  Se241  1  0.08872340  0.25673582  0.19437644  1
  Se  Se242  1  0.08527858  0.24570300  0.68990810  1
  Se  Se243  1  0.07960639  0.58638937  0.19769799  1
  Se  Se244  1  0.08156770  0.58491785  0.69860573  1
  Se  Se245  1  0.07856991  0.92067208  0.19623612  1
  Se  Se246  1  0.09246746  0.90062367  0.68822008  1
  Se  Se247  1  0.43030300  0.23775583  0.19932891  1
  Se  Se248  1  0.40841367  0.25135532  0.69891892  1
  Se  Se249  1  0.41447189  0.58961041  0.19175488  1
  Se  Se250  1  0.41060900  0.59169537  0.69439662  1
  Se  Se251  1  0.41135478  0.90561485  0.18828659  1
  Se  Se252  1  0.42635107  0.91456599  0.68707333  1
  Se  Se253  1  0.76084969  0.24016270  0.18967016  1
  Se  Se254  1  0.75716406  0.24843000  0.69033308  1
  Se  Se255  1  0.76456888  0.57755739  0.18992500  1
  Se  Se256  1  0.74797746  0.58386929  0.69935106  1
  Se  Se257  1  0.74726818  0.91729955  0.19998092  1
  Se  Se258  1  0.75998728  0.91929402  0.70073325  1
