# generated using pymatgen
data_In86Cu29Se144
_symmetry_space_group_name_H-M   'P 1'
_cell_length_a   17.55928902
_cell_length_b   17.55919449
_cell_length_c   23.41786509
_cell_angle_alpha   90.00105544
_cell_angle_beta   90.01848542
_cell_angle_gamma   90.00681827
_symmetry_Int_Tables_number   1
_chemical_formula_structural   In86Cu29Se144
_chemical_formula_sum   'In86 Cu29 Se144'
_cell_volume   7220.35897931
_cell_formula_units_Z   1
loop_
 _symmetry_equiv_pos_site_id
 _symmetry_equiv_pos_as_xyz
  1  'x, y, z'
loop_
 _atom_site_type_symbol
 _atom_site_label
 _atom_site_symmetry_multiplicity
 _atom_site_fract_x
 _atom_site_fract_y
 _atom_site_fract_z
 _atom_site_occupancy
  In  In0  1  0.00964003  0.19280853  0.11035113  1
  In  In1  1  -0.00846993  0.17356894  0.63382919  1
  In  In2  1  -0.01636501  0.47138692  0.09954027  1
  In  In3  1  -0.00649241  0.50144502  0.63404773  1
  In  In4  1  -0.00112043  0.82805528  0.12395388  1
  In  In5  1  -0.01760051  0.83031753  0.62573899  1
  In  In6  1  0.33690611  0.16467796  0.12797546  1
  In  In7  1  0.33755001  0.15540350  0.62416079  1
  In  In8  1  0.33382751  0.50209906  0.12111326  1
  In  In9  1  0.33150513  0.50328578  0.62570367  1
  In  In10  1  0.34515099  0.82587341  0.13473312  1
  In  In11  1  0.34932106  0.82983114  0.62019137  1
  In  In12  1  0.66758116  0.17346351  0.12589329  1
  In  In13  1  0.66074681  0.17739787  0.62464785  1
  In  In14  1  0.66643711  0.49960445  0.12717046  1
  In  In15  1  0.68537082  0.48087498  0.63597287  1
  In  In16  1  0.65697828  0.83950504  0.13583342  1
  In  In17  1  0.66186595  0.82534597  0.63038560  1
  In  In18  1  0.17460124  -0.00638160  0.36903325  1
  In  In19  1  0.16953331  0.00636590  0.87610216  1
  In  In20  1  0.16101204  0.32940955  0.36437760  1
  In  In21  1  0.13966208  0.35582877  0.90585575  1
  In  In22  1  0.16682633  0.65014760  0.37141139  1
  In  In23  1  0.15796238  0.66315495  0.87287677  1
  In  In24  1  0.50781175  0.00697771  0.37385106  1
  In  In25  1  0.51162650  0.00318543  0.87322503  1
  In  In26  1  0.49998517  0.32761649  0.36808600  1
  In  In27  1  0.50310776  0.32777188  0.88375863  1
  In  In28  1  0.51454171  0.67418182  0.36472107  1
  In  In29  1  0.50277375  0.66163750  0.87600348  1
  In  In30  1  0.78482208  0.00837018  0.38170682  1
  In  In31  1  0.82772166  0.01711172  0.87318597  1
  In  In32  1  0.84490073  0.33806620  0.36486463  1
  In  In33  1  0.82743443  0.33260792  0.87829163  1
  In  In34  1  0.81715221  0.67505296  0.38556984  1
  In  In35  1  0.82128802  0.65713021  0.87196841  1
  In  In36  1  -0.01527532  0.18451021  0.37194254  1
  In  In37  1  -0.02702700  0.19707120  0.90451771  1
  In  In38  1  -0.01861937  0.48280074  0.37070637  1
  In  In39  1  -0.01143243  0.49197533  0.88210316  1
  In  In40  1  -0.01074555  0.82507770  0.37810500  1
  In  In41  1  0.00986868  0.82558918  0.86893694  1
  In  In42  1  0.34655939  0.17997354  0.35976168  1
  In  In43  1  0.32320053  0.17158229  0.89082306  1
  In  In44  1  0.32705066  0.49422273  0.35768990  1
  In  In45  1  0.34454809  0.50832726  0.89263132  1
  In  In46  1  0.35368928  0.84889387  0.36286389  1
  In  In47  1  0.33473125  0.82366228  0.87686384  1
  In  In48  1  0.66808706  0.16197717  0.35792900  1
  In  In49  1  0.66061916  0.17253943  0.87461421  1
  In  In50  1  0.67488876  0.50155998  0.37082253  1
  In  In51  1  0.66731810  0.49755068  0.87963205  1
  In  In52  1  0.66344732  0.83382907  0.38235007  1
  In  In53  1  0.65966549  0.84133356  0.85932261  1
  In  In54  1  0.16714597  0.01761763  0.12591813  1
  In  In55  1  0.17158642  0.00631429  0.62478491  1
  In  In56  1  0.17230614  0.33586013  0.12075169  1
  In  In57  1  0.15338427  0.32229545  0.62730283  1
  In  In58  1  0.18445635  0.64939405  0.12449229  1
  In  In59  1  0.16419350  0.64735003  0.62859631  1
  In  In60  1  0.49603014  0.00730758  0.13329715  1
  In  In61  1  0.51322185  0.00626236  0.61494308  1
  In  In62  1  0.50319423  0.33139025  0.12679542  1
  In  In63  1  0.52300071  0.33612017  0.61668820  1
  In  In64  1  0.50266636  0.66085396  0.12810567  1
  In  In65  1  0.51555153  0.68930124  0.61610779  1
  In  In66  1  0.81168313  0.01934494  0.13841190  1
  In  In67  1  0.82217906  -0.01936588  0.61718660  1
  In  In68  1  0.82979859  0.33423537  0.12628967  1
  In  In69  1  0.82909931  0.33834113  0.62679624  1
  In  In70  1  0.83861245  0.65256632  0.12838169  1
  In  In71  1  0.83022970  0.66211231  0.63074493  1
  In  In72  1  0.33702578  0.00216317  0.74704152  1
  In  In73  1  0.34446490  0.66464076  0.75734715  1
  In  In74  1  -0.00094238  0.00801434  0.25230605  1
  In  In75  1  0.16739755  0.83327723  -0.00619004  1
  In  In76  1  0.50397425  0.50257735  0.49397001  1
  In  In77  1  0.00538874  0.66282162  0.24678932  1
  In  In78  1  0.16287030  0.49872818  0.50102894  1
  In  In79  1  -0.00540582  0.00268163  0.75086438  1
  In  In80  1  0.33442370  0.33300436  0.75865671  1
  In  In81  1  0.50184171  0.83200907  0.00309206  1
  In  In82  1  0.82566594  0.17218676  0.49992036  1
  In  In83  1  0.16580130  0.16948531  0.48790768  1
  In  In84  1  0.16912188  0.83016323  0.50083258  1
  In  In85  1  0.83005306  0.83552760  0.00099209  1
  Cu  Cu86  1  0.83629270  0.49386058  0.75511698  1
  Cu  Cu87  1  0.67220386  0.66286076  0.00295391  1
  Cu  Cu88  1  0.33430079  -0.00100052  0.00861276  1
  Cu  Cu89  1  -0.00926330  0.00705196  0.00716612  1
  Cu  Cu90  1  0.15591434  0.49064816  0.75895271  1
  Cu  Cu91  1  0.83160092  0.82679242  0.74556786  1
  Cu  Cu92  1  0.34313854  0.67679038  0.48507027  1
  Cu  Cu93  1  -0.01456764  0.66063830  0.50431313  1
  Cu  Cu94  1  -0.00819178  0.00837852  0.49799707  1
  Cu  Cu95  1  0.00137759  0.65697028  -0.00355653  1
  Cu  Cu96  1  0.66346220  0.33539130  0.00393221  1
  Cu  Cu97  1  0.50598863  0.16291049  0.24561724  1
  Cu  Cu98  1  0.17704671  0.83386808  0.24674668  1
  Cu  Cu99  1  0.67206367  0.66320363  0.50400958  1
  Cu  Cu100  1  0.34121064  0.32838531  0.00899821  1
  Cu  Cu101  1  0.35297701  0.00374276  0.49297376  1
  Cu  Cu102  1  0.50294399  0.82864567  0.25448204  1
  Cu  Cu103  1  0.51198426  0.50410501  0.75249903  1
  Cu  Cu104  1  0.34048440  0.32612118  0.49150148  1
  Cu  Cu105  1  0.50202132  0.17141921  0.74934558  1
  Cu  Cu106  1  0.17092710  0.17001481  0.24230688  1
  Cu  Cu107  1  0.15040176  0.18057701  0.76405937  1
  Cu  Cu108  1  0.66907703  0.01574897  -0.00099953  1
  Cu  Cu109  1  0.83223412  0.50197081  0.24333212  1
  Cu  Cu110  1  0.49849845  0.49448575  0.24557802  1
  Cu  Cu111  1  0.82455122  0.17056041  0.75583992  1
  Cu  Cu112  1  0.82322322  0.83756964  0.26171793  1
  Cu  Cu113  1  0.16330600  0.49903224  0.24168508  1
  Cu  Cu114  1  0.16555178  0.82389624  0.74667796  1
  Se  Se115  1  0.08292721  0.08742471  0.05289887  1
  Se  Se116  1  0.07522757  0.08403712  0.55787642  1
  Se  Se117  1  0.09732794  0.41638572  0.04533642  1
  Se  Se118  1  0.07285715  0.41008101  0.55925890  1
  Se  Se119  1  0.08099146  0.73992337  0.05676276  1
  Se  Se120  1  0.07797246  0.73714953  0.56051517  1
  Se  Se121  1  0.42113745  0.08294050  0.05705193  1
  Se  Se122  1  0.42606082  0.09213697  0.54980506  1
  Se  Se123  1  0.42352252  0.41702227  0.05741825  1
  Se  Se124  1  0.40882722  0.41351257  0.55591388  1
  Se  Se125  1  0.40893714  0.74029328  0.05606370  1
  Se  Se126  1  0.42375824  0.75504070  0.54320322  1
  Se  Se127  1  0.75445375  0.09387851  0.05373503  1
  Se  Se128  1  0.73939949  0.07615025  0.55748864  1
  Se  Se129  1  0.74835453  0.41900543  0.05636497  1
  Se  Se130  1  0.74345263  0.40624649  0.55272484  1
  Se  Se131  1  0.74380162  0.74748058  0.06647330  1
  Se  Se132  1  0.75169913  0.74739813  0.56095143  1
  Se  Se133  1  0.25378633  0.24357012  0.05698217  1
  Se  Se134  1  0.25600367  0.25442576  0.55723888  1
  Se  Se135  1  0.24763589  0.57161155  0.04607373  1
  Se  Se136  1  0.26374424  0.59726238  0.54906141  1
  Se  Se137  1  0.25396481  0.91469836  0.06525143  1
  Se  Se138  1  0.26451165  0.92896246  0.55391037  1
  Se  Se139  1  0.58090378  0.24773231  0.05449886  1
  Se  Se140  1  0.58040492  0.24304332  0.54568350  1
  Se  Se141  1  0.58490091  0.58392774  0.05604315  1
  Se  Se142  1  0.59272251  0.57924564  0.56444681  1
  Se  Se143  1  0.59132983  0.92918315  0.05770256  1
  Se  Se144  1  0.57590384  0.89889410  0.55829405  1
  Se  Se145  1  0.91965430  0.27365947  0.04665997  1
  Se  Se146  1  0.92471148  0.25673725  0.55665628  1
  Se  Se147  1  0.91045015  0.58150548  0.04853516  1
  Se  Se148  1  0.90978556  0.57498073  0.56092506  1
  Se  Se149  1  0.91295625  0.92568151  0.06740275  1
  Se  Se150  1  0.91862590  0.91442699  0.54926141  1
  Se  Se151  1  0.07074592  0.26785195  0.44418762  1
  Se  Se152  1  0.10675231  0.22230473  0.94383259  1
  Se  Se153  1  0.06728308  0.58584255  0.44046510  1
  Se  Se154  1  0.08529693  0.57581148  0.94269916  1
  Se  Se155  1  0.07773751  0.92552930  0.44197398  1
  Se  Se156  1  0.06770710  0.92736069  0.94278348  1
  Se  Se157  1  0.42394211  0.24278377  0.44162099  1
  Se  Se158  1  0.42146684  0.24400764  0.95231662  1
  Se  Se159  1  0.41080863  0.58328660  0.42780501  1
  Se  Se160  1  0.42740856  0.59563850  0.95488608  1
  Se  Se161  1  0.43071612  0.91376832  0.44256375  1
  Se  Se162  1  0.40957900  0.92449675  0.94161272  1
  Se  Se163  1  0.74777372  0.25423791  0.42794627  1
  Se  Se164  1  0.74285567  0.25050582  0.94692751  1
  Se  Se165  1  0.75001364  0.57537241  0.45021833  1
  Se  Se166  1  0.75424649  0.57760125  0.95043080  1
  Se  Se167  1  0.76569804  0.89647969  0.44843891  1
  Se  Se168  1  0.73896643  0.92411303  0.93950653  1
  Se  Se169  1  0.26375135  0.07981795  0.43545587  1
  Se  Se170  1  0.24588441  0.07646060  0.95441705  1
  Se  Se171  1  0.25459269  0.40923833  0.43824559  1
  Se  Se172  1  0.26383736  0.41098516  0.94968889  1
  Se  Se173  1  0.25343782  0.75079001  0.42892923  1
  Se  Se174  1  0.25778403  0.73275978  0.94387160  1
  Se  Se175  1  0.60993493  0.07445647  0.43612197  1
  Se  Se176  1  0.57759926  0.09064250  0.94638835  1
  Se  Se177  1  0.59015133  0.40835939  0.43745754  1
  Se  Se178  1  0.58033799  0.41957023  0.94914387  1
  Se  Se179  1  0.58415741  0.74059073  0.44853677  1
  Se  Se180  1  0.60000143  0.75151543  0.94226424  1
  Se  Se181  1  0.91278709  0.08066086  0.43435752  1
  Se  Se182  1  0.90284729  0.08433830  0.95349378  1
  Se  Se183  1  0.90488787  0.41631234  0.44834721  1
  Se  Se184  1  0.92501884  0.39279432  0.95113003  1
  Se  Se185  1  0.90976072  0.75144853  0.45233261  1
  Se  Se186  1  0.92272197  0.74652558  0.94062270  1
  Se  Se187  1  0.25197738  0.25640864  0.29681779  1
  Se  Se188  1  0.23887343  0.25489717  0.82103082  1
  Se  Se189  1  0.24641653  0.58516010  0.29305567  1
  Se  Se190  1  0.24979705  0.56896923  0.81072817  1
  Se  Se191  1  0.25830079  0.92187217  0.29667744  1
  Se  Se192  1  0.24264348  0.90600760  0.80707497  1
  Se  Se193  1  0.58523102  0.25314065  0.29593000  1
  Se  Se194  1  0.58030588  0.25834360  0.80431183  1
  Se  Se195  1  0.58345197  0.57506514  0.30167482  1
  Se  Se196  1  0.59192099  0.58743896  0.80820184  1
  Se  Se197  1  0.58557733  0.91286065  0.30790018  1
  Se  Se198  1  0.57839532  0.92729671  0.79515881  1
  Se  Se199  1  0.93189227  0.26635007  0.29190916  1
  Se  Se200  1  0.91321103  0.24633184  0.81037289  1
  Se  Se201  1  0.90603323  0.58668634  0.30877409  1
  Se  Se202  1  0.91642025  0.57981217  0.80953261  1
  Se  Se203  1  0.90931899  0.91937388  0.31526335  1
  Se  Se204  1  0.90643641  0.90857970  0.81189104  1
  Se  Se205  1  0.09323757  0.09828308  0.31235751  1
  Se  Se206  1  0.07356446  0.09101288  0.81853295  1
  Se  Se207  1  0.08176400  0.42349567  0.30287299  1
  Se  Se208  1  0.07628476  0.40789280  0.81385260  1
  Se  Se209  1  0.09244637  0.75922134  0.30860990  1
  Se  Se210  1  0.08102460  0.73945852  0.79675836  1
  Se  Se211  1  0.42190210  0.08010821  0.30083929  1
  Se  Se212  1  0.41477651  0.09866370  0.81144033  1
  Se  Se213  1  0.41551095  0.40834259  0.29787125  1
  Se  Se214  1  0.42443866  0.43009122  0.81270350  1
  Se  Se215  1  0.41353696  0.74229982  0.30039455  1
  Se  Se216  1  0.43536744  0.76516954  0.80668603  1
  Se  Se217  1  0.77229983  0.09499001  0.29570497  1
  Se  Se218  1  0.73750639  0.08455402  0.80275610  1
  Se  Se219  1  0.75253719  0.41731737  0.29950488  1
  Se  Se220  1  0.74721043  0.41470947  0.80788908  1
  Se  Se221  1  0.74112567  0.74715252  0.30856544  1
  Se  Se222  1  0.74820346  0.74850769  0.80405023  1
  Se  Se223  1  0.25685266  0.07956853  0.19982942  1
  Se  Se224  1  0.23385795  0.10085976  0.70142201  1
  Se  Se225  1  0.25311187  0.41767210  0.19205238  1
  Se  Se226  1  0.23919355  0.42005681  0.69304127  1
  Se  Se227  1  0.25146610  0.74303290  0.19458106  1
  Se  Se228  1  0.25171538  0.74889198  0.68773491  1
  Se  Se229  1  0.59366289  0.07972308  0.19560031  1
  Se  Se230  1  0.58119718  0.08839498  0.69260814  1
  Se  Se231  1  0.58685029  0.41358399  0.19588244  1
  Se  Se232  1  0.58463851  0.41050778  0.69989844  1
  Se  Se233  1  0.58319076  0.74429771  0.19877307  1
  Se  Se234  1  0.58360086  0.74316552  0.70293472  1
  Se  Se235  1  0.92598907  0.09716261  0.18231493  1
  Se  Se236  1  0.89625713  0.08517317  0.69031683  1
  Se  Se237  1  0.91908647  0.42105931  0.19138735  1
  Se  Se238  1  0.91666762  0.40943590  0.69979736  1
  Se  Se239  1  0.90590013  0.76091100  0.19862912  1
  Se  Se240  1  0.91990646  0.74225112  0.69962784  1
  Se  Se241  1  0.08767320  0.25559624  0.19213679  1
  Se  Se242  1  0.06967356  0.25764899  0.70448695  1
  Se  Se243  1  0.07673054  0.56946166  0.17863335  1
  Se  Se244  1  0.08063392  0.57983598  0.70371788  1
  Se  Se245  1  0.08885706  0.91264370  0.19069005  1
  Se  Se246  1  0.08938381  0.91207568  0.68961739  1
  Se  Se247  1  0.41964379  0.24804804  0.19619552  1
  Se  Se248  1  0.41990366  0.25012121  0.68833465  1
  Se  Se249  1  0.41513646  0.58110726  0.19529603  1
  Se  Se250  1  0.42968187  0.57967524  0.68827333  1
  Se  Se251  1  0.42171332  0.91520555  0.20067660  1
  Se  Se252  1  0.42790061  0.91320857  0.69075798  1
  Se  Se253  1  0.74900056  0.25389650  0.19622277  1
  Se  Se254  1  0.74833442  0.25148505  0.69479852  1
  Se  Se255  1  0.74460541  0.58859017  0.19785087  1
  Se  Se256  1  0.75192920  0.57872910  0.70240760  1
  Se  Se257  1  0.74458152  0.91981378  0.20259979  1
  Se  Se258  1  0.74771848  0.91311872  0.69728752  1
