# generated using pymatgen
data_In86Cu29Se144
_symmetry_space_group_name_H-M   'P 1'
_cell_length_a   17.57872673
_cell_length_b   17.58262572
_cell_length_c   23.44402188
_cell_angle_alpha   90.00858799
_cell_angle_beta   90.00188261
_cell_angle_gamma   90.00623306
_symmetry_Int_Tables_number   1
_chemical_formula_structural   In86Cu29Se144
_chemical_formula_sum   'In86 Cu29 Se144'
_cell_volume   7246.08220348
_cell_formula_units_Z   1
loop_
 _symmetry_equiv_pos_site_id
 _symmetry_equiv_pos_as_xyz
  1  'x, y, z'
loop_
 _atom_site_type_symbol
 _atom_site_label
 _atom_site_symmetry_multiplicity
 _atom_site_fract_x
 _atom_site_fract_y
 _atom_site_fract_z
 _atom_site_occupancy
  In  In0  1  0.00220449  0.16166339  0.11398104  1
  In  In1  1  0.01999160  0.16965965  0.62685353  1
  In  In2  1  0.01509639  0.50527189  0.12516776  1
  In  In3  1  0.00430995  0.48614406  0.62871627  1
  In  In4  1  -0.00626411  0.82612086  0.12295258  1
  In  In5  1  -0.00053594  0.82968177  0.61909734  1
  In  In6  1  0.33675739  0.16613274  0.12544502  1
  In  In7  1  0.33328791  0.16661710  0.62799798  1
  In  In8  1  0.32402844  0.51142091  0.13542780  1
  In  In9  1  0.32098061  0.48719084  0.61271946  1
  In  In10  1  0.33058225  0.83277696  0.12494812  1
  In  In11  1  0.33853285  0.84314390  0.62298098  1
  In  In12  1  0.65165069  0.15569540  0.10998394  1
  In  In13  1  0.64741048  0.16388782  0.62697192  1
  In  In14  1  0.67468344  0.51019746  0.12652765  1
  In  In15  1  0.67010031  0.50293549  0.61845355  1
  In  In16  1  0.66723218  0.82021080  0.12208037  1
  In  In17  1  0.67102336  0.82648688  0.62446920  1
  In  In18  1  0.17695815  -0.01123119  0.38078042  1
  In  In19  1  0.17775642  -0.00155078  0.88605371  1
  In  In20  1  0.17932227  0.32471745  0.38344539  1
  In  In21  1  0.16789018  0.33280426  0.87625630  1
  In  In22  1  0.17300164  0.67058098  0.37762150  1
  In  In23  1  0.16200182  0.66769975  0.88805461  1
  In  In24  1  0.49220134  0.01418972  0.37851485  1
  In  In25  1  0.49577980  0.00074145  0.87851668  1
  In  In26  1  0.48673098  0.34994105  0.39090831  1
  In  In27  1  0.48060082  0.33468570  0.87214127  1
  In  In28  1  0.47824895  0.65844454  0.35353556  1
  In  In29  1  0.50338290  0.68487604  0.88192193  1
  In  In30  1  0.81812517  -0.00611598  0.37209316  1
  In  In31  1  0.82775295  0.00508628  0.87647771  1
  In  In32  1  0.83789520  0.33548863  0.37195346  1
  In  In33  1  0.83300721  0.32068830  0.86779061  1
  In  In34  1  0.84138929  0.68471178  0.35853162  1
  In  In35  1  0.83384062  0.67109903  0.88114792  1
  In  In36  1  0.00435246  0.17901320  0.37440839  1
  In  In37  1  -0.00347893  0.17270982  0.87802512  1
  In  In38  1  0.00206735  0.51849796  0.37496731  1
  In  In39  1  0.01166420  0.50402350  0.87412928  1
  In  In40  1  0.00528313  0.82964979  0.37594473  1
  In  In41  1  -0.00119841  0.83392036  0.88433509  1
  In  In42  1  0.32915413  0.16810884  0.37386853  1
  In  In43  1  0.32948263  0.16339507  0.88164917  1
  In  In44  1  0.33610450  0.50031972  0.37873264  1
  In  In45  1  0.33034879  0.48594846  0.87368863  1
  In  In46  1  0.31789515  0.82081991  0.35214554  1
  In  In47  1  0.32164003  0.85262824  0.89728386  1
  In  In48  1  0.65648638  0.15764865  0.37790747  1
  In  In49  1  0.67545761  0.15255871  0.87766869  1
  In  In50  1  0.63651691  0.51014899  0.38554862  1
  In  In51  1  0.67187822  0.50451301  0.87275763  1
  In  In52  1  0.67227463  0.83312946  0.37471154  1
  In  In53  1  0.64378909  0.85169414  0.89496263  1
  In  In54  1  0.18601179  0.00667440  0.11147400  1
  In  In55  1  0.17429574  0.01121689  0.61958620  1
  In  In56  1  0.17555503  0.34122633  0.12094939  1
  In  In57  1  0.17242704  0.33401407  0.62798092  1
  In  In58  1  0.16656553  0.66717304  0.12771153  1
  In  In59  1  0.17270007  0.66534185  0.60905723  1
  In  In60  1  0.46693312  -0.02476605  0.10083186  1
  In  In61  1  0.48686062  0.00705278  0.63472216  1
  In  In62  1  0.49536635  0.31896908  0.12212292  1
  In  In63  1  0.48780651  0.31273896  0.61300008  1
  In  In64  1  0.49497900  0.68045185  0.14150943  1
  In  In65  1  0.50791675  0.66528218  0.61533796  1
  In  In66  1  0.82463206  -0.00672875  0.11288136  1
  In  In67  1  0.83165280  -0.01830277  0.62756122  1
  In  In68  1  0.83981330  0.32607926  0.11952479  1
  In  In69  1  0.84781638  0.34457334  0.63196468  1
  In  In70  1  0.82258668  0.69246600  0.14863675  1
  In  In71  1  0.82207945  0.66983433  0.62090594  1
  In  In72  1  0.00514573  -0.00691020  0.25039371  1
  In  In73  1  -0.00125260  0.66212116  0.75555634  1
  In  In74  1  0.66211493  0.32733457  0.74555678  1
  In  In75  1  0.00447678  0.33877943  0.24649554  1
  In  In76  1  0.66597226  0.66525157  0.74662961  1
  In  In77  1  0.83804896  0.50356585  0.00001257  1
  In  In78  1  0.83484496  0.15917915  0.49804285  1
  In  In79  1  0.49572396  0.50553819  0.00358567  1
  In  In80  1  0.65131961  -0.01015790  0.23609311  1
  In  In81  1  0.83681116  0.50314942  0.50177656  1
  In  In82  1  0.00533413  0.00534771  0.75197778  1
  In  In83  1  0.66084834  0.33581302  0.25328037  1
  In  In84  1  0.33679154  0.66679020  0.74578762  1
  In  In85  1  0.49395275  0.83257243  0.49347598  1
  Cu  Cu86  1  0.16738654  0.83289569  0.24701467  1
  Cu  Cu87  1  0.17368656  0.84084101  0.75403118  1
  Cu  Cu88  1  0.33087191  0.66340324  0.00977575  1
  Cu  Cu89  1  0.00371718  0.67123481  0.49392583  1
  Cu  Cu90  1  0.00215804  0.32780233  -0.00119341  1
  Cu  Cu91  1  0.67193260  0.00499993  -0.00113902  1
  Cu  Cu92  1  0.82516053  0.16064253  0.23764857  1
  Cu  Cu93  1  0.82267342  0.83250852  0.75300211  1
  Cu  Cu94  1  0.33260182  0.33125550  0.50143449  1
  Cu  Cu95  1  0.83188023  0.50596694  0.25374414  1
  Cu  Cu96  1  0.17363401  0.16503842  0.24832654  1
  Cu  Cu97  1  0.66923684  0.66712954  0.49375205  1
  Cu  Cu98  1  -0.00038552  -0.00442391  0.50216289  1
  Cu  Cu99  1  0.49829894  0.49563442  0.74553360  1
  Cu  Cu100  1  0.49437864  0.16272783  0.75362341  1
  Cu  Cu101  1  0.17227218  0.50212699  0.25457439  1
  Cu  Cu102  1  0.16890254  0.49689864  0.75000169  1
  Cu  Cu103  1  0.32597893  0.33196902  0.00004870  1
  Cu  Cu104  1  0.66035536  -0.00508095  0.49947229  1
  Cu  Cu105  1  -0.00177270  0.66774049  0.00595951  1
  Cu  Cu106  1  0.83620522  0.16403344  0.75250748  1
  Cu  Cu107  1  0.49287093  0.84354991  0.75768216  1
  Cu  Cu108  1  0.00698501  -0.00252787  -0.00088815  1
  Cu  Cu109  1  0.17696670  0.17249978  0.75137908  1
  Cu  Cu110  1  0.33079741  0.00412122  0.50158095  1
  Cu  Cu111  1  0.01366469  0.33282982  0.50378599  1
  Cu  Cu112  1  0.49507577  0.49635105  0.25331093  1
  Cu  Cu113  1  0.48816486  0.16943536  0.25046693  1
  Cu  Cu114  1  0.66457816  0.33006800  -0.00857719  1
  Se  Se115  1  0.09056324  0.08428677  0.04806948  1
  Se  Se116  1  0.08223728  0.08343710  0.55068533  1
  Se  Se117  1  0.08028202  0.41319457  0.05432749  1
  Se  Se118  1  0.09245205  0.41981268  0.55646930  1
  Se  Se119  1  0.08579315  0.74989068  0.05664880  1
  Se  Se120  1  0.08562723  0.75460286  0.54953337  1
  Se  Se121  1  0.43261532  0.10266899  0.05541200  1
  Se  Se122  1  0.41592888  0.08370723  0.55679276  1
  Se  Se123  1  0.40563931  0.41432758  0.06175178  1
  Se  Se124  1  0.42166439  0.41585836  0.55069470  1
  Se  Se125  1  0.41797858  0.74458266  0.05999485  1
  Se  Se126  1  0.40635373  0.74114743  0.55552998  1
  Se  Se127  1  0.75736413  0.09293781  0.04842484  1
  Se  Se128  1  0.74434845  0.07280045  0.56142333  1
  Se  Se129  1  0.74137042  0.40872574  0.05550161  1
  Se  Se130  1  0.75176897  0.40357864  0.55710679  1
  Se  Se131  1  0.76571781  0.75056782  0.05834587  1
  Se  Se132  1  0.74940676  0.75239407  0.54791607  1
  Se  Se133  1  0.24795696  0.24630578  0.05616922  1
  Se  Se134  1  0.25044226  0.24845766  0.55793423  1
  Se  Se135  1  0.24459012  0.57822077  0.05696104  1
  Se  Se136  1  0.25849285  0.58467834  0.54568066  1
  Se  Se137  1  0.26105168  0.91444327  0.04751721  1
  Se  Se138  1  0.24946105  0.91738226  0.55420276  1
  Se  Se139  1  0.57817542  0.25182294  0.04551884  1
  Se  Se140  1  0.59063518  0.24911995  0.55031525  1
  Se  Se141  1  0.58267311  0.59340371  0.06508455  1
  Se  Se142  1  0.58878777  0.58123270  0.54715341  1
  Se  Se143  1  0.59928176  0.92809658  0.06477264  1
  Se  Se144  1  0.57969474  0.91790310  0.56296953  1
  Se  Se145  1  0.91491489  0.24436856  0.04800083  1
  Se  Se146  1  0.92462548  0.25368833  0.55831637  1
  Se  Se147  1  0.91702161  0.59069967  0.06818740  1
  Se  Se148  1  0.92933167  0.59306618  0.56251988  1
  Se  Se149  1  0.92118370  0.91612610  0.05262205  1
  Se  Se150  1  0.91376300  0.91222849  0.55219695  1
  Se  Se151  1  0.08912704  0.24440185  0.44943473  1
  Se  Se152  1  0.08784965  0.24665719  0.94561539  1
  Se  Se153  1  0.08951840  0.58497008  0.44738973  1
  Se  Se154  1  0.07929287  0.58060806  0.95335505  1
  Se  Se155  1  0.08335633  0.91447729  0.44597134  1
  Se  Se156  1  0.08943429  0.91141652  0.94827910  1
  Se  Se157  1  0.41342682  0.24559803  0.44693830  1
  Se  Se158  1  0.41416495  0.25291411  0.94796494  1
  Se  Se159  1  0.43708181  0.57584431  0.43795357  1
  Se  Se160  1  0.40550228  0.59145055  0.93807846  1
  Se  Se161  1  0.40148474  0.92140028  0.43665289  1
  Se  Se162  1  0.44519450  0.89414496  0.94650710  1
  Se  Se163  1  0.74960806  0.25147375  0.43732938  1
  Se  Se164  1  0.75238534  0.24820220  0.94156174  1
  Se  Se165  1  0.75303318  0.58822244  0.43361906  1
  Se  Se166  1  0.73739478  0.59252081  0.94845518  1
  Se  Se167  1  0.74817354  0.91476872  0.44922232  1
  Se  Se168  1  0.75575929  0.91768212  0.94819057  1
  Se  Se169  1  0.24679116  0.08645546  0.44572080  1
  Se  Se170  1  0.26493243  0.07258555  0.95486626  1
  Se  Se171  1  0.25146380  0.41860442  0.44893723  1
  Se  Se172  1  0.24528497  0.41996015  0.94835326  1
  Se  Se173  1  0.25848392  0.75926059  0.43962406  1
  Se  Se174  1  0.24900289  0.74751791  0.95402028  1
  Se  Se175  1  0.57754581  0.08409059  0.45328808  1
  Se  Se176  1  0.58290538  0.08409000  0.94651319  1
  Se  Se177  1  0.60229506  0.39804506  0.44892410  1
  Se  Se178  1  0.58443909  0.41578100  0.93690543  1
  Se  Se179  1  0.58213682  0.74065058  0.43443998  1
  Se  Se180  1  0.59107043  0.74230761  0.95645195  1
  Se  Se181  1  0.92464776  0.07200820  0.43384635  1
  Se  Se182  1  0.92224396  0.07789075  0.94235148  1
  Se  Se183  1  0.93113487  0.41028666  0.44231650  1
  Se  Se184  1  0.92157517  0.40888630  0.93795296  1
  Se  Se185  1  0.91423308  0.74933507  0.44225616  1
  Se  Se186  1  0.91534673  0.74994175  0.95085467  1
  Se  Se187  1  0.24986968  0.25378559  0.30256527  1
  Se  Se188  1  0.25708559  0.25315827  0.80974790  1
  Se  Se189  1  0.25502559  0.58488998  0.30880970  1
  Se  Se190  1  0.24203723  0.58392668  0.81054977  1
  Se  Se191  1  0.24626756  0.92627041  0.29515719  1
  Se  Se192  1  0.25513973  0.91899743  0.81103600  1
  Se  Se193  1  0.57105263  0.24540504  0.31192803  1
  Se  Se194  1  0.57685197  0.24344904  0.81333598  1
  Se  Se195  1  0.58451125  0.58186912  0.29842838  1
  Se  Se196  1  0.56944345  0.57901683  0.80809601  1
  Se  Se197  1  0.57444200  0.91776323  0.31491930  1
  Se  Se198  1  0.58447478  0.92023613  0.80844693  1
  Se  Se199  1  0.90669017  0.24053693  0.29799615  1
  Se  Se200  1  0.92349964  0.24826760  0.79887979  1
  Se  Se201  1  0.92283317  0.58857950  0.29937241  1
  Se  Se202  1  0.90364304  0.57423180  0.81172181  1
  Se  Se203  1  0.90740439  0.90934904  0.30740177  1
  Se  Se204  1  0.91374828  0.90896275  0.80684535  1
  Se  Se205  1  0.08995963  0.08990617  0.30973192  1
  Se  Se206  1  0.09720081  0.09077096  0.81257068  1
  Se  Se207  1  0.09004777  0.42127125  0.31431787  1
  Se  Se208  1  0.08530734  0.41620183  0.80496887  1
  Se  Se209  1  0.08847264  0.75091358  0.30573105  1
  Se  Se210  1  0.09166066  0.75823629  0.80980433  1
  Se  Se211  1  0.40851934  0.08257692  0.30324800  1
  Se  Se212  1  0.41196924  0.08196625  0.80948197  1
  Se  Se213  1  0.41448011  0.41218243  0.30736980  1
  Se  Se214  1  0.41036525  0.41602125  0.79653317  1
  Se  Se215  1  0.42957190  0.76943451  0.29264204  1
  Se  Se216  1  0.41180782  0.75979608  0.81347633  1
  Se  Se217  1  0.74474949  0.08677984  0.30047835  1
  Se  Se218  1  0.75030036  0.07853932  0.79923472  1
  Se  Se219  1  0.75119273  0.42780847  0.31325997  1
  Se  Se220  1  0.75311268  0.41963640  0.80394713  1
  Se  Se221  1  0.73923592  0.75184312  0.29828053  1
  Se  Se222  1  0.74405126  0.75494968  0.81465693  1
  Se  Se223  1  0.25301277  0.08125575  0.19347214  1
  Se  Se224  1  0.25141542  0.08160390  0.69764512  1
  Se  Se225  1  0.24922875  0.41465426  0.19963603  1
  Se  Se226  1  0.25615501  0.41768832  0.69702853  1
  Se  Se227  1  0.25221828  0.74709974  0.19640406  1
  Se  Se228  1  0.24198044  0.75636958  0.68894335  1
  Se  Se229  1  0.56554602  0.09146807  0.18721963  1
  Se  Se230  1  0.58064314  0.08004835  0.70242666  1
  Se  Se231  1  0.57459537  0.42305887  0.18652228  1
  Se  Se232  1  0.57774655  0.41894585  0.68324358  1
  Se  Se233  1  0.59330226  0.75374078  0.20321736  1
  Se  Se234  1  0.56729259  0.75932244  0.69458505  1
  Se  Se235  1  0.91368167  0.08170459  0.18638217  1
  Se  Se236  1  0.91367922  0.08774478  0.68615537  1
  Se  Se237  1  0.90626378  0.42592020  0.18954324  1
  Se  Se238  1  0.92338100  0.42088694  0.70503639  1
  Se  Se239  1  0.93487657  0.74744761  0.20496556  1
  Se  Se240  1  0.90680365  0.75402830  0.69428664  1
  Se  Se241  1  0.08824963  0.24149913  0.18887443  1
  Se  Se242  1  0.08907405  0.25384207  0.70028279  1
  Se  Se243  1  0.08708867  0.58353213  0.20099117  1
  Se  Se244  1  0.09527743  0.58460584  0.69067988  1
  Se  Se245  1  0.09473574  0.91542108  0.18251392  1
  Se  Se246  1  0.08893697  0.91190725  0.69017203  1
  Se  Se247  1  0.40892128  0.25760278  0.19819502  1
  Se  Se248  1  0.41783020  0.24979266  0.69748931  1
  Se  Se249  1  0.41423147  0.58566407  0.20260639  1
  Se  Se250  1  0.42280895  0.57730606  0.68293524  1
  Se  Se251  1  0.41447206  0.91758435  0.19255805  1
  Se  Se252  1  0.40628956  0.92035841  0.70204869  1
  Se  Se253  1  0.74334482  0.24557578  0.18447306  1
  Se  Se254  1  0.75837513  0.24041867  0.68617419  1
  Se  Se255  1  0.74552953  0.58784777  0.20287108  1
  Se  Se256  1  0.76157429  0.57148300  0.69372932  1
  Se  Se257  1  0.76124922  0.90943700  0.19192086  1
  Se  Se258  1  0.73989714  0.91388796  0.69828232  1
