# generated using pymatgen
data_In86Cu29Se144
_symmetry_space_group_name_H-M   'P 1'
_cell_length_a   17.57855874
_cell_length_b   17.57548490
_cell_length_c   23.43166020
_cell_angle_alpha   89.99496246
_cell_angle_beta   89.99112972
_cell_angle_gamma   89.99667162
_symmetry_Int_Tables_number   1
_chemical_formula_structural   In86Cu29Se144
_chemical_formula_sum   'In86 Cu29 Se144'
_cell_volume   7239.25097882
_cell_formula_units_Z   1
loop_
 _symmetry_equiv_pos_site_id
 _symmetry_equiv_pos_as_xyz
  1  'x, y, z'
loop_
 _atom_site_type_symbol
 _atom_site_label
 _atom_site_symmetry_multiplicity
 _atom_site_fract_x
 _atom_site_fract_y
 _atom_site_fract_z
 _atom_site_occupancy
  In  In0  1  0.00600483  0.15975242  0.13613376  1
  In  In1  1  0.00330470  0.18103661  0.62436831  1
  In  In2  1  0.00638493  0.48371040  0.13295009  1
  In  In3  1  -0.00035770  0.50056834  0.62141519  1
  In  In4  1  0.01695586  0.83271294  0.12505201  1
  In  In5  1  -0.00178655  0.82118771  0.62394467  1
  In  In6  1  0.33120421  0.15034584  0.11577354  1
  In  In7  1  0.33550067  0.16471264  0.62654843  1
  In  In8  1  0.33531929  0.50918789  0.11970676  1
  In  In9  1  0.33394869  0.50396986  0.61477707  1
  In  In10  1  0.33076799  0.83520366  0.11427624  1
  In  In11  1  0.32806041  0.84216222  0.62421963  1
  In  In12  1  0.65791000  0.16433606  0.12992418  1
  In  In13  1  0.66877467  0.14942457  0.62510057  1
  In  In14  1  0.64841849  0.50832565  0.13954702  1
  In  In15  1  0.67536901  0.50306299  0.61704188  1
  In  In16  1  0.64100887  0.85327736  0.13476118  1
  In  In17  1  0.66672618  0.83361654  0.63418409  1
  In  In18  1  0.16082177  -0.00583665  0.36531518  1
  In  In19  1  0.18411729  -0.01354475  0.89919244  1
  In  In20  1  0.16245417  0.35739683  0.36589024  1
  In  In21  1  0.16611536  0.33779490  0.87759516  1
  In  In22  1  0.17403422  0.65905460  0.37415024  1
  In  In23  1  0.16588700  0.66956017  0.87991765  1
  In  In24  1  0.50410542  0.01625048  0.35277539  1
  In  In25  1  0.50893085  -0.00295936  0.89324167  1
  In  In26  1  0.51836242  0.33563033  0.36619583  1
  In  In27  1  0.49838482  0.34009789  0.88870623  1
  In  In28  1  0.48837056  0.66090091  0.36711712  1
  In  In29  1  0.50658330  0.66234976  0.88458614  1
  In  In30  1  0.84635967  0.01307442  0.37051667  1
  In  In31  1  0.82718054  0.01458166  0.87339559  1
  In  In32  1  0.83324750  0.33352549  0.37653096  1
  In  In33  1  0.84392040  0.32241724  0.86938470  1
  In  In34  1  0.81925679  0.66751122  0.37508435  1
  In  In35  1  0.82987220  0.66318639  0.86346177  1
  In  In36  1  -0.01218175  0.15773493  0.37111358  1
  In  In37  1  0.00348911  0.17348980  0.87092218  1
  In  In38  1  0.00894705  0.49139157  0.37674040  1
  In  In39  1  0.00578974  0.50494908  0.86281738  1
  In  In40  1  0.00748425  0.85372095  0.37587239  1
  In  In41  1  0.01148284  0.82668155  0.87538584  1
  In  In42  1  0.34885354  0.16327011  0.36265118  1
  In  In43  1  0.34258713  0.15638115  0.89714118  1
  In  In44  1  0.32238117  0.51348067  0.37577062  1
  In  In45  1  0.33150167  0.51053947  0.89471744  1
  In  In46  1  0.32542030  0.82861361  0.36391547  1
  In  In47  1  0.34847235  0.82394379  0.91108481  1
  In  In48  1  0.67282785  0.17765625  0.36421326  1
  In  In49  1  0.66282839  0.16256015  0.87257583  1
  In  In50  1  0.66543747  0.50011888  0.37702744  1
  In  In51  1  0.65644320  0.50812713  0.87782444  1
  In  In52  1  0.66076951  0.82860861  0.36393685  1
  In  In53  1  0.66719410  0.83314089  0.87546041  1
  In  In54  1  0.16925640  -0.00163560  0.12497325  1
  In  In55  1  0.17943263  -0.00502650  0.61878861  1
  In  In56  1  0.16446632  0.33040820  0.12403633  1
  In  In57  1  0.15274245  0.33138882  0.62366673  1
  In  In58  1  0.18203769  0.67354839  0.11106168  1
  In  In59  1  0.16009600  0.65751248  0.61758901  1
  In  In60  1  0.50317519  -0.00558390  0.11380652  1
  In  In61  1  0.51542467  0.00727268  0.62688897  1
  In  In62  1  0.50386134  0.33801560  0.12439432  1
  In  In63  1  0.49024440  0.33604922  0.62387466  1
  In  In64  1  0.49084390  0.67352095  0.12155447  1
  In  In65  1  0.51190805  0.66598524  0.62849065  1
  In  In66  1  0.82454487  0.00786376  0.13512685  1
  In  In67  1  0.82131869  -0.00895194  0.62025150  1
  In  In68  1  0.83074296  0.32487316  0.13626254  1
  In  In69  1  0.84317719  0.34361483  0.61387861  1
  In  In70  1  0.82754257  0.65477850  0.12984134  1
  In  In71  1  0.84126592  0.66327463  0.62983341  1
  In  In72  1  0.67182144  0.33997656  0.75233795  1
  In  In73  1  0.49033308  0.82851612  0.49467897  1
  In  In74  1  0.33434633  0.66896930  0.76446887  1
  In  In75  1  0.83217017  0.83310763  0.00176950  1
  In  In76  1  0.16346556  0.16797443  0.49486506  1
  In  In77  1  0.50262594  0.16922261  0.49970259  1
  In  In78  1  0.33896934  -0.00708580  0.77171337  1
  In  In79  1  0.82920635  0.17062453  0.00383906  1
  In  In80  1  0.33602313  0.32864154  0.23910803  1
  In  In81  1  0.00055057  -0.00193938  0.75218589  1
  In  In82  1  0.83225840  0.49661695  0.00289993  1
  In  In83  1  0.33572867  0.33131786  0.75329298  1
  In  In84  1  0.83838268  0.83226530  0.49868880  1
  In  In85  1  0.00288389  0.66582909  0.25071363  1
  Cu  Cu86  1  0.16312783  0.17037000  0.24602795  1
  Cu  Cu87  1  0.50200780  0.50522442  0.75663621  1
  Cu  Cu88  1  0.83522944  0.50109919  0.74050238  1
  Cu  Cu89  1  0.33051695  0.66415838  0.49203041  1
  Cu  Cu90  1  0.49883427  0.49969271  0.24910172  1
  Cu  Cu91  1  0.33103862  -0.00844696  0.49139530  1
  Cu  Cu92  1  -0.00050129  0.33703436  0.49658410  1
  Cu  Cu93  1  0.17210195  0.83672782  0.24182402  1
  Cu  Cu94  1  0.00393948  -0.00008134  0.00667006  1
  Cu  Cu95  1  0.83501215  0.16925178  0.74504262  1
  Cu  Cu96  1  0.66037938  0.67415287  0.00758551  1
  Cu  Cu97  1  0.67264782  -0.00153846  0.49511064  1
  Cu  Cu98  1  0.82596230  0.49364833  0.25385448  1
  Cu  Cu99  1  0.66245461  0.34064472  0.00641345  1
  Cu  Cu100  1  0.16673759  0.82664137  0.75550281  1
  Cu  Cu101  1  0.00670216  0.65931053  -0.00279801  1
  Cu  Cu102  1  0.82709205  0.83501180  0.74907102  1
  Cu  Cu103  1  0.33309130  0.34196271  0.49463902  1
  Cu  Cu104  1  0.66935458  0.33296751  0.49316394  1
  Cu  Cu105  1  0.66554316  0.65768309  0.50101235  1
  Cu  Cu106  1  0.49296344  0.83033173  0.24186940  1
  Cu  Cu107  1  0.83136767  0.83295731  0.25315237  1
  Cu  Cu108  1  0.17030783  0.16165302  0.75616361  1
  Cu  Cu109  1  0.82795468  0.16823117  0.25342667  1
  Cu  Cu110  1  0.50584247  0.84341579  0.75895788  1
  Cu  Cu111  1  0.33524369  0.33263851  0.00861312  1
  Cu  Cu112  1  0.00778439  0.33429768  0.00041449  1
  Cu  Cu113  1  0.00085219  0.66450394  0.50057676  1
  Cu  Cu114  1  0.15858867  0.49395439  0.74702296  1
  Se  Se115  1  0.08270625  0.08716911  0.05943941  1
  Se  Se116  1  0.08117616  0.07952632  0.56169447  1
  Se  Se117  1  0.08713624  0.41960352  0.05388942  1
  Se  Se118  1  0.08443093  0.41820471  0.55134044  1
  Se  Se119  1  0.08302035  0.74949751  0.04915283  1
  Se  Se120  1  0.08413109  0.75057508  0.55159346  1
  Se  Se121  1  0.40823568  0.06655479  0.04465173  1
  Se  Se122  1  0.41022782  0.06977436  0.55536013  1
  Se  Se123  1  0.42009927  0.41935375  0.05656003  1
  Se  Se124  1  0.42002295  0.41919346  0.55024217  1
  Se  Se125  1  0.41761497  0.75419883  0.04672115  1
  Se  Se126  1  0.40623252  0.73893664  0.56158321  1
  Se  Se127  1  0.74086513  0.07498845  0.05625218  1
  Se  Se128  1  0.75324476  0.08280091  0.54903408  1
  Se  Se129  1  0.74357589  0.41507986  0.06904400  1
  Se  Se130  1  0.75190837  0.41815456  0.54731045  1
  Se  Se131  1  0.74478538  0.74858735  0.06753389  1
  Se  Se132  1  0.74249038  0.74580396  0.55929870  1
  Se  Se133  1  0.24960247  0.24792134  0.05749849  1
  Se  Se134  1  0.25857011  0.25730969  0.55691570  1
  Se  Se135  1  0.24687674  0.57478765  0.04534379  1
  Se  Se136  1  0.24666379  0.58139258  0.54784041  1
  Se  Se137  1  0.23184593  0.90797230  0.05159340  1
  Se  Se138  1  0.24902962  0.90878448  0.54522065  1
  Se  Se139  1  0.58512228  0.25003353  0.05700107  1
  Se  Se140  1  0.59392029  0.25766991  0.56186193  1
  Se  Se141  1  0.58195986  0.58460934  0.05935589  1
  Se  Se142  1  0.57760131  0.57954619  0.55456035  1
  Se  Se143  1  0.58176707  0.90642803  0.04421631  1
  Se  Se144  1  0.58971167  0.91665520  0.55347821  1
  Se  Se145  1  0.92498158  0.25711429  0.06125295  1
  Se  Se146  1  0.91954618  0.24924060  0.54913514  1
  Se  Se147  1  0.92678426  0.58492657  0.06127684  1
  Se  Se148  1  0.91429694  0.58469445  0.55379491  1
  Se  Se149  1  0.91862550  0.92411573  0.06510230  1
  Se  Se150  1  0.92772688  0.92329505  0.55841666  1
  Se  Se151  1  0.07953277  0.26017888  0.43300961  1
  Se  Se152  1  0.08415471  0.24862509  0.94406912  1
  Se  Se153  1  0.08358725  0.58490179  0.44267773  1
  Se  Se154  1  0.08370887  0.57408137  0.94094255  1
  Se  Se155  1  0.09020155  0.92615381  0.44735624  1
  Se  Se156  1  0.07782621  0.91022640  0.95127252  1
  Se  Se157  1  0.41257910  0.25824092  0.43823564  1
  Se  Se158  1  0.42307746  0.25164760  0.95676939  1
  Se  Se159  1  0.41924929  0.58081531  0.44499004  1
  Se  Se160  1  0.42336043  0.58813996  0.95524702  1
  Se  Se161  1  0.41813108  0.92465360  0.42860202  1
  Se  Se162  1  0.39023620  0.95349510  0.95179504  1
  Se  Se163  1  0.75030163  0.24476600  0.44365783  1
  Se  Se164  1  0.74359183  0.26588497  0.94226562  1
  Se  Se165  1  0.75253007  0.57920879  0.44788323  1
  Se  Se166  1  0.74539326  0.59663644  0.94714553  1
  Se  Se167  1  0.74660773  0.91478124  0.43425044  1
  Se  Se168  1  0.74698437  0.92898204  0.94382350  1
  Se  Se169  1  0.25983060  0.08411967  0.43548281  1
  Se  Se170  1  0.22622825  0.10597199  0.95197600  1
  Se  Se171  1  0.24562712  0.42201604  0.44350626  1
  Se  Se172  1  0.25208268  0.41058378  0.94973267  1
  Se  Se173  1  0.25061613  0.75205770  0.44099947  1
  Se  Se174  1  0.25329611  0.73200069  0.95532499  1
  Se  Se175  1  0.58736483  0.07720562  0.43807851  1
  Se  Se176  1  0.58891734  0.09498771  0.95074962  1
  Se  Se177  1  0.58063088  0.41586879  0.44605877  1
  Se  Se178  1  0.58390873  0.42741026  0.95201577  1
  Se  Se179  1  0.58785362  0.74025882  0.44067153  1
  Se  Se180  1  0.58451096  0.75736584  0.94834383  1
  Se  Se181  1  0.92043364  0.08082394  0.45004532  1
  Se  Se182  1  0.92590121  0.07998292  0.94457607  1
  Se  Se183  1  0.91476722  0.42056684  0.44411465  1
  Se  Se184  1  0.92373815  0.41062913  0.94011198  1
  Se  Se185  1  0.92680635  0.74422054  0.43472247  1
  Se  Se186  1  0.91825144  0.73714927  0.94097914  1
  Se  Se187  1  0.24316789  0.24879497  0.30908917  1
  Se  Se188  1  0.25389490  0.23851264  0.81577544  1
  Se  Se189  1  0.25579626  0.59171639  0.29825181  1
  Se  Se190  1  0.24234937  0.56759573  0.81027888  1
  Se  Se191  1  0.25278630  0.92237796  0.29690679  1
  Se  Se192  1  0.24838347  0.89397682  0.82163739  1
  Se  Se193  1  0.55350901  0.21856409  0.30715160  1
  Se  Se194  1  0.57573936  0.25761073  0.81133654  1
  Se  Se195  1  0.58258177  0.58112815  0.30558360  1
  Se  Se196  1  0.58529845  0.59330438  0.80457479  1
  Se  Se197  1  0.57775683  0.91166731  0.29730090  1
  Se  Se198  1  0.58547004  0.92704238  0.81326689  1
  Se  Se199  1  0.91425454  0.25145192  0.30489381  1
  Se  Se200  1  0.92410234  0.24873348  0.79516665  1
  Se  Se201  1  0.90864470  0.57849972  0.31024055  1
  Se  Se202  1  0.91734198  0.58463012  0.79683494  1
  Se  Se203  1  0.91693634  0.91718535  0.30279049  1
  Se  Se204  1  0.90824606  0.90946395  0.81386151  1
  Se  Se205  1  0.08159713  0.08723199  0.30257734  1
  Se  Se206  1  0.09630981  0.07479614  0.81618226  1
  Se  Se207  1  0.08014992  0.42828521  0.29285362  1
  Se  Se208  1  0.08159758  0.40614487  0.80121576  1
  Se  Se209  1  0.09128175  0.76148044  0.30772843  1
  Se  Se210  1  0.08209996  0.73959572  0.80344661  1
  Se  Se211  1  0.40018874  0.07149643  0.28750478  1
  Se  Se212  1  0.42817774  0.09255786  0.81748452  1
  Se  Se213  1  0.41601252  0.41919547  0.30921903  1
  Se  Se214  1  0.41793485  0.42845999  0.81492485  1
  Se  Se215  1  0.41215393  0.74693798  0.29804210  1
  Se  Se216  1  0.42318207  0.76562488  0.81920848  1
  Se  Se217  1  0.74720654  0.07780910  0.30401455  1
  Se  Se218  1  0.74939862  0.09088934  0.79929036  1
  Se  Se219  1  0.74263094  0.41083185  0.30825173  1
  Se  Se220  1  0.76206065  0.43027075  0.81399281  1
  Se  Se221  1  0.74645892  0.74456976  0.29844618  1
  Se  Se222  1  0.74393915  0.75079178  0.80235331  1
  Se  Se223  1  0.24696052  0.08630276  0.19458671  1
  Se  Se224  1  0.25147307  0.08008049  0.69854610  1
  Se  Se225  1  0.24560489  0.42579850  0.18959623  1
  Se  Se226  1  0.24770577  0.42044319  0.68858086  1
  Se  Se227  1  0.25276147  0.75130417  0.18895507  1
  Se  Se228  1  0.24847574  0.75009718  0.69248665  1
  Se  Se229  1  0.59259324  0.05944872  0.18834556  1
  Se  Se230  1  0.58301202  0.08891390  0.70092624  1
  Se  Se231  1  0.58196097  0.40736120  0.20441510  1
  Se  Se232  1  0.57619057  0.42529154  0.69189580  1
  Se  Se233  1  0.58122246  0.74393415  0.19464057  1
  Se  Se234  1  0.57864907  0.75467300  0.70104183  1
  Se  Se235  1  0.91389924  0.08424518  0.20194581  1
  Se  Se236  1  0.91327005  0.08404770  0.68640517  1
  Se  Se237  1  0.91229836  0.41430864  0.20039441  1
  Se  Se238  1  0.91966222  0.41465134  0.69215756  1
  Se  Se239  1  0.91192164  0.75654886  0.18907656  1
  Se  Se240  1  0.91551788  0.75327342  0.69917368  1
  Se  Se241  1  0.07956843  0.25848272  0.19850323  1
  Se  Se242  1  0.09043415  0.24464570  0.70038392  1
  Se  Se243  1  0.09111255  0.58758800  0.18376587  1
  Se  Se244  1  0.08206532  0.58273212  0.69300780  1
  Se  Se245  1  0.08147442  0.92194498  0.19797136  1
  Se  Se246  1  0.09515873  0.91008262  0.69189351  1
  Se  Se247  1  0.42334194  0.23455887  0.18340291  1
  Se  Se248  1  0.42837480  0.23731904  0.69624621  1
  Se  Se249  1  0.41781942  0.58306557  0.19380655  1
  Se  Se250  1  0.41660323  0.57996330  0.69514691  1
  Se  Se251  1  0.41603800  0.91469525  0.18457721  1
  Se  Se252  1  0.42385705  0.91506850  0.69371832  1
  Se  Se253  1  0.73987309  0.24722120  0.20048536  1
  Se  Se254  1  0.75546840  0.25183766  0.68543553  1
  Se  Se255  1  0.74559106  0.58211097  0.20317458  1
  Se  Se256  1  0.74624161  0.58440364  0.69305491  1
  Se  Se257  1  0.74724192  0.91454930  0.19819064  1
  Se  Se258  1  0.74528983  0.92353789  0.70023315  1
