# generated using pymatgen
data_In86Cu29Se144
_symmetry_space_group_name_H-M   'P 1'
_cell_length_a   17.58526668
_cell_length_b   17.58065034
_cell_length_c   23.44569018
_cell_angle_alpha   90.00144634
_cell_angle_beta   90.00729284
_cell_angle_gamma   89.97355796
_symmetry_Int_Tables_number   1
_chemical_formula_structural   In86Cu29Se144
_chemical_formula_sum   'In86 Cu29 Se144'
_cell_volume   7248.47869982
_cell_formula_units_Z   1
loop_
 _symmetry_equiv_pos_site_id
 _symmetry_equiv_pos_as_xyz
  1  'x, y, z'
loop_
 _atom_site_type_symbol
 _atom_site_label
 _atom_site_symmetry_multiplicity
 _atom_site_fract_x
 _atom_site_fract_y
 _atom_site_fract_z
 _atom_site_occupancy
  In  In0  1  -0.00014854  0.15056801  0.12502518  1
  In  In1  1  0.01361076  0.17112927  0.63125816  1
  In  In2  1  0.00630752  0.50985179  0.12079787  1
  In  In3  1  0.00220225  0.50346324  0.62879994  1
  In  In4  1  0.00067846  0.82888510  0.12462891  1
  In  In5  1  -0.01103790  0.82074906  0.61617609  1
  In  In6  1  0.32119692  0.16025254  0.12174748  1
  In  In7  1  0.32691618  0.15351996  0.62921146  1
  In  In8  1  0.33785448  0.51234697  0.12184681  1
  In  In9  1  0.34064315  0.50603718  0.60987313  1
  In  In10  1  0.31664569  0.84645016  0.13804605  1
  In  In11  1  0.33964800  0.83737814  0.61669715  1
  In  In12  1  0.65736189  0.16201426  0.12389505  1
  In  In13  1  0.65406217  0.15688317  0.62706328  1
  In  In14  1  0.66522307  0.50573895  0.11926946  1
  In  In15  1  0.69453106  0.53901195  0.59549858  1
  In  In16  1  0.67819016  0.82676160  0.12532452  1
  In  In17  1  0.66642370  0.82172525  0.62552781  1
  In  In18  1  0.15842379  -0.01017041  0.36580061  1
  In  In19  1  0.18089237  -0.01006732  0.89246424  1
  In  In20  1  0.16761641  0.34146022  0.38272619  1
  In  In21  1  0.15963312  0.34436010  0.88203809  1
  In  In22  1  0.16561337  0.66847478  0.37260508  1
  In  In23  1  0.15933346  0.67465631  0.88070219  1
  In  In24  1  0.47946451  -0.04154443  0.34557918  1
  In  In25  1  0.49819793  -0.00920060  0.86739646  1
  In  In26  1  0.49585327  0.33940596  0.38055960  1
  In  In27  1  0.50745845  0.34905559  0.87379842  1
  In  In28  1  0.49227432  0.67854354  0.38010850  1
  In  In29  1  0.49205341  0.66541414  0.87017626  1
  In  In30  1  0.81815774  -0.01914210  0.36747003  1
  In  In31  1  0.82285608  -0.00140246  0.87415677  1
  In  In32  1  0.83420268  0.35910226  0.38003986  1
  In  In33  1  0.84888295  0.33359240  0.86905979  1
  In  In34  1  0.83862075  0.65983889  0.38355543  1
  In  In35  1  0.83594342  0.66782772  0.87472120  1
  In  In36  1  0.00863880  0.16214256  0.37274584  1
  In  In37  1  0.00239667  0.17928037  0.87368559  1
  In  In38  1  -0.01170941  0.50873800  0.38598702  1
  In  In39  1  -0.00086162  0.50280840  0.87362330  1
  In  In40  1  0.00165356  0.82941778  0.37402277  1
  In  In41  1  0.00944853  0.82468497  0.87918827  1
  In  In42  1  0.34245470  0.15422803  0.37021573  1
  In  In43  1  0.33228879  0.15259704  0.88097559  1
  In  In44  1  0.32419905  0.50596764  0.37818883  1
  In  In45  1  0.33521881  0.50370220  0.88145089  1
  In  In46  1  0.32897970  0.82952861  0.37290948  1
  In  In47  1  0.32821190  0.83023247  0.87482544  1
  In  In48  1  0.66851780  0.15097606  0.37599618  1
  In  In49  1  0.67397292  0.15815177  0.87170308  1
  In  In50  1  0.65420299  0.52886861  0.39498883  1
  In  In51  1  0.66034472  0.51812940  0.87698565  1
  In  In52  1  0.65482994  0.82971676  0.39253133  1
  In  In53  1  0.67619150  0.84048570  0.87081951  1
  In  In54  1  0.16703127  -0.00929969  0.12091573  1
  In  In55  1  0.18020925  -0.00111849  0.62552632  1
  In  In56  1  0.16635722  0.33650262  0.11620680  1
  In  In57  1  0.15837293  0.33782754  0.62553433  1
  In  In58  1  0.16426820  0.66763833  0.12606569  1
  In  In59  1  0.15574279  0.65726501  0.62001248  1
  In  In60  1  0.49516479  -0.00329094  0.13507798  1
  In  In61  1  0.51291779  -0.02746149  0.64280588  1
  In  In62  1  0.48835224  0.34356590  0.12639440  1
  In  In63  1  0.50156512  0.35519691  0.62111835  1
  In  In64  1  0.49570372  0.65793018  0.13212407  1
  In  In65  1  0.52128910  0.68452224  0.60241441  1
  In  In66  1  0.84586082  -0.00838389  0.13171031  1
  In  In67  1  0.83035661  -0.02370905  0.62073828  1
  In  In68  1  0.82556554  0.34527896  0.12220040  1
  In  In69  1  0.83829540  0.34974944  0.62583494  1
  In  In70  1  0.83963808  0.67594718  0.11899554  1
  In  In71  1  0.83780441  0.67448734  0.62763638  1
  In  In72  1  0.49435174  0.82867122  0.00271635  1
  In  In73  1  0.33318307  0.33022584  0.74130495  1
  In  In74  1  0.33767217  0.67493564  0.74712116  1
  In  In75  1  0.00299083  0.00002092  0.74933876  1
  In  In76  1  0.66982946  0.33323748  0.74895811  1
  In  In77  1  -0.00178624  0.33237031  0.25651428  1
  In  In78  1  0.16854623  0.16879406  0.50170990  1
  In  In79  1  0.66042554  0.67606737  0.25899210  1
  In  In80  1  0.66641132  0.33437144  0.24877053  1
  In  In81  1  0.49659789  0.17218930  0.00703644  1
  In  In82  1  0.83748561  0.16810068  0.50248882  1
  In  In83  1  0.49872983  0.15912162  0.49766680  1
  In  In84  1  0.83725723  0.16881653  -0.00644569  1
  In  In85  1  0.32961026  0.32924032  0.25538175  1
  Cu  Cu86  1  0.50434685  0.15720161  0.25112461  1
  Cu  Cu87  1  -0.00182341  0.66408636  -0.00041453  1
  Cu  Cu88  1  0.16494454  0.83180940  0.75290560  1
  Cu  Cu89  1  0.32724730  0.67125670  0.49555652  1
  Cu  Cu90  1  0.83068274  0.82734548  0.74875955  1
  Cu  Cu91  1  -0.00104705  -0.00526247  0.49284208  1
  Cu  Cu92  1  0.16317429  0.50275503  0.75216418  1
  Cu  Cu93  1  0.66784219  0.33840004  0.49838445  1
  Cu  Cu94  1  0.33708671  -0.00580047  0.49850487  1
  Cu  Cu95  1  0.49506753  0.15806852  0.75032936  1
  Cu  Cu96  1  0.00356297  -0.00687987  0.00543941  1
  Cu  Cu97  1  0.83986202  0.82999413  0.24883457  1
  Cu  Cu98  1  0.66810425  0.35234583  -0.00392972  1
  Cu  Cu99  1  0.83131992  0.51043223  0.25315950  1
  Cu  Cu100  1  0.66956904  0.66788805  -0.00009297  1
  Cu  Cu101  1  0.66910698  -0.00255797  -0.00163280  1
  Cu  Cu102  1  -0.00071415  0.33766713  -0.00245780  1
  Cu  Cu103  1  0.83522962  0.16268558  0.75011950  1
  Cu  Cu104  1  0.83538549  0.16073567  0.25294455  1
  Cu  Cu105  1  0.33402425  0.34108837  0.00021928  1
  Cu  Cu106  1  0.65953269  -0.01034171  0.49990497  1
  Cu  Cu107  1  0.50502029  0.50989480  0.74424606  1
  Cu  Cu108  1  0.32700162  0.66516043  0.00295021  1
  Cu  Cu109  1  0.00601733  0.66704824  0.49998368  1
  Cu  Cu110  1  0.16911300  0.16771094  0.75564481  1
  Cu  Cu111  1  0.16876696  0.50943327  0.24998790  1
  Cu  Cu112  1  0.16481200  0.15679957  0.24539225  1
  Cu  Cu113  1  0.83499597  0.50754121  0.74676510  1
  Cu  Cu114  1  0.16331504  0.82885541  0.24822710  1
  Se  Se115  1  0.08596880  0.08193849  0.05336878  1
  Se  Se116  1  0.07552010  0.07278756  0.55749170  1
  Se  Se117  1  0.08181215  0.42108454  0.05187403  1
  Se  Se118  1  0.08478537  0.42363214  0.55782144  1
  Se  Se119  1  0.08218502  0.74712889  0.05400397  1
  Se  Se120  1  0.08877343  0.75392369  0.55138862  1
  Se  Se121  1  0.41125165  0.07133540  0.05765826  1
  Se  Se122  1  0.41559142  0.06980700  0.56295602  1
  Se  Se123  1  0.41781262  0.42478578  0.05221595  1
  Se  Se124  1  0.40537281  0.40253644  0.54805526  1
  Se  Se125  1  0.40534174  0.74431647  0.06567778  1
  Se  Se126  1  0.41604890  0.75429719  0.54483442  1
  Se  Se127  1  0.74960890  0.08047621  0.05775422  1
  Se  Se128  1  0.74004975  0.07489830  0.55654177  1
  Se  Se129  1  0.75479904  0.43007399  0.05018427  1
  Se  Se130  1  0.75532814  0.41712148  0.55059227  1
  Se  Se131  1  0.75416494  0.75387557  0.04846936  1
  Se  Se132  1  0.75073961  0.74589729  0.55564618  1
  Se  Se133  1  0.25452006  0.25370437  0.05244948  1
  Se  Se134  1  0.25880737  0.25445486  0.56368860  1
  Se  Se135  1  0.24269367  0.58082679  0.05478882  1
  Se  Se136  1  0.24668329  0.58616608  0.54992550  1
  Se  Se137  1  0.25178261  0.90976233  0.05294567  1
  Se  Se138  1  0.24717247  0.91522378  0.54988459  1
  Se  Se139  1  0.59321811  0.26915574  0.05856031  1
  Se  Se140  1  0.58886825  0.25580085  0.55705117  1
  Se  Se141  1  0.58099062  0.59228685  0.05504131  1
  Se  Se142  1  0.55659341  0.55328368  0.56112181  1
  Se  Se143  1  0.58826023  0.92134275  0.06042343  1
  Se  Se144  1  0.57941444  0.90848084  0.55750981  1
  Se  Se145  1  0.92218713  0.25712584  0.06141024  1
  Se  Se146  1  0.92744123  0.25566461  0.56274383  1
  Se  Se147  1  0.91340247  0.58144643  0.05304322  1
  Se  Se148  1  0.92292215  0.59008833  0.55991696  1
  Se  Se149  1  0.91506335  0.91205874  0.05483337  1
  Se  Se150  1  0.91565460  0.91124302  0.54617088  1
  Se  Se151  1  0.07162660  0.25687597  0.44559110  1
  Se  Se152  1  0.08346993  0.25094922  0.94852773  1
  Se  Se153  1  0.08812381  0.58381167  0.44498255  1
  Se  Se154  1  0.08271442  0.58184975  0.94514951  1
  Se  Se155  1  0.08688817  0.91317970  0.44324016  1
  Se  Se156  1  0.08529242  0.90914652  0.95070124  1
  Se  Se157  1  0.40383513  0.25102329  0.44249639  1
  Se  Se158  1  0.41473725  0.26220322  0.93808071  1
  Se  Se159  1  0.41205987  0.58727056  0.44435204  1
  Se  Se160  1  0.41708041  0.59053180  0.94724308  1
  Se  Se161  1  0.41829277  0.91357920  0.44033069  1
  Se  Se162  1  0.40967014  0.92404357  0.94370807  1
  Se  Se163  1  0.74399330  0.25454745  0.43862893  1
  Se  Se164  1  0.74107794  0.26240838  0.93815111  1
  Se  Se165  1  0.76280636  0.57791854  0.45720905  1
  Se  Se166  1  0.75372778  0.58521609  0.94604408  1
  Se  Se167  1  0.75264350  0.91096403  0.45138003  1
  Se  Se168  1  0.75441791  0.91409566  0.94869043  1
  Se  Se169  1  0.25429069  0.07433649  0.44005094  1
  Se  Se170  1  0.24347777  0.09396536  0.95483210  1
  Se  Se171  1  0.25775341  0.41250006  0.44842998  1
  Se  Se172  1  0.24884506  0.42362426  0.94777117  1
  Se  Se173  1  0.24294305  0.75450786  0.44366594  1
  Se  Se174  1  0.24960077  0.75165138  0.94749710  1
  Se  Se175  1  0.57921000  0.06403722  0.43673018  1
  Se  Se176  1  0.58570415  0.08058758  0.94372492  1
  Se  Se177  1  0.58126610  0.41921714  0.44719609  1
  Se  Se178  1  0.57868445  0.43228510  0.94623477  1
  Se  Se179  1  0.60382858  0.71497377  0.44833939  1
  Se  Se180  1  0.58777956  0.74721450  0.93869578  1
  Se  Se181  1  0.91651006  0.07547862  0.43584357  1
  Se  Se182  1  0.92810188  0.07296305  0.93872234  1
  Se  Se183  1  0.92574128  0.41075571  0.45387930  1
  Se  Se184  1  0.91492676  0.41834564  0.94369654  1
  Se  Se185  1  0.92114568  0.74990106  0.44672574  1
  Se  Se186  1  0.91720845  0.75023715  0.94575635  1
  Se  Se187  1  0.23572406  0.23715201  0.31244153  1
  Se  Se188  1  0.25030046  0.25066326  0.81365220  1
  Se  Se189  1  0.25429675  0.58925353  0.30314792  1
  Se  Se190  1  0.24842265  0.58288349  0.80910565  1
  Se  Se191  1  0.24865594  0.91298309  0.30033459  1
  Se  Se192  1  0.24388569  0.91538079  0.80846838  1
  Se  Se193  1  0.57628256  0.24302542  0.31150143  1
  Se  Se194  1  0.57424612  0.24246622  0.80895861  1
  Se  Se195  1  0.57116022  0.57794630  0.30979296  1
  Se  Se196  1  0.58330925  0.59285729  0.80104968  1
  Se  Se197  1  0.60911572  0.91476849  0.30935680  1
  Se  Se198  1  0.59336580  0.92262601  0.80367747  1
  Se  Se199  1  0.90162704  0.24659240  0.31624859  1
  Se  Se200  1  0.92097958  0.24836185  0.79665722  1
  Se  Se201  1  0.91935880  0.58650144  0.30704532  1
  Se  Se202  1  0.91873592  0.58666653  0.80392241  1
  Se  Se203  1  0.92038457  0.91581760  0.30421361  1
  Se  Se204  1  0.91240328  0.90989369  0.80891130  1
  Se  Se205  1  0.07766675  0.07806835  0.29909141  1
  Se  Se206  1  0.09108837  0.08349797  0.81516924  1
  Se  Se207  1  0.08890966  0.42725314  0.31024720  1
  Se  Se208  1  0.08225868  0.41638801  0.80487792  1
  Se  Se209  1  0.07976244  0.74623265  0.30202795  1
  Se  Se210  1  0.08158822  0.74580077  0.80223112  1
  Se  Se211  1  0.41244951  0.07382313  0.29536415  1
  Se  Se212  1  0.41145204  0.07994498  0.80600129  1
  Se  Se213  1  0.42038479  0.42328198  0.30762229  1
  Se  Se214  1  0.42110979  0.42831474  0.80090885  1
  Se  Se215  1  0.43253334  0.76882717  0.30660459  1
  Se  Se216  1  0.42833679  0.76903491  0.80301886  1
  Se  Se217  1  0.74713456  0.07769487  0.30104841  1
  Se  Se218  1  0.74954052  0.07852412  0.79823457  1
  Se  Se219  1  0.74469558  0.43344321  0.31011610  1
  Se  Se220  1  0.75563739  0.42655675  0.81007143  1
  Se  Se221  1  0.76071541  0.75644603  0.31522024  1
  Se  Se222  1  0.74847228  0.74575596  0.80468057  1
  Se  Se223  1  0.24911915  0.07531013  0.19314146  1
  Se  Se224  1  0.24794331  0.07943946  0.70401692  1
  Se  Se225  1  0.24284572  0.41935128  0.19225774  1
  Se  Se226  1  0.24837014  0.43202525  0.68972875  1
  Se  Se227  1  0.24920012  0.74285117  0.19870234  1
  Se  Se228  1  0.24077106  0.75495952  0.68612793  1
  Se  Se229  1  0.58951989  0.07730503  0.19720753  1
  Se  Se230  1  0.58504219  0.07607821  0.70219778  1
  Se  Se231  1  0.57631238  0.42749766  0.19320185  1
  Se  Se232  1  0.59134730  0.43058425  0.68920563  1
  Se  Se233  1  0.57568305  0.76109533  0.19114343  1
  Se  Se234  1  0.57422814  0.74628652  0.69222769  1
  Se  Se235  1  0.92145204  0.07984369  0.20127475  1
  Se  Se236  1  0.90973625  0.08323429  0.68432566  1
  Se  Se237  1  0.90976832  0.42466548  0.19516899  1
  Se  Se238  1  0.91991357  0.41919002  0.70057543  1
  Se  Se239  1  0.92030258  0.74446012  0.19595645  1
  Se  Se240  1  0.92368351  0.75040479  0.69989935  1
  Se  Se241  1  0.08728403  0.24635950  0.19060800  1
  Se  Se242  1  0.08977470  0.25357286  0.70239293  1
  Se  Se243  1  0.07933135  0.58636084  0.19717106  1
  Se  Se244  1  0.08107917  0.58861524  0.70041102  1
  Se  Se245  1  0.08236998  0.91427298  0.19287728  1
  Se  Se246  1  0.08680353  0.90883558  0.68676809  1
  Se  Se247  1  0.42224682  0.23919361  0.19207612  1
  Se  Se248  1  0.43076504  0.24267459  0.68481777  1
  Se  Se249  1  0.41289835  0.57855152  0.20098748  1
  Se  Se250  1  0.42187279  0.58550708  0.68377162  1
  Se  Se251  1  0.42094620  0.90769195  0.20092322  1
  Se  Se252  1  0.39396336  0.92531659  0.69507390  1
  Se  Se253  1  0.75942917  0.24106949  0.18991167  1
  Se  Se254  1  0.75683513  0.24136826  0.68588003  1
  Se  Se255  1  0.75005836  0.58806070  0.19226340  1
  Se  Se256  1  0.74924269  0.58603387  0.69162752  1
  Se  Se257  1  0.75427173  0.91223717  0.19573513  1
  Se  Se258  1  0.74717941  0.91060565  0.69576277  1
