# generated using pymatgen
data_In86Cu29Se144
_symmetry_space_group_name_H-M   'P 1'
_cell_length_a   17.68135748
_cell_length_b   17.67496075
_cell_length_c   23.55033200
_cell_angle_alpha   89.94828527
_cell_angle_beta   89.99756871
_cell_angle_gamma   90.00894604
_symmetry_Int_Tables_number   1
_chemical_formula_structural   In86Cu29Se144
_chemical_formula_sum   'In86 Cu29 Se144'
_cell_volume   7359.88306266
_cell_formula_units_Z   1
loop_
 _symmetry_equiv_pos_site_id
 _symmetry_equiv_pos_as_xyz
  1  'x, y, z'
loop_
 _atom_site_type_symbol
 _atom_site_label
 _atom_site_symmetry_multiplicity
 _atom_site_fract_x
 _atom_site_fract_y
 _atom_site_fract_z
 _atom_site_occupancy
  In  In0  1  -0.00590257  0.16538244  0.13242147  1
  In  In1  1  -0.00038695  0.15948168  0.61386351  1
  In  In2  1  -0.00535658  0.50536656  0.12753117  1
  In  In3  1  -0.00184576  0.48914267  0.61552701  1
  In  In4  1  -0.00741821  0.83052207  0.13355593  1
  In  In5  1  0.01031860  0.84396671  0.62565988  1
  In  In6  1  0.33958417  0.16959634  0.11336762  1
  In  In7  1  0.33902802  0.17337897  0.61837918  1
  In  In8  1  0.32187537  0.48564825  0.12379892  1
  In  In9  1  0.32998958  0.49581130  0.62364496  1
  In  In10  1  0.33078415  0.85361552  0.11835003  1
  In  In11  1  0.33923091  0.81853965  0.62228457  1
  In  In12  1  0.65785780  0.16942124  0.11539539  1
  In  In13  1  0.66806050  0.16926064  0.62792942  1
  In  In14  1  0.65804556  0.48598449  0.10595360  1
  In  In15  1  0.68156542  0.47597267  0.65178177  1
  In  In16  1  0.67766385  0.83154380  0.12656858  1
  In  In17  1  0.67040943  0.84752103  0.62904872  1
  In  In18  1  0.16022307  0.01287467  0.37923927  1
  In  In19  1  0.15350333  0.01332408  0.88999466  1
  In  In20  1  0.16680982  0.33476222  0.37179708  1
  In  In21  1  0.17091274  0.32556506  0.87887212  1
  In  In22  1  0.14989238  0.67131413  0.37221663  1
  In  In23  1  0.18282499  0.66595833  0.88083770  1
  In  In24  1  0.50401715  0.00466617  0.38237119  1
  In  In25  1  0.51574902  -0.00057169  0.87461957  1
  In  In26  1  0.48701237  0.32880958  0.37074655  1
  In  In27  1  0.48973350  0.32230407  0.85695383  1
  In  In28  1  0.51659050  0.67016500  0.37803020  1
  In  In29  1  0.50137244  0.66538314  0.86792836  1
  In  In30  1  0.85957245  0.04202322  0.34669469  1
  In  In31  1  0.83738741  0.00870386  0.87024985  1
  In  In32  1  0.85060792  0.31559694  0.38767718  1
  In  In33  1  0.80566991  0.34897259  0.90375952  1
  In  In34  1  0.83497852  0.65374366  0.37727221  1
  In  In35  1  0.81609978  0.65220020  0.86820670  1
  In  In36  1  0.00061110  0.17485403  0.37066792  1
  In  In37  1  -0.00247247  0.16634007  0.88152662  1
  In  In38  1  -0.00143092  0.49923077  0.37426548  1
  In  In39  1  -0.00586051  0.48293543  0.87681309  1
  In  In40  1  0.00126961  0.83745018  0.36919823  1
  In  In41  1  -0.00643114  0.84617894  0.88002781  1
  In  In42  1  0.32440670  0.17270508  0.37865622  1
  In  In43  1  0.32180737  0.17092820  0.88364596  1
  In  In44  1  0.33403756  0.48356108  0.36944828  1
  In  In45  1  0.42112432  0.49032067  0.88991961  1
  In  In46  1  0.33823360  0.84583811  0.37734190  1
  In  In47  1  0.32461676  0.82084126  0.88545614  1
  In  In48  1  0.68219612  0.15661908  0.38576677  1
  In  In49  1  0.66989866  0.16755122  0.87582054  1
  In  In50  1  0.67479647  0.50343194  0.38052157  1
  In  In51  1  0.65506492  0.49964086  0.86061185  1
  In  In52  1  0.65502385  0.84644023  0.38623383  1
  In  In53  1  0.67034285  0.83668060  0.86246942  1
  In  In54  1  0.15609062  -0.00753451  0.11976681  1
  In  In55  1  0.15468116  0.00680008  0.62843238  1
  In  In56  1  0.17583717  0.32258237  0.13181484  1
  In  In57  1  0.16922740  0.33232293  0.61765412  1
  In  In58  1  0.15400340  0.66554217  0.12173740  1
  In  In59  1  0.17990502  0.66115426  0.62225734  1
  In  In60  1  0.49444239  0.01709285  0.12412196  1
  In  In61  1  0.51184031  0.01057752  0.61962888  1
  In  In62  1  0.49155239  0.32096434  0.11181128  1
  In  In63  1  0.51020637  0.32613564  0.63965247  1
  In  In64  1  0.51214835  0.66544731  0.12019223  1
  In  In65  1  0.50699340  0.67517568  0.62207270  1
  In  In66  1  0.81676056  0.01644409  0.14583915  1
  In  In67  1  0.83352581  0.01282298  0.62930142  1
  In  In68  1  0.83117149  0.34066310  0.11631036  1
  In  In69  1  0.83261698  0.32521794  0.62160750  1
  In  In70  1  0.83864401  0.66006097  0.12432979  1
  In  In71  1  0.83145688  0.64837700  0.63016387  1
  In  In72  1  0.16735426  0.49642899  -0.00294575  1
  In  In73  1  0.49480139  0.83367088  0.00027596  1
  In  In74  1  0.83284766  0.84319737  0.50147894  1
  In  In75  1  0.17191697  0.83298217  0.49427423  1
  In  In76  1  0.33485223  -0.00188194  0.75750830  1
  In  In77  1  -0.00613192  0.32246051  0.74480636  1
  In  In78  1  0.67230832  0.32902496  0.24935543  1
  In  In79  1  0.83734543  0.83175741  0.00172767  1
  In  In80  1  0.32860514  0.00583224  0.24880039  1
  In  In81  1  0.50575849  0.49996628  0.50538464  1
  In  In82  1  0.32955715  0.66413391  0.24283752  1
  In  In83  1  0.33273720  0.66166496  0.75551911  1
  In  In84  1  -0.00155799  0.66760783  0.75439590  1
  In  In85  1  0.67981014  0.66343205  0.24963073  1
  Cu  Cu86  1  0.16071278  0.84282524  0.75534347  1
  Cu  Cu87  1  -0.00055427  0.66041472  0.49921609  1
  Cu  Cu88  1  0.16625485  0.49632014  0.74384388  1
  Cu  Cu89  1  0.83057342  0.16974941  0.75175773  1
  Cu  Cu90  1  0.33131912  0.33003509  0.49643976  1
  Cu  Cu91  1  0.50057836  0.17157560  0.24339417  1
  Cu  Cu92  1  -0.00561232  0.66439035  0.00209287  1
  Cu  Cu93  1  0.50339450  0.83634903  0.25956850  1
  Cu  Cu94  1  0.00775708  0.33608381  0.49449688  1
  Cu  Cu95  1  0.82654112  0.83407105  0.25334392  1
  Cu  Cu96  1  0.15900362  0.83306869  0.24705353  1
  Cu  Cu97  1  0.67219936  0.66463123  0.50357279  1
  Cu  Cu98  1  0.33982751  0.65855887  0.50046655  1
  Cu  Cu99  1  0.66671795  0.00133142  0.00107052  1
  Cu  Cu100  1  0.50626019  0.16279166  0.74778728  1
  Cu  Cu101  1  0.34081601  -0.00622220  0.50341909  1
  Cu  Cu102  1  0.16609930  0.16122378  0.75821272  1
  Cu  Cu103  1  -0.00631792  0.00064580  0.00768047  1
  Cu  Cu104  1  0.84200691  0.84058981  0.74972946  1
  Cu  Cu105  1  0.33350170  0.33591847  -0.00532537  1
  Cu  Cu106  1  0.15816399  0.49872475  0.24873961  1
  Cu  Cu107  1  0.16504805  0.17024599  0.25086968  1
  Cu  Cu108  1  0.66019858  0.65490677  -0.00888262  1
  Cu  Cu109  1  0.00303066  0.32631251  0.00448447  1
  Cu  Cu110  1  0.66954654  0.00678369  0.50408921  1
  Cu  Cu111  1  0.50101078  0.49215521  0.24589420  1
  Cu  Cu112  1  0.50608152  0.83964964  0.74382574  1
  Cu  Cu113  1  0.66331487  0.33433047  0.50922077  1
  Cu  Cu114  1  0.83773658  0.49496918  0.25012594  1
  Se  Se115  1  0.07606031  0.08644625  0.05931822  1
  Se  Se116  1  0.09504753  0.08646233  0.55030583  1
  Se  Se117  1  0.08272613  0.41030184  0.06344063  1
  Se  Se118  1  0.09035461  0.41847750  0.54936656  1
  Se  Se119  1  0.06847610  0.75046072  0.05816488  1
  Se  Se120  1  0.08070012  0.74220521  0.55773784  1
  Se  Se121  1  0.41348952  0.07787494  0.04778017  1
  Se  Se122  1  0.41895526  0.08343590  0.55431844  1
  Se  Se123  1  0.41164052  0.41940366  0.05277870  1
  Se  Se124  1  0.41535502  0.40502209  0.55850511  1
  Se  Se125  1  0.40873962  0.74512506  0.06384485  1
  Se  Se126  1  0.42106629  0.74683792  0.54852439  1
  Se  Se127  1  0.74921452  0.07786819  0.05923124  1
  Se  Se128  1  0.75225325  0.08995601  0.55728230  1
  Se  Se129  1  0.74026394  0.40246406  0.04237674  1
  Se  Se130  1  0.74516087  0.41745497  0.56240587  1
  Se  Se131  1  0.74037049  0.73431012  0.05330903  1
  Se  Se132  1  0.75179111  0.74670851  0.56308332  1
  Se  Se133  1  0.25076044  0.25552417  0.05129607  1
  Se  Se134  1  0.24878008  0.24600411  0.54997689  1
  Se  Se135  1  0.25312907  0.58928808  0.05951275  1
  Se  Se136  1  0.25324964  0.57829657  0.55057528  1
  Se  Se137  1  0.24882102  0.92744948  0.04926655  1
  Se  Se138  1  0.25662870  0.91782633  0.56313833  1
  Se  Se139  1  0.59568496  0.26665348  0.04769002  1
  Se  Se140  1  0.58005008  0.25093531  0.56071449  1
  Se  Se141  1  0.57381588  0.57761528  0.04578901  1
  Se  Se142  1  0.59865204  0.58160470  0.56584988  1
  Se  Se143  1  0.59003718  0.91791270  0.06148565  1
  Se  Se144  1  0.58835772  0.91829392  0.55390090  1
  Se  Se145  1  0.91811142  0.24822991  0.05904968  1
  Se  Se146  1  0.92469845  0.25676619  0.55276392  1
  Se  Se147  1  0.91223341  0.57790860  0.05180879  1
  Se  Se148  1  0.91616411  0.58215015  0.55519427  1
  Se  Se149  1  0.90943323  0.92514705  0.06830744  1
  Se  Se150  1  0.92629833  0.92968185  0.55968199  1
  Se  Se151  1  0.08794430  0.25065296  0.44134262  1
  Se  Se152  1  0.08561052  0.24828355  0.94748851  1
  Se  Se153  1  0.08378613  0.58241097  0.44350583  1
  Se  Se154  1  0.07267454  0.58675091  0.93797131  1
  Se  Se155  1  0.07403570  0.92303040  0.44491161  1
  Se  Se156  1  0.07538571  0.91794186  0.95289361  1
  Se  Se157  1  0.41713957  0.24735036  0.44562964  1
  Se  Se158  1  0.41731145  0.25309481  0.94075253  1
  Se  Se159  1  0.41738093  0.58281390  0.43492439  1
  Se  Se160  1  0.39190256  0.62026648  0.93239738  1
  Se  Se161  1  0.42445084  0.91388304  0.44879134  1
  Se  Se162  1  0.41287233  0.92323437  0.93671368  1
  Se  Se163  1  0.74744101  0.25478983  0.45208877  1
  Se  Se164  1  0.77597834  0.21760592  0.94302484  1
  Se  Se165  1  0.75499416  0.58064528  0.45225536  1
  Se  Se166  1  0.73972657  0.56976561  0.93852214  1
  Se  Se167  1  0.75069175  0.93391445  0.43983198  1
  Se  Se168  1  0.74499645  0.91871519  0.94123836  1
  Se  Se169  1  0.26005248  0.07323048  0.44512681  1
  Se  Se170  1  0.25504752  0.07693134  0.95095711  1
  Se  Se171  1  0.25106936  0.41588639  0.44337833  1
  Se  Se172  1  0.26093954  0.42136184  0.93269275  1
  Se  Se173  1  0.26161583  0.73841166  0.43621488  1
  Se  Se174  1  0.23339637  0.75759256  0.95598015  1
  Se  Se175  1  0.58340779  0.08934380  0.45081337  1
  Se  Se176  1  0.58645350  0.08449609  0.94661221  1
  Se  Se177  1  0.58777003  0.40689189  0.43929869  1
  Se  Se178  1  0.55078557  0.43203307  0.92541428  1
  Se  Se179  1  0.58816235  0.74860653  0.45304596  1
  Se  Se180  1  0.59157580  0.75161093  0.93817208  1
  Se  Se181  1  0.91650430  0.09118707  0.43848597  1
  Se  Se182  1  0.91436367  0.07932050  0.94805539  1
  Se  Se183  1  0.91791419  0.41973521  0.44702966  1
  Se  Se184  1  0.92001342  0.41398157  0.95521143  1
  Se  Se185  1  0.92236895  0.74673735  0.44246106  1
  Se  Se186  1  0.91481895  0.73749587  0.93561926  1
  Se  Se187  1  0.25149487  0.25093479  0.30329521  1
  Se  Se188  1  0.24972309  0.24739532  0.80560095  1
  Se  Se189  1  0.24215536  0.57914629  0.30831248  1
  Se  Se190  1  0.24339282  0.56989738  0.80988923  1
  Se  Se191  1  0.23900714  0.91120662  0.30863946  1
  Se  Se192  1  0.24218265  0.91425010  0.81862927  1
  Se  Se193  1  0.58006845  0.24288446  0.30998744  1
  Se  Se194  1  0.58969506  0.24491121  0.80162959  1
  Se  Se195  1  0.58026830  0.57228452  0.30492832  1
  Se  Se196  1  0.59322779  0.60385407  0.79784132  1
  Se  Se197  1  0.58242153  0.92358502  0.30954836  1
  Se  Se198  1  0.58779230  0.92285343  0.79744754  1
  Se  Se199  1  0.91064733  0.25028211  0.30294725  1
  Se  Se200  1  0.90750258  0.24835234  0.81483192  1
  Se  Se201  1  0.91615640  0.58280970  0.30309884  1
  Se  Se202  1  0.91202734  0.56775425  0.80589671  1
  Se  Se203  1  0.91253010  0.91593103  0.30399445  1
  Se  Se204  1  0.92208240  0.92335249  0.80402885  1
  Se  Se205  1  0.08441709  0.08547721  0.30389141  1
  Se  Se206  1  0.07921754  0.08353104  0.81055867  1
  Se  Se207  1  0.07924000  0.41587600  0.30514768  1
  Se  Se208  1  0.08802987  0.41442460  0.80468686  1
  Se  Se209  1  0.07531062  0.74995706  0.29881714  1
  Se  Se210  1  0.08877907  0.75527956  0.81510669  1
  Se  Se211  1  0.42212275  0.09166894  0.30788988  1
  Se  Se212  1  0.42475602  0.09102663  0.81281723  1
  Se  Se213  1  0.41528769  0.41049486  0.29604126  1
  Se  Se214  1  0.39437812  0.40865873  0.80291570  1
  Se  Se215  1  0.42007873  0.75062724  0.30984207  1
  Se  Se216  1  0.41916275  0.76721895  0.80484946  1
  Se  Se217  1  0.73745208  0.08896639  0.29893326  1
  Se  Se218  1  0.74790941  0.08322174  0.80303786  1
  Se  Se219  1  0.75802793  0.41928505  0.31255026  1
  Se  Se220  1  0.74965770  0.40642448  0.81344116  1
  Se  Se221  1  0.75067698  0.75670844  0.31932734  1
  Se  Se222  1  0.76017816  0.75481488  0.80094448  1
  Se  Se223  1  0.24233584  0.09212191  0.18606801  1
  Se  Se224  1  0.24872538  0.08714215  0.69452270  1
  Se  Se225  1  0.24696723  0.41576319  0.20131049  1
  Se  Se226  1  0.24757302  0.41235878  0.69067504  1
  Se  Se227  1  0.24452729  0.76219720  0.18665276  1
  Se  Se228  1  0.24011659  0.75952421  0.69695979  1
  Se  Se229  1  0.58380948  0.08836833  0.19205397  1
  Se  Se230  1  0.58986597  0.07987222  0.69644770  1
  Se  Se231  1  0.57940782  0.41332416  0.18614286  1
  Se  Se232  1  0.56535194  0.42759429  0.70563283  1
  Se  Se233  1  0.57897795  0.75477271  0.19733033  1
  Se  Se234  1  0.58798196  0.75603696  0.69153741  1
  Se  Se235  1  0.92523661  0.07457215  0.20303720  1
  Se  Se236  1  0.91971969  0.09621482  0.69463077  1
  Se  Se237  1  0.91430387  0.41452582  0.19052321  1
  Se  Se238  1  0.91050635  0.42271879  0.69104153  1
  Se  Se239  1  0.90336758  0.74766708  0.19783627  1
  Se  Se240  1  0.91586285  0.75746668  0.68766033  1
  Se  Se241  1  0.08090808  0.25212308  0.19725079  1
  Se  Se242  1  0.09271734  0.23903416  0.68990523  1
  Se  Se243  1  0.08011634  0.58609395  0.19574423  1
  Se  Se244  1  0.08701809  0.57978783  0.68838382  1
  Se  Se245  1  0.07801862  0.91892390  0.19557091  1
  Se  Se246  1  0.08006021  0.92450417  0.70137528  1
  Se  Se247  1  0.41422351  0.24872254  0.18907863  1
  Se  Se248  1  0.41570886  0.24148099  0.69720687  1
  Se  Se249  1  0.42462430  0.57579530  0.18687706  1
  Se  Se250  1  0.42043035  0.58359850  0.68643171  1
  Se  Se251  1  0.42574025  0.91310143  0.19488921  1
  Se  Se252  1  0.41867461  0.91440344  0.68673619  1
  Se  Se253  1  0.75543477  0.24379410  0.18433475  1
  Se  Se254  1  0.75033962  0.25351944  0.69621613  1
  Se  Se255  1  0.75033873  0.56390932  0.18572369  1
  Se  Se256  1  0.74577538  0.58743743  0.70437692  1
  Se  Se257  1  0.73984001  0.91455798  0.20286918  1
  Se  Se258  1  0.75763419  0.92346330  0.69679581  1
