# generated using pymatgen
data_In86Cu29Se144
_symmetry_space_group_name_H-M   'P 1'
_cell_length_a   17.63856135
_cell_length_b   17.62636623
_cell_length_c   23.48586528
_cell_angle_alpha   90.00437970
_cell_angle_beta   90.01555817
_cell_angle_gamma   90.01608100
_symmetry_Int_Tables_number   1
_chemical_formula_structural   In86Cu29Se144
_chemical_formula_sum   'In86 Cu29 Se144'
_cell_volume   7301.84282631
_cell_formula_units_Z   1
loop_
 _symmetry_equiv_pos_site_id
 _symmetry_equiv_pos_as_xyz
  1  'x, y, z'
loop_
 _atom_site_type_symbol
 _atom_site_label
 _atom_site_symmetry_multiplicity
 _atom_site_fract_x
 _atom_site_fract_y
 _atom_site_fract_z
 _atom_site_occupancy
  In  In0  1  -0.01127351  0.16454899  0.12691780  1
  In  In1  1  0.00823991  0.16849287  0.61588970  1
  In  In2  1  0.00076799  0.49077410  0.12235295  1
  In  In3  1  0.00303478  0.48971707  0.63382377  1
  In  In4  1  0.00315063  0.84876171  0.12712229  1
  In  In5  1  -0.00997192  0.82594366  0.60966410  1
  In  In6  1  0.33690469  0.14471140  0.12941425  1
  In  In7  1  0.33170835  0.15578406  0.62020681  1
  In  In8  1  0.33310465  0.51253320  0.12630159  1
  In  In9  1  0.32871613  0.50080628  0.61795783  1
  In  In10  1  0.34299644  0.82175848  0.14318005  1
  In  In11  1  0.33586128  0.84844551  0.62757686  1
  In  In12  1  0.67532624  0.15321937  0.13551591  1
  In  In13  1  0.65212486  0.14994345  0.59582833  1
  In  In14  1  0.65588361  0.50866991  0.14037112  1
  In  In15  1  0.67375639  0.50704604  0.61874038  1
  In  In16  1  0.67501374  0.82893549  0.12522005  1
  In  In17  1  0.67580654  0.83098142  0.62438881  1
  In  In18  1  0.16271273  -0.00998725  0.38532602  1
  In  In19  1  0.17226917  -0.00845834  0.86622700  1
  In  In20  1  0.16341110  0.33793849  0.38214826  1
  In  In21  1  0.16694972  0.34825274  0.86956572  1
  In  In22  1  0.17035414  0.66624946  0.38365535  1
  In  In23  1  0.15251207  0.66856998  0.86975524  1
  In  In24  1  0.50938979  0.00424710  0.35954194  1
  In  In25  1  0.49337719  -0.00891396  0.87122279  1
  In  In26  1  0.52616152  0.31479540  0.40012913  1
  In  In27  1  0.50220236  0.33380585  0.87154094  1
  In  In28  1  0.49129883  0.66925173  0.36215508  1
  In  In29  1  0.51653480  0.66941516  0.87263077  1
  In  In30  1  0.82370937  0.00131573  0.37769140  1
  In  In31  1  0.82760397  0.00545569  0.88433728  1
  In  In32  1  0.81820276  0.31758535  0.37787446  1
  In  In33  1  0.83133200  0.31794155  0.87218227  1
  In  In34  1  0.82860221  0.70857504  0.38942354  1
  In  In35  1  0.83829936  0.67658117  0.86830161  1
  In  In36  1  0.01153522  0.14306061  0.40615256  1
  In  In37  1  -0.01337970  0.15906940  0.86793817  1
  In  In38  1  0.00352726  0.51645463  0.38243278  1
  In  In39  1  0.00065252  0.50968219  0.86658007  1
  In  In40  1  -0.03401421  0.86165199  0.42433248  1
  In  In41  1  -0.00181204  0.82473161  0.86907214  1
  In  In42  1  0.34264162  0.15848896  0.38185237  1
  In  In43  1  0.34040145  0.15647968  0.86816071  1
  In  In44  1  0.33273097  0.50702636  0.37632876  1
  In  In45  1  0.33267214  0.48841653  0.87482554  1
  In  In46  1  0.33335200  0.82297196  0.36196813  1
  In  In47  1  0.33387146  0.84555857  0.87104534  1
  In  In48  1  0.66856663  0.15667610  0.37873600  1
  In  In49  1  0.67763845  0.17032671  0.87649983  1
  In  In50  1  0.65701670  0.49079363  0.37311444  1
  In  In51  1  0.65623663  0.50377681  0.87277891  1
  In  In52  1  0.66461934  0.84960281  0.35256040  1
  In  In53  1  0.66866846  0.83789611  0.87821819  1
  In  In54  1  0.17207210  -0.01288926  0.13939786  1
  In  In55  1  0.16984359  0.01532860  0.60682193  1
  In  In56  1  0.15395795  0.33358224  0.12248878  1
  In  In57  1  0.15053853  0.31460711  0.61791214  1
  In  In58  1  0.17533859  0.67157655  0.12557886  1
  In  In59  1  0.14468741  0.65625633  0.60096404  1
  In  In60  1  0.52825703  -0.04411369  0.16601099  1
  In  In61  1  0.50312516  0.00535989  0.62755456  1
  In  In62  1  0.50358158  0.34434038  0.12882484  1
  In  In63  1  0.49344838  0.32385038  0.60933939  1
  In  In64  1  0.49405086  0.68039399  0.13985200  1
  In  In65  1  0.51883449  0.67423183  0.62452637  1
  In  In66  1  0.83370412  -0.00237236  0.12649055  1
  In  In67  1  0.82541829  -0.00609667  0.60425740  1
  In  In68  1  0.83490730  0.31890969  0.12880533  1
  In  In69  1  0.83944185  0.33716101  0.62631264  1
  In  In70  1  0.81842957  0.67110514  0.12930172  1
  In  In71  1  0.82720834  0.67077353  0.62993809  1
  In  In72  1  0.49608970  0.50722731  0.00211295  1
  In  In73  1  0.33564479  0.33540976  0.25672717  1
  In  In74  1  -0.00980866  0.32693426  0.26099337  1
  In  In75  1  0.00114035  0.67238004  0.26261140  1
  In  In76  1  0.16020486  0.16711863  -0.00299181  1
  In  In77  1  0.33025921  0.67571374  0.74237800  1
  In  In78  1  0.16364568  0.83455794  -0.00553374  1
  In  In79  1  0.66788761  0.32627119  0.74470477  1
  In  In80  1  0.83274292  0.49906506  0.49637897  1
  In  In81  1  0.00355103  0.00414836  0.74001573  1
  In  In82  1  0.83022310  0.49923352  0.00395945  1
  In  In83  1  0.50373606  0.83490103  0.49087964  1
  In  In84  1  0.50258475  0.16691994  -0.00231282  1
  In  In85  1  0.32605999  0.32168020  0.73707903  1
  Cu  Cu86  1  0.84028264  0.84143427  0.25660566  1
  Cu  Cu87  1  0.34045837  0.00320873  0.49671889  1
  Cu  Cu88  1  0.50089800  0.49371498  0.25800456  1
  Cu  Cu89  1  0.15651277  0.15950816  0.26391929  1
  Cu  Cu90  1  0.17034268  0.50861568  0.25215488  1
  Cu  Cu91  1  0.33764591  -0.00912416  0.00055437  1
  Cu  Cu92  1  0.00093363  0.33904429  -0.00158854  1
  Cu  Cu93  1  0.50261959  0.17236026  0.25807715  1
  Cu  Cu94  1  -0.00549307  0.00552762  0.00408847  1
  Cu  Cu95  1  0.67231405  0.32949388  0.00562024  1
  Cu  Cu96  1  0.32896452  0.34253234  0.49948717  1
  Cu  Cu97  1  0.83296617  0.16195574  0.74623665  1
  Cu  Cu98  1  0.66715373  -0.00304088  0.00901376  1
  Cu  Cu99  1  0.83278881  0.50378848  0.74850764  1
  Cu  Cu100  1  0.83333337  0.15685259  0.25530591  1
  Cu  Cu101  1  0.66641278  0.66921145  0.49894521  1
  Cu  Cu102  1  0.82892361  0.50199518  0.25911632  1
  Cu  Cu103  1  0.34307242  0.67184333  0.49414737  1
  Cu  Cu104  1  0.32008757  0.33013675  -0.00108312  1
  Cu  Cu105  1  0.66737003  0.67430304  0.00130198  1
  Cu  Cu106  1  0.00584436  0.34037243  0.50277504  1
  Cu  Cu107  1  0.15833277  0.83775021  0.26048720  1
  Cu  Cu108  1  0.15906075  0.50621331  0.74569533  1
  Cu  Cu109  1  0.16421874  0.83658663  0.73950685  1
  Cu  Cu110  1  0.83400783  0.83957274  0.74469662  1
  Cu  Cu111  1  -0.00340615  0.66632493  -0.00797648  1
  Cu  Cu112  1  0.33295048  0.66949640  0.00493544  1
  Cu  Cu113  1  0.51257893  0.83961216  0.74730289  1
  Cu  Cu114  1  0.50651944  0.49862875  0.74338515  1
  Se  Se115  1  0.08345587  0.07421933  0.06420420  1
  Se  Se116  1  0.06658867  0.07476478  0.54272962  1
  Se  Se117  1  0.08639958  0.42065661  0.04942387  1
  Se  Se118  1  0.08735254  0.42219584  0.55780030  1
  Se  Se119  1  0.07463608  0.74500244  0.05743098  1
  Se  Se120  1  0.10187448  0.77600542  0.54641113  1
  Se  Se121  1  0.42016880  0.07247608  0.05620734  1
  Se  Se122  1  0.42365761  0.08242922  0.55299763  1
  Se  Se123  1  0.40471103  0.40897287  0.05720197  1
  Se  Se124  1  0.41644687  0.42308991  0.55096055  1
  Se  Se125  1  0.41319772  0.74906156  0.06231163  1
  Se  Se126  1  0.41686358  0.74966550  0.56077115  1
  Se  Se127  1  0.75181864  0.08388753  0.05751032  1
  Se  Se128  1  0.76813101  0.10025085  0.53882958  1
  Se  Se129  1  0.74105916  0.41523865  0.06880078  1
  Se  Se130  1  0.74367410  0.40616005  0.55403873  1
  Se  Se131  1  0.75782517  0.75296031  0.05035935  1
  Se  Se132  1  0.75322028  0.74787351  0.55244019  1
  Se  Se133  1  0.25391628  0.24728640  0.06403874  1
  Se  Se134  1  0.25556129  0.25262462  0.55649238  1
  Se  Se135  1  0.24785025  0.58494126  0.05389175  1
  Se  Se136  1  0.25738318  0.59130291  0.54893868  1
  Se  Se137  1  0.25305736  0.91456854  0.05995943  1
  Se  Se138  1  0.25886403  0.92094442  0.55177325  1
  Se  Se139  1  0.58847514  0.25318154  0.06428618  1
  Se  Se140  1  0.58312865  0.25431844  0.53972850  1
  Se  Se141  1  0.58659952  0.59363019  0.06155235  1
  Se  Se142  1  0.58429305  0.58548962  0.55172821  1
  Se  Se143  1  0.58371988  0.91800677  0.06615173  1
  Se  Se144  1  0.58879558  0.91874104  0.55722485  1
  Se  Se145  1  0.92251592  0.25484233  0.05441027  1
  Se  Se146  1  0.92170254  0.25913911  0.55577034  1
  Se  Se147  1  0.92082863  0.59241666  0.06092026  1
  Se  Se148  1  0.91638560  0.57906834  0.56612203  1
  Se  Se149  1  0.91614049  0.91613549  0.05446385  1
  Se  Se150  1  0.90706453  0.90413953  0.53841167  1
  Se  Se151  1  0.08952251  0.25240395  0.45333011  1
  Se  Se152  1  0.07480413  0.25708003  0.93452771  1
  Se  Se153  1  0.09551938  0.57711752  0.45257030  1
  Se  Se154  1  0.08158075  0.58296846  0.94247665  1
  Se  Se155  1  0.10041136  0.89875527  0.46002023  1
  Se  Se156  1  0.07218292  0.92866339  0.93783154  1
  Se  Se157  1  0.41040158  0.25351496  0.44978603  1
  Se  Se158  1  0.40566637  0.25822905  0.93998402  1
  Se  Se159  1  0.42392380  0.58867310  0.44051001  1
  Se  Se160  1  0.40872253  0.59414831  0.93642490  1
  Se  Se161  1  0.41258444  0.92194089  0.43127872  1
  Se  Se162  1  0.42051239  0.90906742  0.94631648  1
  Se  Se163  1  0.75176198  0.23445551  0.45244530  1
  Se  Se164  1  0.75459899  0.24888170  0.95109424  1
  Se  Se165  1  0.74780939  0.59233526  0.43579438  1
  Se  Se166  1  0.74234471  0.58816406  0.94116200  1
  Se  Se167  1  0.74400053  0.90259962  0.43579165  1
  Se  Se168  1  0.75058098  0.91672884  0.95090413  1
  Se  Se169  1  0.24923686  0.08265753  0.44619868  1
  Se  Se170  1  0.25613340  0.07328353  0.94298351  1
  Se  Se171  1  0.24825018  0.42512694  0.44457332  1
  Se  Se172  1  0.24497903  0.42033634  0.94697941  1
  Se  Se173  1  0.25984937  0.75533768  0.44342185  1
  Se  Se174  1  0.25599910  0.74303471  0.93610132  1
  Se  Se175  1  0.58088885  0.07030293  0.44049989  1
  Se  Se176  1  0.59303444  0.07484158  0.94107791  1
  Se  Se177  1  0.58347949  0.42834342  0.45494877  1
  Se  Se178  1  0.58970939  0.40829002  0.94767979  1
  Se  Se179  1  0.59165944  0.74540238  0.43091388  1
  Se  Se180  1  0.58224907  0.75417531  0.94680794  1
  Se  Se181  1  0.88936566  0.09373544  0.45227475  1
  Se  Se182  1  0.91584141  0.08994352  0.94889430  1
  Se  Se183  1  0.92311815  0.40673725  0.43551380  1
  Se  Se184  1  0.91619432  0.41391318  0.93737130  1
  Se  Se185  1  0.94936114  0.71761294  0.44793154  1
  Se  Se186  1  0.91527139  0.75412953  0.94369140  1
  Se  Se187  1  0.24190636  0.24559724  0.31384669  1
  Se  Se188  1  0.24354204  0.24387367  0.81062334  1
  Se  Se189  1  0.25077027  0.59010768  0.30690012  1
  Se  Se190  1  0.24835106  0.57783644  0.80570904  1
  Se  Se191  1  0.24667491  0.92066729  0.30901772  1
  Se  Se192  1  0.25102044  0.91310661  0.79436847  1
  Se  Se193  1  0.58771473  0.24973474  0.31321682  1
  Se  Se194  1  0.57575468  0.23841612  0.80760673  1
  Se  Se195  1  0.58535368  0.58227528  0.30454880  1
  Se  Se196  1  0.58445292  0.58352163  0.79802389  1
  Se  Se197  1  0.56226924  0.90710025  0.28470790  1
  Se  Se198  1  0.59093458  0.92130663  0.80648094  1
  Se  Se199  1  0.91618251  0.22762372  0.32049064  1
  Se  Se200  1  0.91483352  0.24852717  0.79765808  1
  Se  Se201  1  0.90245282  0.58636513  0.31834261  1
  Se  Se202  1  0.91613411  0.59064838  0.80005689  1
  Se  Se203  1  0.91875473  0.91000133  0.32427779  1
  Se  Se204  1  0.91360417  0.91954455  0.80631223  1
  Se  Se205  1  0.07723998  0.07829364  0.31987969  1
  Se  Se206  1  0.09225109  0.08998607  0.80604472  1
  Se  Se207  1  0.08565650  0.42775369  0.30740947  1
  Se  Se208  1  0.07927941  0.42066368  0.80005486  1
  Se  Se209  1  0.08305025  0.76130043  0.32478061  1
  Se  Se210  1  0.08368145  0.75384839  0.79628671  1
  Se  Se211  1  0.41264273  0.08737268  0.30122653  1
  Se  Se212  1  0.41883569  0.07648841  0.80111424  1
  Se  Se213  1  0.42768358  0.41244316  0.32085327  1
  Se  Se214  1  0.42126615  0.41828221  0.79897693  1
  Se  Se215  1  0.42100901  0.75498664  0.28985480  1
  Se  Se216  1  0.42716088  0.75736422  0.80512738  1
  Se  Se217  1  0.74237129  0.07524510  0.30233883  1
  Se  Se218  1  0.75428719  0.08355264  0.80734170  1
  Se  Se219  1  0.75110292  0.41232719  0.30944845  1
  Se  Se220  1  0.75265535  0.42161647  0.80965370  1
  Se  Se221  1  0.75426279  0.75136810  0.30067694  1
  Se  Se222  1  0.75197061  0.76001838  0.80487937  1
  Se  Se223  1  0.23954186  0.09008732  0.20055982  1
  Se  Se224  1  0.24120276  0.08358230  0.68816888  1
  Se  Se225  1  0.24201003  0.42080217  0.19143377  1
  Se  Se226  1  0.23863305  0.42339429  0.68798978  1
  Se  Se227  1  0.23867515  0.75305232  0.20321193  1
  Se  Se228  1  0.23751266  0.75204425  0.67782694  1
  Se  Se229  1  0.58160738  0.08579822  0.20288200  1
  Se  Se230  1  0.59947195  0.08691627  0.68540963  1
  Se  Se231  1  0.58525500  0.41099837  0.20449188  1
  Se  Se232  1  0.57929448  0.41598294  0.68233361  1
  Se  Se233  1  0.60682896  0.73456095  0.19400646  1
  Se  Se234  1  0.59428246  0.75237273  0.69782315  1
  Se  Se235  1  0.91813647  0.07878904  0.19775468  1
  Se  Se236  1  0.90640192  0.08470750  0.68050771  1
  Se  Se237  1  0.90826781  0.42327928  0.19670896  1
  Se  Se238  1  0.91480422  0.41378642  0.70247146  1
  Se  Se239  1  0.91499823  0.75699524  0.19277687  1
  Se  Se240  1  0.91798436  0.75602234  0.69174288  1
  Se  Se241  1  0.08564818  0.24300127  0.19785365  1
  Se  Se242  1  0.07919900  0.24293466  0.69530156  1
  Se  Se243  1  0.08228073  0.58089451  0.19150540  1
  Se  Se244  1  0.08240624  0.59234891  0.68988186  1
  Se  Se245  1  0.07525670  0.92031589  0.20629846  1
  Se  Se246  1  0.08582688  0.91411039  0.67682084  1
  Se  Se247  1  0.42167453  0.24478546  0.19154050  1
  Se  Se248  1  0.42869833  0.23802600  0.68814494  1
  Se  Se249  1  0.42106126  0.57592115  0.19890767  1
  Se  Se250  1  0.42292301  0.58082186  0.68794182  1
  Se  Se251  1  0.38348983  0.95042431  0.18446817  1
  Se  Se252  1  0.42409585  0.91954565  0.69711835  1
  Se  Se253  1  0.75377501  0.24518858  0.20159051  1
  Se  Se254  1  0.75205889  0.23762746  0.68255794  1
  Se  Se255  1  0.75063868  0.58500844  0.20243001  1
  Se  Se256  1  0.74573218  0.58311809  0.69692696  1
  Se  Se257  1  0.75471716  0.91433188  0.19636155  1
  Se  Se258  1  0.75674914  0.92279584  0.68760727  1
