# generated using pymatgen
data_In86Cu29Se144
_symmetry_space_group_name_H-M   'P 1'
_cell_length_a   17.58923124
_cell_length_b   17.58779232
_cell_length_c   23.44745894
_cell_angle_alpha   89.97150274
_cell_angle_beta   90.02000357
_cell_angle_gamma   90.00449944
_symmetry_Int_Tables_number   1
_chemical_formula_structural   In86Cu29Se144
_chemical_formula_sum   'In86 Cu29 Se144'
_cell_volume   7253.60479544
_cell_formula_units_Z   1
loop_
 _symmetry_equiv_pos_site_id
 _symmetry_equiv_pos_as_xyz
  1  'x, y, z'
loop_
 _atom_site_type_symbol
 _atom_site_label
 _atom_site_symmetry_multiplicity
 _atom_site_fract_x
 _atom_site_fract_y
 _atom_site_fract_z
 _atom_site_occupancy
  In  In0  1  0.01117289  0.16786081  0.12532382  1
  In  In1  1  -0.00076478  0.18050657  0.62645777  1
  In  In2  1  -0.01833921  0.49374604  0.12297142  1
  In  In3  1  0.00635443  0.49499423  0.63195786  1
  In  In4  1  0.00042599  0.83061711  0.11363510  1
  In  In5  1  -0.00721029  0.82566247  0.62149963  1
  In  In6  1  0.32208841  0.16631930  0.12809289  1
  In  In7  1  0.35033217  0.16426890  0.62808371  1
  In  In8  1  0.34676374  0.50204414  0.12694471  1
  In  In9  1  0.32700498  0.51035520  0.63187539  1
  In  In10  1  0.32919508  0.83943252  0.13504438  1
  In  In11  1  0.32414705  0.81691417  0.61796753  1
  In  In12  1  0.68150864  0.17809878  0.12100494  1
  In  In13  1  0.66482108  0.16143558  0.62625274  1
  In  In14  1  0.69319211  0.48698335  0.15153297  1
  In  In15  1  0.66408997  0.50289797  0.63073781  1
  In  In16  1  0.66531963  0.81928597  0.12260041  1
  In  In17  1  0.66906527  0.83235488  0.61995258  1
  In  In18  1  0.16350146  -0.01838155  0.37980765  1
  In  In19  1  0.16771933  -0.00118687  0.88030749  1
  In  In20  1  0.16923404  0.34741016  0.37827575  1
  In  In21  1  0.15134750  0.32280595  0.87226650  1
  In  In22  1  0.16625043  0.66297487  0.38104118  1
  In  In23  1  0.17076463  0.68087034  0.86572871  1
  In  In24  1  0.49419829  0.00379127  0.37995589  1
  In  In25  1  0.50138592  -0.00560817  0.86624232  1
  In  In26  1  0.50645137  0.32108060  0.37969371  1
  In  In27  1  0.50863120  0.33776503  0.85938936  1
  In  In28  1  0.50602400  0.67963524  0.37625210  1
  In  In29  1  0.50167945  0.66776449  0.86132280  1
  In  In30  1  0.84364373  0.00249910  0.38990135  1
  In  In31  1  0.82093896  -0.00123207  0.87069296  1
  In  In32  1  0.81983658  0.32921163  0.36842946  1
  In  In33  1  0.83808844  0.34090113  0.87044860  1
  In  In34  1  0.83398595  0.67321167  0.37434390  1
  In  In35  1  0.83367496  0.66584933  0.87189170  1
  In  In36  1  -0.01683027  0.16457774  0.38028939  1
  In  In37  1  0.00528396  0.18440951  0.87449625  1
  In  In38  1  0.00522814  0.50552169  0.37135062  1
  In  In39  1  -0.01361205  0.49068745  0.87088965  1
  In  In40  1  0.00172739  0.83445653  0.39238341  1
  In  In41  1  0.00723636  0.82225612  0.87617931  1
  In  In42  1  0.35129068  0.16806666  0.37837117  1
  In  In43  1  0.31733646  0.16099264  0.87407151  1
  In  In44  1  0.31533701  0.50230751  0.37861863  1
  In  In45  1  0.33712404  0.50440250  0.86696477  1
  In  In46  1  0.33105915  0.83170702  0.37820382  1
  In  In47  1  0.33033568  0.82711305  0.87067325  1
  In  In48  1  0.66572526  0.16955422  0.38043014  1
  In  In49  1  0.67501030  0.17775334  0.85741857  1
  In  In50  1  0.66994901  0.50462386  0.36782296  1
  In  In51  1  0.67358052  0.50540221  0.86825496  1
  In  In52  1  0.67334583  0.81898447  0.39053397  1
  In  In53  1  0.67074562  0.83644679  0.86482245  1
  In  In54  1  0.17016544  0.00379364  0.12410526  1
  In  In55  1  0.16828680  -0.01233133  0.61981851  1
  In  In56  1  0.16587013  0.31990444  0.12257167  1
  In  In57  1  0.15854773  0.34546560  0.63434501  1
  In  In58  1  0.16501585  0.68013515  0.12326876  1
  In  In59  1  0.16968148  0.66654218  0.62864212  1
  In  In60  1  0.50000902  -0.01520906  0.13129527  1
  In  In61  1  0.51159616  0.01015523  0.61757271  1
  In  In62  1  0.51401014  0.34660273  0.12320304  1
  In  In63  1  0.50971315  0.31618105  0.63882546  1
  In  In64  1  0.50377884  0.66032768  0.13338226  1
  In  In65  1  0.49893238  0.67134794  0.62420275  1
  In  In66  1  0.84496922  -0.00155967  0.12068879  1
  In  In67  1  0.82449964  -0.01840370  0.61163794  1
  In  In68  1  0.82930811  0.34470264  0.13358415  1
  In  In69  1  0.83709328  0.32944882  0.63020561  1
  In  In70  1  0.82750797  0.65900378  0.11473556  1
  In  In71  1  0.82309254  0.68050350  0.62884025  1
  In  In72  1  0.33790844  0.33447589  0.24956072  1
  In  In73  1  0.66033352  0.00016694  0.25540729  1
  In  In74  1  0.49892922  0.82840251  -0.01047618  1
  In  In75  1  -0.00342081  -0.00240450  0.73967548  1
  In  In76  1  0.00381741  0.00141981  0.25632078  1
  In  In77  1  0.49837486  0.50171529  0.51012376  1
  In  In78  1  0.84078879  0.16949747  -0.00826787  1
  In  In79  1  0.17037951  0.16503063  0.50711018  1
  In  In80  1  0.33521482  -0.00270024  0.74540970  1
  In  In81  1  0.49768726  0.16478668  -0.00351099  1
  In  In82  1  0.15985784  0.50026037  -0.00281928  1
  In  In83  1  0.83617585  0.50254624  0.49384908  1
  In  In84  1  -0.00648035  0.66355198  0.24899768  1
  In  In85  1  0.50843087  0.50460848  -0.00800166  1
  Cu  Cu86  1  0.66799765  -0.00342662  -0.01091364  1
  Cu  Cu87  1  0.00058381  0.33380366  0.50593292  1
  Cu  Cu88  1  0.33522538  0.33636733  0.50380282  1
  Cu  Cu89  1  0.83087635  0.17636818  0.25390617  1
  Cu  Cu90  1  0.66395879  0.00196453  0.49926403  1
  Cu  Cu91  1  0.16316060  0.50207811  0.25195853  1
  Cu  Cu92  1  0.00330025  0.66080395  0.50426893  1
  Cu  Cu93  1  0.83170058  0.82956887  0.74477564  1
  Cu  Cu94  1  0.50576704  0.16693730  0.25354061  1
  Cu  Cu95  1  0.32916368  0.32854386  -0.00617709  1
  Cu  Cu96  1  0.00134989  -0.00697414  -0.00180464  1
  Cu  Cu97  1  0.82790214  0.83382492  0.25263342  1
  Cu  Cu98  1  0.16724636  0.50658111  0.75498426  1
  Cu  Cu99  1  0.16938345  0.82920513  0.25306289  1
  Cu  Cu100  1  0.33713165  -0.00440711  0.50312088  1
  Cu  Cu101  1  0.50419362  0.83664150  0.74157225  1
  Cu  Cu102  1  0.49363299  0.82883856  0.25606590  1
  Cu  Cu103  1  0.49604012  0.50731152  0.25569071  1
  Cu  Cu104  1  0.67768251  0.65816514  -0.00058008  1
  Cu  Cu105  1  0.82904182  0.16546422  0.74875330  1
  Cu  Cu106  1  -0.00317931  0.66637818  -0.00486951  1
  Cu  Cu107  1  0.50105810  0.49937356  0.74441585  1
  Cu  Cu108  1  0.16516966  0.17117342  0.74948890  1
  Cu  Cu109  1  0.16984817  0.16555129  0.24838320  1
  Cu  Cu110  1  0.32955298  0.66653465  0.50270444  1
  Cu  Cu111  1  0.66816248  0.32897718  0.50250461  1
  Cu  Cu112  1  0.32234254  0.00074075  0.00490865  1
  Cu  Cu113  1  0.83413605  0.50074976  0.74828280  1
  Cu  Cu114  1  0.32901535  0.67703917  0.00071495  1
  Se  Se115  1  0.07970066  0.07736355  0.05531351  1
  Se  Se116  1  0.07483232  0.07848240  0.56291474  1
  Se  Se117  1  0.07665557  0.40917751  0.05930759  1
  Se  Se118  1  0.08423755  0.41889000  0.55532971  1
  Se  Se119  1  0.08480043  0.74828881  0.04634995  1
  Se  Se120  1  0.08521724  0.74584905  0.55709486  1
  Se  Se121  1  0.41326192  0.07284404  0.06220153  1
  Se  Se122  1  0.41890834  0.08605900  0.55002656  1
  Se  Se123  1  0.41204869  0.40946871  0.05105533  1
  Se  Se124  1  0.41379745  0.40966180  0.57027495  1
  Se  Se125  1  0.41590131  0.74806176  0.06181649  1
  Se  Se126  1  0.41974626  0.74862703  0.54962935  1
  Se  Se127  1  0.74632252  0.07546587  0.05227631  1
  Se  Se128  1  0.74782750  0.08314838  0.55412639  1
  Se  Se129  1  0.74209950  0.41726529  0.06309072  1
  Se  Se130  1  0.74688322  0.41483365  0.55869007  1
  Se  Se131  1  0.75244566  0.75382436  0.04900516  1
  Se  Se132  1  0.76086646  0.76071674  0.55069905  1
  Se  Se133  1  0.25183097  0.24596010  0.05129689  1
  Se  Se134  1  0.25522002  0.25846958  0.56732783  1
  Se  Se135  1  0.25736203  0.58641163  0.05833906  1
  Se  Se136  1  0.24728985  0.58151135  0.55526037  1
  Se  Se137  1  0.24786002  0.91069965  0.05915067  1
  Se  Se138  1  0.25085336  0.91044103  0.54980843  1
  Se  Se139  1  0.59063820  0.25789488  0.05192627  1
  Se  Se140  1  0.58295540  0.24905460  0.55668616  1
  Se  Se141  1  0.59239804  0.58606448  0.06117157  1
  Se  Se142  1  0.59702894  0.59433489  0.55622120  1
  Se  Se143  1  0.58840507  0.92005263  0.05235708  1
  Se  Se144  1  0.58305963  0.91566425  0.55188871  1
  Se  Se145  1  0.91651741  0.25248010  0.06501175  1
  Se  Se146  1  0.91283222  0.25167885  0.55357469  1
  Se  Se147  1  0.91640585  0.58081702  0.04832844  1
  Se  Se148  1  0.91879759  0.58506949  0.56426852  1
  Se  Se149  1  0.91264430  0.91245464  0.04789834  1
  Se  Se150  1  0.92704374  0.91738777  0.55040169  1
  Se  Se151  1  0.08291665  0.25475632  0.44324158  1
  Se  Se152  1  0.08586594  0.24695350  0.95248858  1
  Se  Se153  1  0.08322963  0.57732326  0.44790119  1
  Se  Se154  1  0.07861871  0.59071703  0.93268195  1
  Se  Se155  1  0.07954908  0.92307895  0.45685680  1
  Se  Se156  1  0.08512827  0.91124071  0.94450150  1
  Se  Se157  1  0.41970179  0.25238224  0.45330183  1
  Se  Se158  1  0.41338343  0.25565443  0.93292892  1
  Se  Se159  1  0.41025889  0.58511890  0.44259589  1
  Se  Se160  1  0.41068997  0.59869696  0.94071273  1
  Se  Se161  1  0.41756723  0.91324608  0.44622412  1
  Se  Se162  1  0.40476699  0.92826810  0.94059548  1
  Se  Se163  1  0.75381593  0.24937337  0.44772458  1
  Se  Se164  1  0.74283019  0.25602823  0.93849649  1
  Se  Se165  1  0.73967030  0.59370665  0.44318874  1
  Se  Se166  1  0.75751051  0.57622234  0.94273471  1
  Se  Se167  1  0.75056140  0.91879317  0.44839590  1
  Se  Se168  1  0.75109666  0.90884624  0.94176456  1
  Se  Se169  1  0.25832490  0.07905097  0.44129175  1
  Se  Se170  1  0.24263981  0.08610448  0.95099100  1
  Se  Se171  1  0.24831258  0.41871376  0.45484386  1
  Se  Se172  1  0.25429342  0.41555504  0.93634103  1
  Se  Se173  1  0.24607978  0.75014385  0.44760845  1
  Se  Se174  1  0.24662714  0.75585427  0.94480402  1
  Se  Se175  1  0.58076334  0.08630628  0.44590102  1
  Se  Se176  1  0.59057375  0.08110785  0.93294768  1
  Se  Se177  1  0.59036778  0.41539281  0.44450467  1
  Se  Se178  1  0.59349454  0.40836950  0.93672853  1
  Se  Se179  1  0.57309691  0.75468551  0.45520944  1
  Se  Se180  1  0.59421696  0.73577306  0.93787705  1
  Se  Se181  1  0.91836813  0.08806886  0.45847749  1
  Se  Se182  1  0.92737855  0.07336121  0.93318208  1
  Se  Se183  1  0.92413830  0.40761799  0.43752956  1
  Se  Se184  1  0.92433728  0.40383790  0.94604519  1
  Se  Se185  1  0.91720792  0.74131145  0.44987708  1
  Se  Se186  1  0.91274834  0.75083103  0.94312797  1
  Se  Se187  1  0.24876916  0.24569926  0.31222890  1
  Se  Se188  1  0.24745364  0.25268042  0.80481314  1
  Se  Se189  1  0.24466153  0.58645738  0.30456789  1
  Se  Se190  1  0.25466675  0.59151604  0.80271429  1
  Se  Se191  1  0.24966587  0.91557468  0.30593899  1
  Se  Se192  1  0.24020708  0.91238446  0.80418226  1
  Se  Se193  1  0.58914328  0.25022270  0.30507349  1
  Se  Se194  1  0.57511196  0.24161868  0.79407192  1
  Se  Se195  1  0.58084490  0.59038310  0.30707360  1
  Se  Se196  1  0.58594661  0.58201114  0.79864673  1
  Se  Se197  1  0.57860849  0.90624696  0.31623146  1
  Se  Se198  1  0.58600903  0.91868362  0.79701396  1
  Se  Se199  1  0.91970861  0.25311556  0.30682286  1
  Se  Se200  1  0.91314500  0.24743907  0.80254660  1
  Se  Se201  1  0.90167386  0.57269857  0.30550163  1
  Se  Se202  1  0.91714039  0.58376715  0.80220515  1
  Se  Se203  1  0.91187580  0.90838592  0.31268900  1
  Se  Se204  1  0.91093824  0.91115956  0.80610347  1
  Se  Se205  1  0.09277179  0.09205785  0.31664929  1
  Se  Se206  1  0.08563990  0.08526801  0.80664852  1
  Se  Se207  1  0.08364019  0.41589046  0.30400710  1
  Se  Se208  1  0.08383256  0.41950244  0.80538135  1
  Se  Se209  1  0.08054714  0.75627955  0.31152353  1
  Se  Se210  1  0.07537234  0.74768890  0.79785638  1
  Se  Se211  1  0.41969276  0.08433026  0.30291614  1
  Se  Se212  1  0.41845426  0.09155507  0.80673317  1
  Se  Se213  1  0.42109500  0.42224352  0.31715023  1
  Se  Se214  1  0.41571250  0.41913364  0.79879716  1
  Se  Se215  1  0.40901050  0.74542109  0.30778041  1
  Se  Se216  1  0.41968434  0.75869096  0.79947989  1
  Se  Se217  1  0.76042157  0.08385154  0.31190366  1
  Se  Se218  1  0.74594770  0.07658678  0.79638151  1
  Se  Se219  1  0.74584171  0.41798624  0.30128491  1
  Se  Se220  1  0.75018757  0.41526976  0.80040380  1
  Se  Se221  1  0.74592703  0.75237506  0.30698519  1
  Se  Se222  1  0.74913396  0.74584750  0.80040677  1
  Se  Se223  1  0.25192166  0.07815762  0.19946681  1
  Se  Se224  1  0.23932898  0.08907308  0.68769025  1
  Se  Se225  1  0.24400880  0.42259797  0.18891806  1
  Se  Se226  1  0.24922901  0.42200126  0.70058713  1
  Se  Se227  1  0.25040980  0.74546578  0.19869077  1
  Se  Se228  1  0.25769766  0.74394804  0.69758826  1
  Se  Se229  1  0.58235342  0.09244328  0.18557762  1
  Se  Se230  1  0.57385151  0.09011767  0.69637405  1
  Se  Se231  1  0.57889514  0.42111800  0.20369660  1
  Se  Se232  1  0.58878389  0.41382931  0.69824524  1
  Se  Se233  1  0.58008133  0.75457197  0.19778532  1
  Se  Se234  1  0.58767254  0.74994017  0.69165918  1
  Se  Se235  1  0.91005859  0.09157085  0.19557794  1
  Se  Se236  1  0.90443423  0.08755955  0.68349592  1
  Se  Se237  1  0.91992243  0.41662190  0.20240986  1
  Se  Se238  1  0.91824391  0.41423909  0.69785126  1
  Se  Se239  1  0.91042195  0.76013124  0.18895603  1
  Se  Se240  1  0.92019810  0.74593450  0.69783792  1
  Se  Se241  1  0.08490594  0.25024286  0.19965657  1
  Se  Se242  1  0.07852348  0.25554687  0.70053053  1
  Se  Se243  1  0.08678279  0.57842412  0.18597768  1
  Se  Se244  1  0.08369767  0.58532381  0.69789790  1
  Se  Se245  1  0.08527950  0.90720329  0.19245084  1
  Se  Se246  1  0.09165975  0.90277034  0.69170091  1
  Se  Se247  1  0.42875391  0.24617331  0.18694593  1
  Se  Se248  1  0.40422066  0.25652438  0.70180149  1
  Se  Se249  1  0.41116524  0.58736099  0.20187509  1
  Se  Se250  1  0.41964363  0.58869169  0.69539893  1
  Se  Se251  1  0.41460727  0.91832534  0.20490981  1
  Se  Se252  1  0.42083516  0.91165031  0.68007282  1
  Se  Se253  1  0.74571183  0.25519068  0.20000204  1
  Se  Se254  1  0.74675222  0.24965188  0.69444118  1
  Se  Se255  1  0.74494576  0.60843959  0.19683276  1
  Se  Se256  1  0.75112810  0.58531206  0.69545388  1
  Se  Se257  1  0.75336269  0.91645561  0.18991044  1
  Se  Se258  1  0.74928585  0.91585191  0.69287788  1
