# generated using pymatgen
data_In86Cu29Se144
_symmetry_space_group_name_H-M   'P 1'
_cell_length_a   17.58393531
_cell_length_b   17.57903202
_cell_length_c   23.43035250
_cell_angle_alpha   89.98286948
_cell_angle_beta   90.02697752
_cell_angle_gamma   90.00428045
_symmetry_Int_Tables_number   1
_chemical_formula_structural   In86Cu29Se144
_chemical_formula_sum   'In86 Cu29 Se144'
_cell_volume   7242.52141975
_cell_formula_units_Z   1
loop_
 _symmetry_equiv_pos_site_id
 _symmetry_equiv_pos_as_xyz
  1  'x, y, z'
loop_
 _atom_site_type_symbol
 _atom_site_label
 _atom_site_symmetry_multiplicity
 _atom_site_fract_x
 _atom_site_fract_y
 _atom_site_fract_z
 _atom_site_occupancy
  In  In0  1  -0.01501294  0.17936635  0.13541930  1
  In  In1  1  0.00186942  0.15392337  0.62385142  1
  In  In2  1  -0.01019345  0.48375213  0.11186180  1
  In  In3  1  -0.00336811  0.51135436  0.62103098  1
  In  In4  1  0.00315292  0.84438721  0.13076068  1
  In  In5  1  -0.00292791  0.83283974  0.61381990  1
  In  In6  1  0.34772654  0.17809332  0.12170375  1
  In  In7  1  0.33630954  0.16865705  0.61938088  1
  In  In8  1  0.33467346  0.49391273  0.12715733  1
  In  In9  1  0.33646442  0.48069134  0.62475787  1
  In  In10  1  0.33531307  0.82072174  0.12790330  1
  In  In11  1  0.32963053  0.84830700  0.62618512  1
  In  In12  1  0.66642939  0.18008503  0.11670646  1
  In  In13  1  0.66829756  0.18833233  0.62828791  1
  In  In14  1  0.66689710  0.49089794  0.12098579  1
  In  In15  1  0.65587017  0.49234238  0.61577288  1
  In  In16  1  0.65983095  0.82282422  0.11890733  1
  In  In17  1  0.67339296  0.82485757  0.62411526  1
  In  In18  1  0.16140685  0.00634907  0.37888875  1
  In  In19  1  0.18085618  -0.00545540  0.86893845  1
  In  In20  1  0.15978366  0.33062260  0.36453100  1
  In  In21  1  0.17845517  0.32694129  0.88020925  1
  In  In22  1  0.18149545  0.66360415  0.36995328  1
  In  In23  1  0.15663420  0.66763510  0.87619166  1
  In  In24  1  0.50619832  0.01274980  0.37590351  1
  In  In25  1  0.49033166  0.01146603  0.87892153  1
  In  In26  1  0.50495521  0.33302758  0.36907006  1
  In  In27  1  0.49591174  0.33409214  0.87940733  1
  In  In28  1  0.48937959  0.65482646  0.36288154  1
  In  In29  1  0.50599869  0.66032932  0.88533161  1
  In  In30  1  0.83167951  -0.01338806  0.37546269  1
  In  In31  1  0.83198942  0.00205541  0.88130647  1
  In  In32  1  0.83852131  0.34360804  0.36753285  1
  In  In33  1  0.80917024  0.35635350  0.90468091  1
  In  In34  1  0.82580896  0.67075999  0.37300834  1
  In  In35  1  0.83587050  0.66898577  0.88454143  1
  In  In36  1  0.00874391  0.17913876  0.36677715  1
  In  In37  1  -0.00774677  0.16735298  0.88262361  1
  In  In38  1  0.00211154  0.48212666  0.36763144  1
  In  In39  1  -0.00583560  0.50059280  0.89410283  1
  In  In40  1  -0.00580487  0.83811678  0.37470614  1
  In  In41  1  0.00071540  0.82981808  0.87656725  1
  In  In42  1  0.33346676  0.16915690  0.37667917  1
  In  In43  1  0.34034869  0.17779393  0.86676611  1
  In  In44  1  0.33591002  0.51063780  0.36276464  1
  In  In45  1  0.34873778  0.48727553  0.88560888  1
  In  In46  1  0.33287308  0.81845870  0.37273805  1
  In  In47  1  0.32608893  0.84957157  0.87212029  1
  In  In48  1  0.65295719  0.17694131  0.37550364  1
  In  In49  1  0.64408461  0.19359450  0.90222636  1
  In  In50  1  0.66521596  0.49740968  0.36841283  1
  In  In51  1  0.66456659  0.49169753  0.88711761  1
  In  In52  1  0.67720531  0.83269960  0.37208504  1
  In  In53  1  0.67305985  0.82639842  0.88302335  1
  In  In54  1  0.16111687  -0.01529500  0.13556573  1
  In  In55  1  0.17040304  0.00661926  0.61433173  1
  In  In56  1  0.15317958  0.35269905  0.14582616  1
  In  In57  1  0.18685739  0.33458682  0.62322853  1
  In  In58  1  0.18762558  0.65784429  0.13964669  1
  In  In59  1  0.15654861  0.66827409  0.61772259  1
  In  In60  1  0.51019184  0.00878678  0.11424708  1
  In  In61  1  0.48302827  0.00256689  0.62611143  1
  In  In62  1  0.49909408  0.32926419  0.12273777  1
  In  In63  1  0.49995831  0.33038455  0.62151603  1
  In  In64  1  0.50112795  0.66211500  0.12667297  1
  In  In65  1  0.51427212  0.66199476  0.62156111  1
  In  In66  1  0.84118623  0.00928883  0.12104343  1
  In  In67  1  0.84347210  -0.00341476  0.62742240  1
  In  In68  1  0.82754467  0.33134587  0.11852594  1
  In  In69  1  0.81751483  0.33267267  0.62802235  1
  In  In70  1  0.82133093  0.65213445  0.11845664  1
  In  In71  1  0.83289236  0.66457937  0.61501547  1
  In  In72  1  0.83522342  0.16507165  0.50528654  1
  In  In73  1  0.33213529  0.66760504  0.74684544  1
  In  In74  1  0.00014134  0.67096369  0.75094889  1
  In  In75  1  0.66530795  0.00490074  0.75185778  1
  In  In76  1  0.00106030  0.33196899  0.75653383  1
  In  In77  1  0.49920694  0.83020848  0.50171889  1
  In  In78  1  0.33396265  0.00265444  0.25448965  1
  In  In79  1  0.16160492  0.16988731  0.00502356  1
  In  In80  1  0.67203540  0.66052569  0.75843871  1
  In  In81  1  0.00504103  0.00113754  0.75339347  1
  In  In82  1  0.67074880  0.00733712  0.24597201  1
  In  In83  1  0.16917128  0.83005544  0.00155733  1
  In  In84  1  -0.00202600  0.66215201  0.24913105  1
  In  In85  1  0.16670458  0.49792667  0.49294965  1
  Cu  Cu86  1  -0.00696073  0.66860971  0.49373780  1
  Cu  Cu87  1  0.66660615  0.00169705  0.49727020  1
  Cu  Cu88  1  0.33956253  0.00351618  -0.00180735  1
  Cu  Cu89  1  0.17465281  0.49506535  0.75742076  1
  Cu  Cu90  1  0.49957542  0.83257732  0.24485396  1
  Cu  Cu91  1  0.82610649  0.49301332  0.23997284  1
  Cu  Cu92  1  0.66742169  -0.00757782  0.00026812  1
  Cu  Cu93  1  0.33934976  0.66200223  0.00656163  1
  Cu  Cu94  1  0.33143322  0.33748533  0.00320802  1
  Cu  Cu95  1  0.17530624  0.16675531  0.74420378  1
  Cu  Cu96  1  0.00027801  -0.00064593  0.49712395  1
  Cu  Cu97  1  0.66616486  0.66685976  0.00556804  1
  Cu  Cu98  1  0.00241980  0.33169686  0.49264826  1
  Cu  Cu99  1  -0.00120634  0.00151217  0.00672444  1
  Cu  Cu100  1  0.33149512  0.00221121  0.49807360  1
  Cu  Cu101  1  0.00400340  0.67030035  0.00618929  1
  Cu  Cu102  1  0.66669925  0.66149669  0.49373395  1
  Cu  Cu103  1  0.34045576  0.33028182  0.49533205  1
  Cu  Cu104  1  0.82728248  0.49618458  0.75607672  1
  Cu  Cu105  1  0.16821594  0.16273055  0.25142015  1
  Cu  Cu106  1  0.49631063  0.17234650  0.75417444  1
  Cu  Cu107  1  0.49804370  0.48342985  0.74852322  1
  Cu  Cu108  1  0.83153563  0.83095414  0.24981958  1
  Cu  Cu109  1  0.82160426  0.17440231  0.76199677  1
  Cu  Cu110  1  0.66596047  0.33948011  0.49790943  1
  Cu  Cu111  1  0.33614802  0.66243218  0.49398740  1
  Cu  Cu112  1  0.83535390  0.16791666  0.24612991  1
  Cu  Cu113  1  0.49661775  0.83732857  0.75582578  1
  Cu  Cu114  1  0.50242798  0.49791419  0.24388348  1
  Se  Se115  1  0.07892178  0.07704812  0.06869560  1
  Se  Se116  1  0.08243121  0.08751518  0.54709811  1
  Se  Se117  1  0.09759296  0.41535722  0.05634654  1
  Se  Se118  1  0.07948115  0.40994739  0.56009523  1
  Se  Se119  1  0.08589908  0.74437797  0.06825583  1
  Se  Se120  1  0.08021884  0.74912020  0.54622061  1
  Se  Se121  1  0.41927927  0.09000126  0.05066391  1
  Se  Se122  1  0.41856073  0.08445674  0.54888418  1
  Se  Se123  1  0.41914931  0.41861210  0.05425446  1
  Se  Se124  1  0.42099728  0.41582040  0.54958489  1
  Se  Se125  1  0.42083743  0.74990425  0.05607143  1
  Se  Se126  1  0.40788413  0.74105982  0.56312098  1
  Se  Se127  1  0.74310488  0.07865430  0.05754405  1
  Se  Se128  1  0.74146127  0.07754755  0.56603320  1
  Se  Se129  1  0.75704156  0.42314162  0.04888922  1
  Se  Se130  1  0.75362465  0.41812736  0.55214172  1
  Se  Se131  1  0.75515063  0.75191711  0.05195037  1
  Se  Se132  1  0.74694070  0.74781013  0.54864074  1
  Se  Se133  1  0.24800378  0.26136889  0.06426861  1
  Se  Se134  1  0.25238810  0.25040069  0.54823491  1
  Se  Se135  1  0.25249402  0.58211225  0.05849050  1
  Se  Se136  1  0.25770196  0.58344421  0.55929215  1
  Se  Se137  1  0.25866301  0.92512930  0.05941133  1
  Se  Se138  1  0.24918999  0.91456948  0.54818533  1
  Se  Se139  1  0.58052022  0.25503142  0.04713867  1
  Se  Se140  1  0.58593002  0.25102265  0.55049959  1
  Se  Se141  1  0.58304022  0.58142289  0.05615092  1
  Se  Se142  1  0.58013537  0.58006612  0.54541316  1
  Se  Se143  1  0.58001632  0.91010493  0.05114921  1
  Se  Se144  1  0.58804468  0.92314694  0.56259374  1
  Se  Se145  1  0.91062998  0.24009689  0.05417976  1
  Se  Se146  1  0.92551108  0.26012808  0.56328252  1
  Se  Se147  1  0.91588620  0.58326816  0.05042185  1
  Se  Se148  1  0.91406817  0.58041724  0.54644793  1
  Se  Se149  1  0.91774613  0.91304837  0.05651356  1
  Se  Se150  1  0.91172818  0.91912197  0.54931216  1
  Se  Se151  1  0.08914670  0.25079000  0.44323314  1
  Se  Se152  1  0.07277702  0.26230481  0.94596408  1
  Se  Se153  1  0.07483457  0.58814881  0.43402529  1
  Se  Se154  1  0.08713047  0.58751796  0.95163909  1
  Se  Se155  1  0.08240670  0.91463534  0.44425348  1
  Se  Se156  1  0.08172895  0.92820802  0.94262851  1
  Se  Se157  1  0.42470508  0.24884278  0.44115251  1
  Se  Se158  1  0.40907894  0.24970544  0.94746221  1
  Se  Se159  1  0.41713874  0.57900762  0.44133476  1
  Se  Se160  1  0.42301843  0.57833247  0.95286398  1
  Se  Se161  1  0.41321648  0.92151936  0.43753587  1
  Se  Se162  1  0.41598042  0.91458457  0.94423760  1
  Se  Se163  1  0.75120368  0.25635923  0.44209047  1
  Se  Se164  1  0.77014114  0.22932853  0.95071562  1
  Se  Se165  1  0.74964877  0.57914653  0.43925128  1
  Se  Se166  1  0.74744757  0.58636584  0.94692398  1
  Se  Se167  1  0.74763222  0.91381805  0.44879392  1
  Se  Se168  1  0.75530794  0.91256049  0.94875148  1
  Se  Se169  1  0.24950147  0.08688819  0.44478256  1
  Se  Se170  1  0.25436786  0.08323575  0.94121431  1
  Se  Se171  1  0.25856634  0.41042641  0.43467613  1
  Se  Se172  1  0.24705620  0.41967222  0.94907877  1
  Se  Se173  1  0.24933428  0.74696982  0.44737971  1
  Se  Se174  1  0.26161065  0.74095115  0.94095520  1
  Se  Se175  1  0.58453394  0.08927312  0.44973218  1
  Se  Se176  1  0.58053579  0.07762746  0.95113002  1
  Se  Se177  1  0.58285425  0.41853023  0.44100745  1
  Se  Se178  1  0.57863654  0.41015159  0.95138827  1
  Se  Se179  1  0.58377464  0.74396386  0.43537250  1
  Se  Se180  1  0.58370235  0.75076503  0.95011223  1
  Se  Se181  1  0.92070890  0.08218601  0.43718250  1
  Se  Se182  1  0.91576375  0.08172104  0.95130616  1
  Se  Se183  1  0.91757066  0.41676761  0.44477466  1
  Se  Se184  1  0.91823774  0.41639426  0.96205400  1
  Se  Se185  1  0.90975291  0.75321460  0.44100319  1
  Se  Se186  1  0.92264239  0.75343071  0.94963180  1
  Se  Se187  1  0.25164831  0.24575592  0.30417127  1
  Se  Se188  1  0.24971593  0.25508829  0.80003638  1
  Se  Se189  1  0.24154503  0.57792277  0.29451858  1
  Se  Se190  1  0.25125763  0.57960184  0.81558622  1
  Se  Se191  1  0.24529451  0.91210362  0.31235534  1
  Se  Se192  1  0.24845925  0.91453155  0.79365239  1
  Se  Se193  1  0.59251556  0.25799505  0.29813494  1
  Se  Se194  1  0.58131250  0.24934675  0.81100725  1
  Se  Se195  1  0.58515242  0.58333921  0.29826215  1
  Se  Se196  1  0.57393562  0.56885442  0.80822210  1
  Se  Se197  1  0.57786731  0.91373255  0.30659022  1
  Se  Se198  1  0.58116730  0.91204732  0.81522276  1
  Se  Se199  1  0.91688661  0.25397692  0.30103981  1
  Se  Se200  1  0.90518863  0.25484170  0.81862414  1
  Se  Se201  1  0.90457230  0.57019167  0.30596234  1
  Se  Se202  1  0.91253955  0.57571152  0.81144029  1
  Se  Se203  1  0.91387964  0.91658561  0.30042752  1
  Se  Se204  1  0.91048634  0.91145957  0.80797680  1
  Se  Se205  1  0.08196256  0.08133452  0.30350396  1
  Se  Se206  1  0.09382449  0.09757295  0.81123675  1
  Se  Se207  1  0.09075673  0.42139618  0.29471875  1
  Se  Se208  1  0.08600000  0.42580920  0.81757863  1
  Se  Se209  1  0.08514256  0.75118969  0.31030636  1
  Se  Se210  1  0.09620020  0.76561586  0.80249432  1
  Se  Se211  1  0.43020706  0.09665029  0.30316665  1
  Se  Se212  1  0.41268282  0.08221462  0.80063001  1
  Se  Se213  1  0.42037794  0.41937264  0.30281665  1
  Se  Se214  1  0.41127497  0.40871957  0.80460681  1
  Se  Se215  1  0.41462025  0.74928984  0.29730133  1
  Se  Se216  1  0.42285587  0.74924957  0.81368067  1
  Se  Se217  1  0.75755834  0.09282244  0.31350523  1
  Se  Se218  1  0.74260566  0.09316765  0.82026769  1
  Se  Se219  1  0.74512821  0.41132017  0.29848122  1
  Se  Se220  1  0.74780366  0.41524290  0.81363316  1
  Se  Se221  1  0.74522163  0.74681636  0.29801826  1
  Se  Se222  1  0.76450400  0.75708834  0.80724396  1
  Se  Se223  1  0.24819395  0.08953141  0.18690123  1
  Se  Se224  1  0.25192234  0.08311683  0.68730489  1
  Se  Se225  1  0.27806487  0.39079148  0.19614728  1
  Se  Se226  1  0.25474304  0.41293257  0.70183666  1
  Se  Se227  1  0.24097843  0.76692798  0.20039152  1
  Se  Se228  1  0.23955137  0.75437548  0.68743582  1
  Se  Se229  1  0.57778908  0.09607371  0.19027322  1
  Se  Se230  1  0.57527261  0.09346414  0.68998937  1
  Se  Se231  1  0.58429184  0.41190945  0.19232852  1
  Se  Se232  1  0.58684802  0.41036357  0.69215132  1
  Se  Se233  1  0.58465834  0.74768101  0.19572397  1
  Se  Se234  1  0.57795621  0.75589800  0.69804713  1
  Se  Se235  1  0.91876276  0.07740296  0.20069691  1
  Se  Se236  1  0.90469065  0.09702183  0.70148818  1
  Se  Se237  1  0.91349776  0.41143965  0.18993138  1
  Se  Se238  1  0.91359531  0.42473393  0.69297366  1
  Se  Se239  1  0.90663247  0.74893785  0.18679478  1
  Se  Se240  1  0.90911375  0.75492366  0.68802465  1
  Se  Se241  1  0.08135334  0.24786568  0.20235472  1
  Se  Se242  1  0.08821177  0.24565818  0.68833271  1
  Se  Se243  1  0.07849290  0.57317587  0.18370688  1
  Se  Se244  1  0.09453715  0.57353618  0.69603222  1
  Se  Se245  1  0.08021031  0.91280722  0.20825727  1
  Se  Se246  1  0.08472053  0.91602344  0.68356342  1
  Se  Se247  1  0.40864850  0.26281842  0.19769981  1
  Se  Se248  1  0.41599298  0.25026463  0.69182688  1
  Se  Se249  1  0.41474218  0.58318887  0.19549449  1
  Se  Se250  1  0.42669488  0.57480781  0.69006319  1
  Se  Se251  1  0.42550484  0.92020055  0.18698251  1
  Se  Se252  1  0.41443378  0.91786239  0.70068860  1
  Se  Se253  1  0.75008635  0.24825793  0.19302771  1
  Se  Se254  1  0.74372645  0.25997322  0.70659032  1
  Se  Se255  1  0.74180698  0.58081109  0.19380645  1
  Se  Se256  1  0.75449533  0.57496775  0.68911200  1
  Se  Se257  1  0.75339021  0.91121094  0.18643388  1
  Se  Se258  1  0.75624103  0.91057925  0.69459559  1
