# generated using pymatgen
data_In86Cu29Se144
_symmetry_space_group_name_H-M   'P 1'
_cell_length_a   17.57471533
_cell_length_b   17.57229009
_cell_length_c   23.43017846
_cell_angle_alpha   90.01966148
_cell_angle_beta   90.02913409
_cell_angle_gamma   90.00080381
_symmetry_Int_Tables_number   1
_chemical_formula_structural   In86Cu29Se144
_chemical_formula_sum   'In86 Cu29 Se144'
_cell_volume   7235.89370155
_cell_formula_units_Z   1
loop_
 _symmetry_equiv_pos_site_id
 _symmetry_equiv_pos_as_xyz
  1  'x, y, z'
loop_
 _atom_site_type_symbol
 _atom_site_label
 _atom_site_symmetry_multiplicity
 _atom_site_fract_x
 _atom_site_fract_y
 _atom_site_fract_z
 _atom_site_occupancy
  In  In0  1  0.00876697  0.15943309  0.13554665  1
  In  In1  1  0.01310946  0.17393729  0.61310518  1
  In  In2  1  0.01115818  0.49026185  0.12943941  1
  In  In3  1  0.00978887  0.48319185  0.63589606  1
  In  In4  1  -0.01183939  0.83749727  0.13875361  1
  In  In5  1  0.00426845  0.81767426  0.62492170  1
  In  In6  1  0.32581138  0.15899629  0.11987593  1
  In  In7  1  0.33086653  0.16650076  0.62559756  1
  In  In8  1  0.33841732  0.50269961  0.12133788  1
  In  In9  1  0.31442408  0.50349024  0.62513748  1
  In  In10  1  0.32469963  0.83736557  0.13420173  1
  In  In11  1  0.33538139  0.84370150  0.62164280  1
  In  In12  1  0.66393718  0.17062727  0.13388176  1
  In  In13  1  0.65548852  0.14964535  0.60609401  1
  In  In14  1  0.65444452  0.49258327  0.12480391  1
  In  In15  1  0.66636217  0.50226636  0.62209847  1
  In  In16  1  0.68560226  0.83774115  0.12775295  1
  In  In17  1  0.67831922  0.84405055  0.62249997  1
  In  In18  1  0.16774199  -0.00156372  0.37578503  1
  In  In19  1  0.17919229  -0.00655926  0.87038960  1
  In  In20  1  0.15624409  0.33934912  0.38201444  1
  In  In21  1  0.16768722  0.33321051  0.87570439  1
  In  In22  1  0.16702135  0.66755618  0.37842611  1
  In  In23  1  0.15259842  0.66837606  0.87366353  1
  In  In24  1  0.50860729  0.01312081  0.36736063  1
  In  In25  1  0.50344895  0.01274343  0.87282231  1
  In  In26  1  0.49416144  0.31582730  0.37985820  1
  In  In27  1  0.49225736  0.33860202  0.88363720  1
  In  In28  1  0.49857461  0.68130541  0.37258981  1
  In  In29  1  0.48831778  0.66105273  0.87848246  1
  In  In30  1  0.84183608  0.01039067  0.36159412  1
  In  In31  1  0.82165233  0.00672337  0.87675455  1
  In  In32  1  0.81948273  0.30910495  0.35133799  1
  In  In33  1  0.83783292  0.33028030  0.86865891  1
  In  In34  1  0.83775690  0.65898695  0.37155415  1
  In  In35  1  0.85227263  0.66851269  0.87755458  1
  In  In36  1  0.00088908  0.16837489  0.37397887  1
  In  In37  1  -0.00438340  0.18152556  0.87416408  1
  In  In38  1  0.00347646  0.49835769  0.36835548  1
  In  In39  1  0.00832557  0.51497345  0.86853082  1
  In  In40  1  0.00523441  0.84601036  0.36285501  1
  In  In41  1  0.00517337  0.82148859  0.87581827  1
  In  In42  1  0.34226312  0.15599075  0.38316197  1
  In  In43  1  0.32988324  0.16866025  0.87314069  1
  In  In44  1  0.31713149  0.50299071  0.38209092  1
  In  In45  1  0.34080143  0.48982003  0.88199503  1
  In  In46  1  0.32166997  0.82393483  0.36819017  1
  In  In47  1  0.31410162  0.84294678  0.86740334  1
  In  In48  1  0.66490565  0.16057422  0.37537902  1
  In  In49  1  0.66787492  0.15416851  0.87595345  1
  In  In50  1  0.68194874  0.49870106  0.37289101  1
  In  In51  1  0.66214757  0.48811295  0.88037644  1
  In  In52  1  0.66036022  0.84521240  0.37221713  1
  In  In53  1  0.66504941  0.85169382  0.87646001  1
  In  In54  1  0.16123634  0.00310181  0.13245094  1
  In  In55  1  0.17603935  0.00751207  0.61696367  1
  In  In56  1  0.16376446  0.32901175  0.11769502  1
  In  In57  1  0.16361186  0.33451906  0.62444701  1
  In  In58  1  0.17204148  0.66102939  0.13077303  1
  In  In59  1  0.16468903  0.65090245  0.61082668  1
  In  In60  1  0.48799725  0.00965160  0.12997292  1
  In  In61  1  0.49431283  0.00543975  0.62761379  1
  In  In62  1  0.50403694  0.33248789  0.12254081  1
  In  In63  1  0.50467256  0.31450140  0.62707906  1
  In  In64  1  0.49926450  0.65130489  0.12695531  1
  In  In65  1  0.49465673  0.66739856  0.62297879  1
  In  In66  1  0.84896285  -0.00657945  0.14993037  1
  In  In67  1  0.82200108  0.00139655  0.62137588  1
  In  In68  1  0.84164163  0.31442043  0.14314769  1
  In  In69  1  0.84983675  0.32947450  0.62590927  1
  In  In70  1  0.83725830  0.68508421  0.12756244  1
  In  In71  1  0.84177557  0.67614953  0.62544041  1
  In  In72  1  0.84135383  0.49573077  0.49497113  1
  In  In73  1  0.00403210  0.00102783  0.74530881  1
  In  In74  1  0.83078839  0.49770245  0.00389020  1
  In  In75  1  0.67263033  0.32708242  0.75399427  1
  In  In76  1  0.50014856  0.83029581  0.00075458  1
  In  In77  1  0.49583136  0.49841694  0.50371814  1
  In  In78  1  0.83603375  0.84091119  0.49114212  1
  In  In79  1  0.32996194  0.33087851  0.25680225  1
  In  In80  1  0.49833563  0.84015477  0.49921662  1
  In  In81  1  0.16317684  0.83336200  -0.00326083  1
  In  In82  1  0.66447354  0.66693466  0.24643224  1
  In  In83  1  0.83070767  0.16484175  0.00954076  1
  In  In84  1  0.67182684  0.67177047  0.74319322  1
  In  In85  1  0.32799353  0.67137166  0.74860848  1
  Cu  Cu86  1  0.00604180  0.66083532  0.49732604  1
  Cu  Cu87  1  0.33186931  0.32769153  0.00038408  1
  Cu  Cu88  1  0.00151333  0.66847568  0.00146182  1
  Cu  Cu89  1  0.16818989  0.50480438  0.25247481  1
  Cu  Cu90  1  0.50134203  0.16532558  0.25286257  1
  Cu  Cu91  1  0.83767368  0.49812799  0.24803701  1
  Cu  Cu92  1  0.33568905  0.00718223  -0.00369219  1
  Cu  Cu93  1  0.66872317  0.66691779  0.00851433  1
  Cu  Cu94  1  0.66806259  -0.00072218  0.00292208  1
  Cu  Cu95  1  0.49887382  0.49309582  0.75746522  1
  Cu  Cu96  1  0.32641263  0.32857465  0.50362969  1
  Cu  Cu97  1  0.49989243  0.84773626  0.75007707  1
  Cu  Cu98  1  0.49455707  0.16242453  0.74793653  1
  Cu  Cu99  1  -0.00377174  0.00038341  0.01342724  1
  Cu  Cu100  1  0.00797763  0.33789798  -0.00183694  1
  Cu  Cu101  1  0.00084303  -0.00192864  0.49193469  1
  Cu  Cu102  1  0.16578443  0.16238900  0.25327741  1
  Cu  Cu103  1  0.16291301  0.83230466  0.25293254  1
  Cu  Cu104  1  0.16535868  0.17277127  0.74545253  1
  Cu  Cu105  1  0.83370267  0.16904518  0.74636123  1
  Cu  Cu106  1  0.66266892  0.32995944  0.00534911  1
  Cu  Cu107  1  0.00035024  0.33313355  0.49617595  1
  Cu  Cu108  1  0.67111306  0.32701038  0.49390803  1
  Cu  Cu109  1  0.83518248  0.83780896  0.74795246  1
  Cu  Cu110  1  0.33265350  0.65657374  0.00388562  1
  Cu  Cu111  1  0.16490636  0.49686673  0.75039900  1
  Cu  Cu112  1  0.49514328  0.49566676  0.24734323  1
  Cu  Cu113  1  0.49532390  0.83927021  0.24998437  1
  Cu  Cu114  1  0.33452555  0.00039206  0.49803121  1
  Se  Se115  1  0.08503304  0.08419332  0.05840656  1
  Se  Se116  1  0.08509195  0.07987447  0.54746310  1
  Se  Se117  1  0.08985543  0.42294952  0.05050691  1
  Se  Se118  1  0.08077812  0.41708667  0.55289675  1
  Se  Se119  1  0.07824647  0.75003505  0.06465474  1
  Se  Se120  1  0.08600120  0.74848794  0.54923652  1
  Se  Se121  1  0.41952638  0.08732682  0.05087624  1
  Se  Se122  1  0.41451702  0.08386380  0.55505413  1
  Se  Se123  1  0.41529911  0.41125186  0.05568156  1
  Se  Se124  1  0.41026787  0.40649261  0.56546512  1
  Se  Se125  1  0.40681386  0.74461622  0.06256172  1
  Se  Se126  1  0.40711983  0.74307822  0.55314925  1
  Se  Se127  1  0.74710884  0.07225661  0.06931913  1
  Se  Se128  1  0.76195064  0.08850577  0.54636731  1
  Se  Se129  1  0.75065740  0.40078393  0.06634075  1
  Se  Se130  1  0.74604872  0.40809513  0.55691457  1
  Se  Se131  1  0.75440953  0.75465638  0.05168860  1
  Se  Se132  1  0.74820343  0.74671006  0.55437786  1
  Se  Se133  1  0.24654221  0.24420672  0.05129576  1
  Se  Se134  1  0.24295442  0.24562060  0.55719689  1
  Se  Se135  1  0.24399108  0.57846641  0.05564325  1
  Se  Se136  1  0.25819849  0.58053177  0.54362306  1
  Se  Se137  1  0.25509565  0.92403820  0.05566402  1
  Se  Se138  1  0.25036184  0.91532658  0.54843018  1
  Se  Se139  1  0.58301645  0.24165829  0.05659719  1
  Se  Se140  1  0.58056004  0.24995210  0.54621509  1
  Se  Se141  1  0.58256736  0.57980311  0.05258652  1
  Se  Se142  1  0.59226174  0.59625738  0.55482947  1
  Se  Se143  1  0.58559434  0.92009472  0.06340775  1
  Se  Se144  1  0.59170084  0.92912807  0.55639000  1
  Se  Se145  1  0.92871517  0.25711328  0.05977490  1
  Se  Se146  1  0.91673658  0.24876114  0.54858316  1
  Se  Se147  1  0.92148413  0.58785329  0.06301891  1
  Se  Se148  1  0.92623493  0.58412635  0.56043653  1
  Se  Se149  1  0.91183425  0.91931235  0.06537784  1
  Se  Se150  1  0.92648631  0.92048182  0.56029864  1
  Se  Se151  1  0.08527150  0.24441345  0.44852217  1
  Se  Se152  1  0.08511619  0.24806809  0.94571104  1
  Se  Se153  1  0.08393840  0.57463911  0.44209331  1
  Se  Se154  1  0.08390333  0.58424421  0.94905914  1
  Se  Se155  1  0.08384085  0.91088816  0.44301868  1
  Se  Se156  1  0.07268139  0.92934059  0.94188622  1
  Se  Se157  1  0.41385542  0.24565475  0.45492536  1
  Se  Se158  1  0.41551555  0.24455511  0.94623930  1
  Se  Se159  1  0.41486336  0.59123503  0.44051267  1
  Se  Se160  1  0.42042974  0.57655927  0.95191720  1
  Se  Se161  1  0.41158005  0.92293153  0.43259278  1
  Se  Se162  1  0.40909010  0.91766513  0.93825031  1
  Se  Se163  1  0.75522872  0.24769637  0.43951997  1
  Se  Se164  1  0.74586453  0.25649942  0.94223444  1
  Se  Se165  1  0.74439952  0.59338311  0.44672439  1
  Se  Se166  1  0.74523145  0.59033967  0.94046110  1
  Se  Se167  1  0.74469983  0.93327534  0.43752744  1
  Se  Se168  1  0.75367232  0.91827498  0.95017573  1
  Se  Se169  1  0.24625593  0.08306331  0.44761773  1
  Se  Se170  1  0.24648220  0.08284376  0.94211154  1
  Se  Se171  1  0.24571943  0.41473409  0.45195933  1
  Se  Se172  1  0.24961957  0.41413082  0.94772238  1
  Se  Se173  1  0.24973653  0.75178909  0.44595142  1
  Se  Se174  1  0.25887979  0.74041740  0.94126222  1
  Se  Se175  1  0.57387713  0.09031389  0.44578403  1
  Se  Se176  1  0.58463711  0.08271467  0.95018597  1
  Se  Se177  1  0.59023875  0.41404737  0.43955628  1
  Se  Se178  1  0.58046528  0.41601708  0.95349506  1
  Se  Se179  1  0.59438095  0.74720614  0.44383083  1
  Se  Se180  1  0.59203369  0.74162279  0.93905809  1
  Se  Se181  1  0.91688522  0.08202166  0.44130643  1
  Se  Se182  1  0.92295660  0.07988355  0.94469414  1
  Se  Se183  1  0.91674997  0.40195718  0.43016743  1
  Se  Se184  1  0.92145676  0.41358846  0.93969399  1
  Se  Se185  1  0.92643212  0.74306855  0.43836982  1
  Se  Se186  1  0.91878076  0.75554924  0.95175919  1
  Se  Se187  1  0.24312251  0.24102299  0.31767856  1
  Se  Se188  1  0.24868633  0.25266322  0.80348996  1
  Se  Se189  1  0.25163753  0.58650257  0.30595973  1
  Se  Se190  1  0.24716854  0.57653248  0.81222453  1
  Se  Se191  1  0.24873405  0.91825130  0.30235996  1
  Se  Se192  1  0.24263661  0.91649271  0.79057447  1
  Se  Se193  1  0.58121604  0.25043054  0.30696868  1
  Se  Se194  1  0.57503156  0.24200441  0.81162324  1
  Se  Se195  1  0.57647191  0.57581627  0.31002982  1
  Se  Se196  1  0.58074188  0.58130549  0.80829762  1
  Se  Se197  1  0.58303062  0.92185008  0.29834298  1
  Se  Se198  1  0.58536432  0.92746107  0.80387798  1
  Se  Se199  1  0.94128653  0.26486388  0.30205504  1
  Se  Se200  1  0.91837593  0.25302988  0.79633515  1
  Se  Se201  1  0.91938609  0.58261980  0.30044354  1
  Se  Se202  1  0.91704268  0.58825213  0.80178909  1
  Se  Se203  1  0.90388516  0.90668825  0.29838735  1
  Se  Se204  1  0.91355041  0.91696404  0.81192277  1
  Se  Se205  1  0.08193355  0.07896807  0.30626628  1
  Se  Se206  1  0.08749593  0.09275822  0.80963487  1
  Se  Se207  1  0.08810008  0.41395909  0.30108058  1
  Se  Se208  1  0.08221862  0.41628975  0.80708373  1
  Se  Se209  1  0.08287069  0.74522742  0.30567031  1
  Se  Se210  1  0.09555242  0.76276379  0.80247024  1
  Se  Se211  1  0.41063795  0.08387616  0.30128865  1
  Se  Se212  1  0.41087218  0.08163295  0.80386062  1
  Se  Se213  1  0.41970679  0.42242148  0.31673835  1
  Se  Se214  1  0.41340351  0.40949202  0.80578469  1
  Se  Se215  1  0.41480188  0.74983672  0.29876565  1
  Se  Se216  1  0.42346559  0.76209816  0.80898706  1
  Se  Se217  1  0.75149550  0.09374787  0.30065235  1
  Se  Se218  1  0.75066591  0.08589995  0.79987798  1
  Se  Se219  1  0.74728999  0.41749077  0.29625572  1
  Se  Se220  1  0.75835152  0.43003002  0.80650452  1
  Se  Se221  1  0.75039792  0.75295523  0.31067004  1
  Se  Se222  1  0.75437101  0.75928145  0.81160106  1
  Se  Se223  1  0.25162815  0.08354850  0.19752589  1
  Se  Se224  1  0.24721380  0.08460287  0.69563246  1
  Se  Se225  1  0.24684251  0.42075467  0.19185536  1
  Se  Se226  1  0.24819980  0.41402161  0.69684959  1
  Se  Se227  1  0.24835757  0.74829471  0.20043400  1
  Se  Se228  1  0.24366005  0.75002593  0.68013145  1
  Se  Se229  1  0.58130040  0.08035984  0.19793445  1
  Se  Se230  1  0.58450115  0.08784399  0.69248610  1
  Se  Se231  1  0.58051919  0.41117239  0.19874414  1
  Se  Se232  1  0.58038437  0.42013011  0.69320400  1
  Se  Se233  1  0.57413668  0.75919557  0.18573411  1
  Se  Se234  1  0.57481463  0.76443023  0.68854161  1
  Se  Se235  1  0.90325200  0.10939561  0.20188815  1
  Se  Se236  1  0.91476205  0.09067752  0.68462253  1
  Se  Se237  1  0.92293866  0.41370179  0.19791173  1
  Se  Se238  1  0.90902597  0.41897905  0.69937983  1
  Se  Se239  1  0.91801761  0.74411873  0.20645029  1
  Se  Se240  1  0.91953046  0.75033180  0.70117714  1
  Se  Se241  1  0.09326151  0.25166377  0.19608441  1
  Se  Se242  1  0.07769685  0.25268226  0.69374674  1
  Se  Se243  1  0.08167764  0.58410370  0.19770779  1
  Se  Se244  1  0.08931994  0.58360231  0.69268679  1
  Se  Se245  1  0.08070881  0.91902296  0.20045697  1
  Se  Se246  1  0.09096859  0.91321682  0.68408651  1
  Se  Se247  1  0.41734212  0.24434585  0.19222078  1
  Se  Se248  1  0.41275707  0.24976376  0.69765348  1
  Se  Se249  1  0.41134729  0.58217291  0.19904986  1
  Se  Se250  1  0.42232702  0.57427602  0.69451544  1
  Se  Se251  1  0.40979090  0.92223155  0.19808550  1
  Se  Se252  1  0.41093381  0.92287136  0.69624213  1
  Se  Se253  1  0.74379257  0.24835904  0.20646225  1
  Se  Se254  1  0.74916779  0.24141066  0.68303196  1
  Se  Se255  1  0.75557338  0.57594647  0.18515417  1
  Se  Se256  1  0.76126630  0.57603892  0.68932970  1
  Se  Se257  1  0.74836986  0.91565090  0.20639707  1
  Se  Se258  1  0.74975674  0.92242491  0.69911677  1
