# generated using pymatgen
data_In86Cu29Se144
_symmetry_space_group_name_H-M   'P 1'
_cell_length_a   17.58198517
_cell_length_b   17.58017560
_cell_length_c   23.43716091
_cell_angle_alpha   90.00591322
_cell_angle_beta   89.98394134
_cell_angle_gamma   89.97594518
_symmetry_Int_Tables_number   1
_chemical_formula_structural   In86Cu29Se144
_chemical_formula_sum   'In86 Cu29 Se144'
_cell_volume   7244.29391213
_cell_formula_units_Z   1
loop_
 _symmetry_equiv_pos_site_id
 _symmetry_equiv_pos_as_xyz
  1  'x, y, z'
loop_
 _atom_site_type_symbol
 _atom_site_label
 _atom_site_symmetry_multiplicity
 _atom_site_fract_x
 _atom_site_fract_y
 _atom_site_fract_z
 _atom_site_occupancy
  In  In0  1  0.00713865  0.16526069  0.12923513  1
  In  In1  1  0.01127479  0.17950247  0.62142455  1
  In  In2  1  -0.00706436  0.50495618  0.12484232  1
  In  In3  1  -0.00723052  0.49065047  0.61920314  1
  In  In4  1  0.00065450  0.81718047  0.11754066  1
  In  In5  1  -0.00223827  0.84643222  0.62084039  1
  In  In6  1  0.33745561  0.16994325  0.11753148  1
  In  In7  1  0.32559820  0.15417826  0.62726463  1
  In  In8  1  0.33923435  0.48747927  0.12226202  1
  In  In9  1  0.34286709  0.51512250  0.60875291  1
  In  In10  1  0.34025607  0.83573529  0.11482606  1
  In  In11  1  0.36983088  0.81504533  0.65807877  1
  In  In12  1  0.66547385  0.17368941  0.12068482  1
  In  In13  1  0.66717269  0.17107765  0.62264341  1
  In  In14  1  0.67460674  0.50343312  0.11948706  1
  In  In15  1  0.66716204  0.50062195  0.62910366  1
  In  In16  1  0.65503144  0.83341074  0.12153215  1
  In  In17  1  0.65659269  0.83113527  0.63094575  1
  In  In18  1  0.18056460  0.00242006  0.38004263  1
  In  In19  1  0.17642296  -0.00353456  0.87951892  1
  In  In20  1  0.15245635  0.34190618  0.38119490  1
  In  In21  1  0.15072001  0.33019617  0.87023759  1
  In  In22  1  0.16241049  0.65758056  0.38034012  1
  In  In23  1  0.18574273  0.66611580  0.86937602  1
  In  In24  1  0.49650749  0.00066334  0.38741045  1
  In  In25  1  0.50058473  -0.00208155  0.86853816  1
  In  In26  1  0.50150563  0.33273875  0.38726385  1
  In  In27  1  0.50754083  0.32094058  0.87600533  1
  In  In28  1  0.50687744  0.65438029  0.38637606  1
  In  In29  1  0.49741103  0.66192760  0.87293704  1
  In  In30  1  0.82367648  0.00736965  0.38565139  1
  In  In31  1  0.82534377  0.00854701  0.87019072  1
  In  In32  1  0.84318310  0.32611775  0.38109115  1
  In  In33  1  0.84020142  0.33942886  0.86941301  1
  In  In34  1  0.82191336  0.67428339  0.38447067  1
  In  In35  1  0.81463746  0.66491907  0.87389192  1
  In  In36  1  -0.01591256  0.18770919  0.38198544  1
  In  In37  1  0.00149079  0.18500877  0.87631780  1
  In  In38  1  0.00828431  0.48238199  0.38227977  1
  In  In39  1  -0.00212286  0.47777588  0.87525521  1
  In  In40  1  -0.00690915  0.82004541  0.37956763  1
  In  In41  1  0.00387667  0.84687971  0.87583987  1
  In  In42  1  0.33543592  0.16019960  0.38859838  1
  In  In43  1  0.33815956  0.16033068  0.87665534  1
  In  In44  1  0.33301829  0.49990170  0.39019177  1
  In  In45  1  0.33736811  0.51499939  0.86998842  1
  In  In46  1  0.33643993  0.84049056  0.38069897  1
  In  In47  1  0.34070506  0.83180615  0.86964325  1
  In  In48  1  0.66483998  0.16987274  0.38459550  1
  In  In49  1  0.65585541  0.15466555  0.86142336  1
  In  In50  1  0.65773237  0.51106421  0.38337603  1
  In  In51  1  0.66608353  0.49574569  0.87368760  1
  In  In52  1  0.67114492  0.82602720  0.38476371  1
  In  In53  1  0.62125846  0.80198020  0.83218351  1
  In  In54  1  0.17939722  0.00665159  0.11537118  1
  In  In55  1  0.17822963  0.01700396  0.62773803  1
  In  In56  1  0.16838983  0.32598115  0.12634981  1
  In  In57  1  0.15687277  0.32319448  0.62591192  1
  In  In58  1  0.15740131  0.66766885  0.11880169  1
  In  In59  1  0.19450828  0.66947761  0.61956276  1
  In  In60  1  0.50773838  -0.00026594  0.11425923  1
  In  In61  1  0.49782124  -0.00104601  0.63039519  1
  In  In62  1  0.49861574  0.33155769  0.11434828  1
  In  In63  1  0.50874479  0.34623950  0.61974411  1
  In  In64  1  0.50688393  0.67077852  0.12055897  1
  In  In65  1  0.50140889  0.66957020  0.63009348  1
  In  In66  1  0.83449367  0.01092045  0.12572458  1
  In  In67  1  0.82122493  -0.00623786  0.61536594  1
  In  In68  1  0.83179084  0.34615902  0.12735903  1
  In  In69  1  0.83462511  0.33545096  0.62501554  1
  In  In70  1  0.83267456  0.65153750  0.12460130  1
  In  In71  1  0.81803266  0.65530047  0.62061819  1
  In  In72  1  0.33420492  0.33067391  0.24920138  1
  In  In73  1  0.33112923  0.33295607  0.74516728  1
  In  In74  1  0.82877871  0.83669508  -0.00552238  1
  In  In75  1  -0.00181893  0.65997910  0.74374212  1
  In  In76  1  -0.00637211  0.65759657  0.24784584  1
  In  In77  1  0.66671257  0.00579558  0.25515908  1
  In  In78  1  0.34001772  0.00261860  0.25594998  1
  In  In79  1  0.16781482  0.83878175  0.50555710  1
  In  In80  1  0.00446950  -0.00055234  0.25128748  1
  In  In81  1  0.33325548  0.66129108  0.26079708  1
  In  In82  1  0.17069114  0.50077742  -0.00282747  1
  In  In83  1  0.66935422  0.33470610  0.25326961  1
  In  In84  1  0.83372880  0.17112270  -0.00033368  1
  In  In85  1  -0.00113330  0.01005511  0.74827351  1
  Cu  Cu86  1  0.50296322  0.50094421  0.74639519  1
  Cu  Cu87  1  0.66423759  0.32955468  -0.00514923  1
  Cu  Cu88  1  -0.00731470  0.66363449  0.50264488  1
  Cu  Cu89  1  0.82473654  0.83302408  0.74129075  1
  Cu  Cu90  1  0.83049597  0.49662401  0.74734439  1
  Cu  Cu91  1  0.33529174  -0.00224315  -0.00728345  1
  Cu  Cu92  1  0.82346733  0.83385388  0.25838369  1
  Cu  Cu93  1  0.83146124  0.50284791  0.25323602  1
  Cu  Cu94  1  0.34156840  0.67335745  -0.00596912  1
  Cu  Cu95  1  0.33636509  0.33410404  -0.00490555  1
  Cu  Cu96  1  0.00317350  0.66442253  -0.00342253  1
  Cu  Cu97  1  0.50382103  0.50015292  0.25449851  1
  Cu  Cu98  1  0.33115940  0.32682381  0.50786403  1
  Cu  Cu99  1  0.66237409  0.67035432  0.50811556  1
  Cu  Cu100  1  0.65863904  -0.00699635  -0.01421629  1
  Cu  Cu101  1  0.01111041  0.00414847  0.00093973  1
  Cu  Cu102  1  0.83146139  0.17152855  0.74456422  1
  Cu  Cu103  1  0.16435519  0.17312593  0.25408639  1
  Cu  Cu104  1  0.16395569  0.82640935  0.23987192  1
  Cu  Cu105  1  -0.00045955  0.32957916  0.50284229  1
  Cu  Cu106  1  0.66997323  0.34073137  0.50339096  1
  Cu  Cu107  1  -0.00344499  0.00634174  0.50242508  1
  Cu  Cu108  1  0.50757625  0.82858954  0.24838272  1
  Cu  Cu109  1  0.16904701  0.49797461  0.74506947  1
  Cu  Cu110  1  0.66110936  0.66284385  -0.00801382  1
  Cu  Cu111  1  0.50429571  0.16819867  0.74734483  1
  Cu  Cu112  1  0.66141400  -0.00011904  0.50800836  1
  Cu  Cu113  1  0.17187031  0.83503082  0.75359910  1
  Cu  Cu114  1  0.33698381  -0.00509896  0.51038043  1
  Se  Se115  1  0.08817767  0.09076375  0.05538188  1
  Se  Se116  1  0.08425860  0.08154445  0.55705115  1
  Se  Se117  1  0.08140940  0.41564490  0.05972470  1
  Se  Se118  1  0.08499865  0.41256737  0.55448883  1
  Se  Se119  1  0.08831243  0.75119769  0.04371768  1
  Se  Se120  1  0.07705046  0.74195095  0.56245189  1
  Se  Se121  1  0.41536786  0.07969192  0.05217867  1
  Se  Se122  1  0.41917852  0.08475904  0.55830096  1
  Se  Se123  1  0.42008734  0.41925694  0.04636241  1
  Se  Se124  1  0.41910166  0.41690015  0.54888561  1
  Se  Se125  1  0.42629014  0.75312137  0.05030079  1
  Se  Se126  1  0.41128772  0.75123309  0.56528407  1
  Se  Se127  1  0.73833534  0.07087785  0.05068413  1
  Se  Se128  1  0.74914649  0.08967463  0.55031613  1
  Se  Se129  1  0.74680820  0.41085962  0.05124836  1
  Se  Se130  1  0.75276979  0.42284858  0.55795088  1
  Se  Se131  1  0.74460996  0.74053738  0.05589849  1
  Se  Se132  1  0.74589206  0.75570237  0.55978116  1
  Se  Se133  1  0.25334081  0.25545774  0.05291066  1
  Se  Se134  1  0.24714288  0.24361020  0.55973164  1
  Se  Se135  1  0.26298456  0.59230509  0.05769488  1
  Se  Se136  1  0.23908464  0.57531667  0.54385485  1
  Se  Se137  1  0.25192005  0.91463956  0.04899003  1
  Se  Se138  1  0.25936472  0.91415162  0.57188315  1
  Se  Se139  1  0.58163198  0.24511777  0.04822169  1
  Se  Se140  1  0.58477579  0.25464688  0.55280321  1
  Se  Se141  1  0.58392561  0.58138035  0.05329195  1
  Se  Se142  1  0.58218442  0.58353444  0.56109765  1
  Se  Se143  1  0.58157739  0.90986300  0.04535180  1
  Se  Se144  1  0.57783197  0.91518926  0.55919458  1
  Se  Se145  1  0.92168483  0.25631151  0.06280708  1
  Se  Se146  1  0.91391904  0.24795505  0.55550432  1
  Se  Se147  1  0.91773551  0.58417124  0.04965842  1
  Se  Se148  1  0.91001727  0.57925537  0.55501313  1
  Se  Se149  1  0.92381630  0.92524045  0.05833739  1
  Se  Se150  1  0.91317934  0.91679976  0.54818627  1
  Se  Se151  1  0.08583928  0.24551401  0.44985010  1
  Se  Se152  1  0.08285204  0.25608795  0.94979235  1
  Se  Se153  1  0.07661884  0.58181983  0.44849809  1
  Se  Se154  1  0.08130017  0.58768614  0.93170580  1
  Se  Se155  1  0.07459440  0.92350827  0.43968797  1
  Se  Se156  1  0.08911042  0.91560886  0.94853880  1
  Se  Se157  1  0.41829445  0.24697307  0.45298876  1
  Se  Se158  1  0.41876338  0.24643696  0.94502904  1
  Se  Se159  1  0.41039178  0.59008725  0.45288187  1
  Se  Se160  1  0.42009915  0.58017406  0.94728069  1
  Se  Se161  1  0.41832986  0.91221489  0.45456457  1
  Se  Se162  1  0.42048602  0.91600608  0.94049363  1
  Se  Se163  1  0.75010211  0.25407079  0.44903593  1
  Se  Se164  1  0.74187145  0.24818735  0.93295374  1
  Se  Se165  1  0.74568286  0.58633843  0.45326868  1
  Se  Se166  1  0.74937220  0.57651246  0.94679219  1
  Se  Se167  1  0.74574317  0.91864757  0.45103650  1
  Se  Se168  1  0.73969243  0.91353795  0.92791149  1
  Se  Se169  1  0.25109258  0.07847570  0.45739589  1
  Se  Se170  1  0.24951981  0.08753169  0.94855129  1
  Se  Se171  1  0.24966702  0.40750434  0.44940820  1
  Se  Se172  1  0.25747374  0.41249705  0.93246590  1
  Se  Se173  1  0.25259492  0.74587482  0.44255051  1
  Se  Se174  1  0.25386728  0.75262929  0.94195186  1
  Se  Se175  1  0.58196847  0.08516020  0.45133918  1
  Se  Se176  1  0.57842015  0.08639793  0.94047314  1
  Se  Se177  1  0.58157259  0.42185425  0.45150782  1
  Se  Se178  1  0.58059783  0.41459721  0.94302235  1
  Se  Se179  1  0.57959827  0.75116566  0.45101953  1
  Se  Se180  1  0.58813467  0.75074985  0.93401537  1
  Se  Se181  1  0.91500121  0.08892610  0.44720575  1
  Se  Se182  1  0.92411921  0.07610564  0.94048707  1
  Se  Se183  1  0.91437915  0.41598258  0.45222698  1
  Se  Se184  1  0.91482382  0.40946885  0.94857005  1
  Se  Se185  1  0.91017145  0.75225905  0.45405442  1
  Se  Se186  1  0.92187488  0.74403550  0.93551006  1
  Se  Se187  1  0.24972101  0.24401658  0.31641961  1
  Se  Se188  1  0.24645570  0.24565237  0.80957645  1
  Se  Se189  1  0.24059200  0.56658486  0.31151196  1
  Se  Se190  1  0.25394945  0.58317063  0.79389264  1
  Se  Se191  1  0.24114213  0.90487624  0.30363763  1
  Se  Se192  1  0.25403634  0.91945975  0.80544614  1
  Se  Se193  1  0.57595689  0.24657743  0.31081250  1
  Se  Se194  1  0.58734627  0.25516856  0.79698908  1
  Se  Se195  1  0.58387670  0.58761401  0.30556869  1
  Se  Se196  1  0.58480580  0.58035376  0.80482303  1
  Se  Se197  1  0.57729970  0.91284569  0.31309452  1
  Se  Se198  1  0.59879239  0.93784019  0.79826641  1
  Se  Se199  1  0.91986186  0.26068575  0.30100453  1
  Se  Se200  1  0.91629238  0.24975223  0.80033655  1
  Se  Se201  1  0.90932260  0.57950484  0.31866997  1
  Se  Se202  1  0.91144252  0.57571281  0.81063457  1
  Se  Se203  1  0.90943168  0.91231055  0.31283137  1
  Se  Se204  1  0.90686031  0.91010425  0.80254452  1
  Se  Se205  1  0.09178095  0.08661187  0.31472065  1
  Se  Se206  1  0.08691463  0.08854586  0.81531172  1
  Se  Se207  1  0.07942932  0.41265197  0.30224161  1
  Se  Se208  1  0.08271448  0.41746517  0.79644055  1
  Se  Se209  1  0.08797808  0.75194875  0.30549062  1
  Se  Se210  1  0.08454255  0.75422578  0.80728257  1
  Se  Se211  1  0.42927166  0.09449870  0.31189660  1
  Se  Se212  1  0.41922701  0.08795105  0.80156242  1
  Se  Se213  1  0.42178629  0.42190466  0.31298270  1
  Se  Se214  1  0.42296008  0.41938261  0.80770347  1
  Se  Se215  1  0.42531248  0.75715733  0.31237112  1
  Se  Se216  1  0.41773584  0.74424020  0.80201883  1
  Se  Se217  1  0.75826815  0.09856906  0.30951166  1
  Se  Se218  1  0.75042698  0.08280153  0.79401748  1
  Se  Se219  1  0.75279696  0.42519170  0.31672869  1
  Se  Se220  1  0.74829460  0.41341301  0.80270466  1
  Se  Se221  1  0.74239781  0.74656682  0.30711692  1
  Se  Se222  1  0.74971485  0.74420466  0.79545097  1
  Se  Se223  1  0.24744680  0.09280115  0.19534362  1
  Se  Se224  1  0.24736987  0.08893654  0.70719510  1
  Se  Se225  1  0.24329902  0.42500443  0.19402037  1
  Se  Se226  1  0.24987224  0.42405954  0.68033177  1
  Se  Se227  1  0.25263890  0.74913494  0.18695763  1
  Se  Se228  1  0.25200816  0.74671695  0.70259121  1
  Se  Se229  1  0.57726917  0.08975547  0.19037644  1
  Se  Se230  1  0.58778285  0.08596410  0.69254447  1
  Se  Se231  1  0.57708726  0.41960951  0.18958299  1
  Se  Se232  1  0.58698966  0.41404811  0.69852766  1
  Se  Se233  1  0.58917988  0.74549924  0.19538842  1
  Se  Se234  1  0.57840012  0.75208521  0.70496304  1
  Se  Se235  1  0.90903986  0.09324020  0.19968740  1
  Se  Se236  1  0.90812029  0.08894730  0.68212252  1
  Se  Se237  1  0.91596843  0.42368290  0.19800174  1
  Se  Se238  1  0.91890160  0.41551291  0.69716015  1
  Se  Se239  1  0.90348470  0.75765417  0.19297813  1
  Se  Se240  1  0.91155956  0.75561348  0.68519729  1
  Se  Se241  1  0.08253910  0.25336061  0.19891822  1
  Se  Se242  1  0.08285484  0.24730342  0.70247056  1
  Se  Se243  1  0.09520622  0.57488119  0.19320842  1
  Se  Se244  1  0.09244666  0.57956885  0.68166063  1
  Se  Se245  1  0.08763559  0.91058477  0.18233637  1
  Se  Se246  1  0.09122728  0.91343074  0.69336909  1
  Se  Se247  1  0.42775420  0.24289540  0.19150894  1
  Se  Se248  1  0.42481018  0.24752920  0.68500619  1
  Se  Se249  1  0.42123578  0.57715839  0.19280596  1
  Se  Se250  1  0.41484495  0.57872266  0.69315691  1
  Se  Se251  1  0.42699394  0.91181162  0.19156962  1
  Se  Se252  1  0.40464983  0.94071542  0.70560217  1
  Se  Se253  1  0.75766606  0.24336332  0.19190749  1
  Se  Se254  1  0.74720844  0.25585722  0.69325006  1
  Se  Se255  1  0.74671972  0.58206842  0.19776231  1
  Se  Se256  1  0.74625691  0.58529383  0.70133748  1
  Se  Se257  1  0.75423352  0.91330754  0.19021915  1
  Se  Se258  1  0.74436721  0.92177450  0.69241598  1
