# generated using pymatgen
data_In86Cu29Se144
_symmetry_space_group_name_H-M   'P 1'
_cell_length_a   17.58329726
_cell_length_b   17.58108466
_cell_length_c   23.43506235
_cell_angle_alpha   89.94926994
_cell_angle_beta   89.99106587
_cell_angle_gamma   89.99589026
_symmetry_Int_Tables_number   1
_chemical_formula_structural   In86Cu29Se144
_chemical_formula_sum   'In86 Cu29 Se144'
_cell_volume   7244.55843853
_cell_formula_units_Z   1
loop_
 _symmetry_equiv_pos_site_id
 _symmetry_equiv_pos_as_xyz
  1  'x, y, z'
loop_
 _atom_site_type_symbol
 _atom_site_label
 _atom_site_symmetry_multiplicity
 _atom_site_fract_x
 _atom_site_fract_y
 _atom_site_fract_z
 _atom_site_occupancy
  In  In0  1  0.00021556  0.18331562  0.12975579  1
  In  In1  1  0.00632451  0.15941436  0.62350754  1
  In  In2  1  0.00112170  0.50082036  0.12727624  1
  In  In3  1  0.00903254  0.50668888  0.61766503  1
  In  In4  1  -0.01374952  0.81851634  0.11185337  1
  In  In5  1  0.00334103  0.81397053  0.63093077  1
  In  In6  1  0.34356422  0.16963569  0.12658525  1
  In  In7  1  0.32377914  0.15121393  0.62092375  1
  In  In8  1  0.33060716  0.49867874  0.12105608  1
  In  In9  1  0.32755827  0.51782302  0.62682504  1
  In  In10  1  0.33269369  0.84187774  0.11230025  1
  In  In11  1  0.33335803  0.83036062  0.62405611  1
  In  In12  1  0.66023846  0.15321210  0.12626228  1
  In  In13  1  0.67133068  0.17862859  0.62489657  1
  In  In14  1  0.69275008  0.53075439  0.09241980  1
  In  In15  1  0.66326662  0.48868851  0.62690192  1
  In  In16  1  0.66787968  0.82630431  0.12567746  1
  In  In17  1  0.65924669  0.84467656  0.62480778  1
  In  In18  1  0.17740131  -0.00859023  0.38387588  1
  In  In19  1  0.17090367  -0.01109155  0.87533677  1
  In  In20  1  0.16643808  0.33665584  0.37597337  1
  In  In21  1  0.17622955  0.34007125  0.87314462  1
  In  In22  1  0.15934778  0.67516204  0.38023050  1
  In  In23  1  0.16694752  0.66620761  0.87253550  1
  In  In24  1  0.50565053  -0.00527275  0.37747147  1
  In  In25  1  0.48696139  -0.01113072  0.87334457  1
  In  In26  1  0.48481969  0.34105454  0.37239749  1
  In  In27  1  0.51675558  0.33314814  0.87463087  1
  In  In28  1  0.50429380  0.66372198  0.37250564  1
  In  In29  1  0.49091005  0.67443821  0.88836862  1
  In  In30  1  0.82409434  0.00831757  0.37052933  1
  In  In31  1  0.84864276  -0.00574330  0.89793411  1
  In  In32  1  0.84903543  0.33466727  0.36853133  1
  In  In33  1  0.81831574  0.34500356  0.89304405  1
  In  In34  1  0.82412855  0.65920214  0.36784892  1
  In  In35  1  0.83827685  0.65665351  0.88804906  1
  In  In36  1  0.00258406  0.17689824  0.37349713  1
  In  In37  1  -0.00851448  0.15685554  0.87873347  1
  In  In38  1  -0.00242921  0.50106641  0.37252078  1
  In  In39  1  -0.00718957  0.50734814  0.88061664  1
  In  In40  1  0.01274603  0.82848730  0.37225238  1
  In  In41  1  0.01862694  0.82500270  0.88693872  1
  In  In42  1  0.32432565  0.17639763  0.38448313  1
  In  In43  1  0.33993031  0.15761207  0.86579702  1
  In  In44  1  0.33863251  0.49104767  0.37416100  1
  In  In45  1  0.31745767  0.50881909  0.88127816  1
  In  In46  1  0.33479372  0.82616097  0.38252129  1
  In  In47  1  0.33587311  0.82861764  0.87720842  1
  In  In48  1  0.66670442  0.15407233  0.36924678  1
  In  In49  1  0.66920405  0.17762327  0.87901024  1
  In  In50  1  0.66682022  0.51740517  0.37145744  1
  In  In51  1  0.67337838  0.49601004  0.89327965  1
  In  In52  1  0.65209741  0.82257352  0.35615785  1
  In  In53  1  0.65584992  0.82769160  0.89473824  1
  In  In54  1  0.16781376  -0.01111997  0.11851315  1
  In  In55  1  0.18331320  0.01080852  0.62136509  1
  In  In56  1  0.15742176  0.33981099  0.13436729  1
  In  In57  1  0.16240214  0.32988184  0.61763161  1
  In  In58  1  0.15821539  0.65781414  0.12191267  1
  In  In59  1  0.16732702  0.66665329  0.62142937  1
  In  In60  1  0.50733291  -0.00436560  0.12541798  1
  In  In61  1  0.48522385  -0.01784905  0.61458055  1
  In  In62  1  0.49454760  0.33629681  0.12574301  1
  In  In63  1  0.51628041  0.33715202  0.62525641  1
  In  In64  1  0.52058312  0.68457499  0.10754426  1
  In  In65  1  0.48219929  0.66711024  0.62595249  1
  In  In66  1  0.82241574  -0.02173662  0.10900009  1
  In  In67  1  0.83143694  0.00785850  0.62810459  1
  In  In68  1  0.83716949  0.35125613  0.11437593  1
  In  In69  1  0.81888148  0.33430679  0.62854154  1
  In  In70  1  0.83807564  0.67088653  0.12518451  1
  In  In71  1  0.84773485  0.66370816  0.62875844  1
  In  In72  1  -0.00311830  0.33387597  0.74323595  1
  In  In73  1  0.66529230  0.33925096  0.23897012  1
  In  In74  1  0.66595443  0.00636585  0.75492407  1
  In  In75  1  0.33779441  0.33041718  0.74826056  1
  In  In76  1  0.33734676  0.66568084  0.25187220  1
  In  In77  1  0.49800949  0.16285423  -0.00054501  1
  In  In78  1  0.00905209  -0.00421848  0.75544173  1
  In  In79  1  -0.00350326  0.00106439  0.24835835  1
  In  In80  1  0.83710412  0.17022094  0.49952863  1
  In  In81  1  0.66466737  0.66326955  0.76519394  1
  In  In82  1  0.83391464  0.83530853  0.50419254  1
  In  In83  1  0.49600591  0.50456044  0.49830873  1
  In  In84  1  0.16458348  0.16554629  -0.00823769  1
  In  In85  1  0.33649222  0.00011922  0.24531970  1
  Cu  Cu86  1  0.50304926  0.15975264  0.74722993  1
  Cu  Cu87  1  0.49912916  0.49869001  0.75207372  1
  Cu  Cu88  1  0.00724903  0.66305026  0.00204139  1
  Cu  Cu89  1  0.17186391  0.17164313  0.25577700  1
  Cu  Cu90  1  0.66745319  0.66998684  0.49535519  1
  Cu  Cu91  1  0.33612430  0.00146358  0.50039212  1
  Cu  Cu92  1  0.00017448  0.34275661  0.00402856  1
  Cu  Cu93  1  0.83759864  0.82788993  0.75789944  1
  Cu  Cu94  1  0.83213428  0.83201774  0.24111853  1
  Cu  Cu95  1  0.32538021  0.66569022  0.00042279  1
  Cu  Cu96  1  0.83160890  0.16405161  0.24606577  1
  Cu  Cu97  1  0.16355159  0.49590699  0.24998530  1
  Cu  Cu98  1  -0.00081211  0.66297066  0.49955136  1
  Cu  Cu99  1  0.82906923  0.17447211  0.75960900  1
  Cu  Cu100  1  0.65543002  -0.00300803  0.49226542  1
  Cu  Cu101  1  0.17257313  0.82761852  0.75131569  1
  Cu  Cu102  1  0.49295040  0.82643769  0.75069309  1
  Cu  Cu103  1  0.33201741  0.33454954  0.50029263  1
  Cu  Cu104  1  0.16351778  0.50895652  0.74734689  1
  Cu  Cu105  1  0.49315143  0.17253945  0.25128321  1
  Cu  Cu106  1  0.83361443  0.50381510  0.24114740  1
  Cu  Cu107  1  0.66515006  -0.00452670  0.00284701  1
  Cu  Cu108  1  0.16413019  0.82336578  0.24705850  1
  Cu  Cu109  1  0.00976816  -0.00404251  0.50212677  1
  Cu  Cu110  1  0.82880954  0.50096923  0.76198225  1
  Cu  Cu111  1  0.67033347  0.33561538  0.49963106  1
  Cu  Cu112  1  0.00307129  0.33887095  0.49384164  1
  Cu  Cu113  1  0.50372270  0.50728772  0.24374605  1
  Cu  Cu114  1  0.32834525  0.33264014  0.00036649  1
  Se  Se115  1  0.08008855  0.08800719  0.06353453  1
  Se  Se116  1  0.08907749  0.08480874  0.55297162  1
  Se  Se117  1  0.08784932  0.42025591  0.05741656  1
  Se  Se118  1  0.08676791  0.41883353  0.55030550  1
  Se  Se119  1  0.09091653  0.75152912  0.05147814  1
  Se  Se120  1  0.08090924  0.74958614  0.55159044  1
  Se  Se121  1  0.40758542  0.07059399  0.05723000  1
  Se  Se122  1  0.42106858  0.08658238  0.55210070  1
  Se  Se123  1  0.41320866  0.41302945  0.05300353  1
  Se  Se124  1  0.41111830  0.41363862  0.56358593  1
  Se  Se125  1  0.41181101  0.74952591  0.04967145  1
  Se  Se126  1  0.42384083  0.75776737  0.55404897  1
  Se  Se127  1  0.74608852  0.08271155  0.05350089  1
  Se  Se128  1  0.73952499  0.07501729  0.55298351  1
  Se  Se129  1  0.74004707  0.40834672  0.04446291  1
  Se  Se130  1  0.75091774  0.41969954  0.55328360  1
  Se  Se131  1  0.76857104  0.76648215  0.05841796  1
  Se  Se132  1  0.74360559  0.74327473  0.56473859  1
  Se  Se133  1  0.24998334  0.25181843  0.06070828  1
  Se  Se134  1  0.25234475  0.24820751  0.55475509  1
  Se  Se135  1  0.24441582  0.57916827  0.05332660  1
  Se  Se136  1  0.24471077  0.58054888  0.55165361  1
  Se  Se137  1  0.24588088  0.91785633  0.04416492  1
  Se  Se138  1  0.25245505  0.91687430  0.55393084  1
  Se  Se139  1  0.58631058  0.25174222  0.05951240  1
  Se  Se140  1  0.58707323  0.25148109  0.55141851  1
  Se  Se141  1  0.56033014  0.56389167  0.05297543  1
  Se  Se142  1  0.58935456  0.59103250  0.56071111  1
  Se  Se143  1  0.58280481  0.91116270  0.05557636  1
  Se  Se144  1  0.57891877  0.90922763  0.54686813  1
  Se  Se145  1  0.91937769  0.25555524  0.05483978  1
  Se  Se146  1  0.92517142  0.26183621  0.56153001  1
  Se  Se147  1  0.92093530  0.58404298  0.05713189  1
  Se  Se148  1  0.91314687  0.58118645  0.55194495  1
  Se  Se149  1  0.93454605  0.92812263  0.05010929  1
  Se  Se150  1  0.92630314  0.92532120  0.56585867  1
  Se  Se151  1  0.08554044  0.24941479  0.44619271  1
  Se  Se152  1  0.07372338  0.26403519  0.93720196  1
  Se  Se153  1  0.08104024  0.58093084  0.44329797  1
  Se  Se154  1  0.08822544  0.58132727  0.94417830  1
  Se  Se155  1  0.08554704  0.91000205  0.44633319  1
  Se  Se156  1  0.06576858  0.94252890  0.94290056  1
  Se  Se157  1  0.41974192  0.25525798  0.44757921  1
  Se  Se158  1  0.40793353  0.25490257  0.93742717  1
  Se  Se159  1  0.40476376  0.59529068  0.44130210  1
  Se  Se160  1  0.40925809  0.57983252  0.94942090  1
  Se  Se161  1  0.41628608  0.91838798  0.44436793  1
  Se  Se162  1  0.42982302  0.89837353  0.94642440  1
  Se  Se163  1  0.74685404  0.25581383  0.43524542  1
  Se  Se164  1  0.75701848  0.23798934  0.95286995  1
  Se  Se165  1  0.75178713  0.58345082  0.44732733  1
  Se  Se166  1  0.74218888  0.59405200  0.95688716  1
  Se  Se167  1  0.74430174  0.91778929  0.43815719  1
  Se  Se168  1  0.75099182  0.91086573  0.95291257  1
  Se  Se169  1  0.24817831  0.08496812  0.45039883  1
  Se  Se170  1  0.26387189  0.07566441  0.94109226  1
  Se  Se171  1  0.25183743  0.41862301  0.44542808  1
  Se  Se172  1  0.24296795  0.41814130  0.95089906  1
  Se  Se173  1  0.24168776  0.75638680  0.44742718  1
  Se  Se174  1  0.24504002  0.74991996  0.94378024  1
  Se  Se175  1  0.57909270  0.09116738  0.44414713  1
  Se  Se176  1  0.58706017  0.07207278  0.93686841  1
  Se  Se177  1  0.58971136  0.41508927  0.43737437  1
  Se  Se178  1  0.58172440  0.41016029  0.95247393  1
  Se  Se179  1  0.58605015  0.75038491  0.43986293  1
  Se  Se180  1  0.59099253  0.72915571  0.95842618  1
  Se  Se181  1  0.92626974  0.07357562  0.44134677  1
  Se  Se182  1  0.91115644  0.09899746  0.95835381  1
  Se  Se183  1  0.91369485  0.41861243  0.44432355  1
  Se  Se184  1  0.91363843  0.42625075  0.95203729  1
  Se  Se185  1  0.91815433  0.74551556  0.43968626  1
  Se  Se186  1  0.92351080  0.74751022  0.94915834  1
  Se  Se187  1  0.25480018  0.25624368  0.30711189  1
  Se  Se188  1  0.24239983  0.24128584  0.80459772  1
  Se  Se189  1  0.24354864  0.57758254  0.31067052  1
  Se  Se190  1  0.25143492  0.58591010  0.80108733  1
  Se  Se191  1  0.24544475  0.90626438  0.30418731  1
  Se  Se192  1  0.25396184  0.91145302  0.80504391  1
  Se  Se193  1  0.57957700  0.25228316  0.30776696  1
  Se  Se194  1  0.58377092  0.24275823  0.80226994  1
  Se  Se195  1  0.58597259  0.59035344  0.29752294  1
  Se  Se196  1  0.57332590  0.57272628  0.82079497  1
  Se  Se197  1  0.59135566  0.93336329  0.30130384  1
  Se  Se198  1  0.58287294  0.90210614  0.80790140  1
  Se  Se199  1  0.91801077  0.24440586  0.29795648  1
  Se  Se200  1  0.91098427  0.25644729  0.81532856  1
  Se  Se201  1  0.91476623  0.58251249  0.30148679  1
  Se  Se202  1  0.91458580  0.58738845  0.80749654  1
  Se  Se203  1  0.90762277  0.90763874  0.31017891  1
  Se  Se204  1  0.91527322  0.91148549  0.81577697  1
  Se  Se205  1  0.09403775  0.08247317  0.31170702  1
  Se  Se206  1  0.09357091  0.09360235  0.81099726  1
  Se  Se207  1  0.07997841  0.41372836  0.30566496  1
  Se  Se208  1  0.08550881  0.42433765  0.80602188  1
  Se  Se209  1  0.08003135  0.74072487  0.29910928  1
  Se  Se210  1  0.08241418  0.75073805  0.80402197  1
  Se  Se211  1  0.41475027  0.09179474  0.31265274  1
  Se  Se212  1  0.42010701  0.07416051  0.79716822  1
  Se  Se213  1  0.41866147  0.42394011  0.29545049  1
  Se  Se214  1  0.41774620  0.42032416  0.81462562  1
  Se  Se215  1  0.42600177  0.76196216  0.30656432  1
  Se  Se216  1  0.41570501  0.74161473  0.80686578  1
  Se  Se217  1  0.74553622  0.07980094  0.29393295  1
  Se  Se218  1  0.76298719  0.08133333  0.81882490  1
  Se  Se219  1  0.75468795  0.42384283  0.30563554  1
  Se  Se220  1  0.74493750  0.41860093  0.81370190  1
  Se  Se221  1  0.75089983  0.74706844  0.29717907  1
  Se  Se222  1  0.75390456  0.75795664  0.82068492  1
  Se  Se223  1  0.24002065  0.09025728  0.18935152  1
  Se  Se224  1  0.25378950  0.08052116  0.70132279  1
  Se  Se225  1  0.25222597  0.41918511  0.19608845  1
  Se  Se226  1  0.24142447  0.42022819  0.69111428  1
  Se  Se227  1  0.24995651  0.75276922  0.18589980  1
  Se  Se228  1  0.25155527  0.74547471  0.69269483  1
  Se  Se229  1  0.57282686  0.08512908  0.19935574  1
  Se  Se230  1  0.58040077  0.08153026  0.68210811  1
  Se  Se231  1  0.58445762  0.43385080  0.17979069  1
  Se  Se232  1  0.58605448  0.41524778  0.70372302  1
  Se  Se233  1  0.58479072  0.74467476  0.19476127  1
  Se  Se234  1  0.58218547  0.75083024  0.69398804  1
  Se  Se235  1  0.90807007  0.08309033  0.18311749  1
  Se  Se236  1  0.91081854  0.09419315  0.69980986  1
  Se  Se237  1  0.91673451  0.41470867  0.19479134  1
  Se  Se238  1  0.90539920  0.42987070  0.69070841  1
  Se  Se239  1  0.92359304  0.74941625  0.19705254  1
  Se  Se240  1  0.91849770  0.74409318  0.70475069  1
  Se  Se241  1  0.08308980  0.25236018  0.20532755  1
  Se  Se242  1  0.09293500  0.23944393  0.69413242  1
  Se  Se243  1  0.08218615  0.58326337  0.19877914  1
  Se  Se244  1  0.07869536  0.58907593  0.69284396  1
  Se  Se245  1  0.08371508  0.90744255  0.18996938  1
  Se  Se246  1  0.09327408  0.90933417  0.68895168  1
  Se  Se247  1  0.41251154  0.25735352  0.19866791  1
  Se  Se248  1  0.42648802  0.24304827  0.68574055  1
  Se  Se249  1  0.42348241  0.58721857  0.18273554  1
  Se  Se250  1  0.41511037  0.58292552  0.70169528  1
  Se  Se251  1  0.42328860  0.90329892  0.19171335  1
  Se  Se252  1  0.41506455  0.91362453  0.69646624  1
  Se  Se253  1  0.75653171  0.24620623  0.18335942  1
  Se  Se254  1  0.74544029  0.25285486  0.70313791  1
  Se  Se255  1  0.74780510  0.58302328  0.18703119  1
  Se  Se256  1  0.75101329  0.57957025  0.69538812  1
  Se  Se257  1  0.74855020  0.91858002  0.19320335  1
  Se  Se258  1  0.76028444  0.90934529  0.69733651  1
