# generated using pymatgen
data_In86Cu29Se144
_symmetry_space_group_name_H-M   'P 1'
_cell_length_a   17.58323528
_cell_length_b   17.58565129
_cell_length_c   23.44267996
_cell_angle_alpha   89.99510601
_cell_angle_beta   89.99698597
_cell_angle_gamma   90.00040987
_symmetry_Int_Tables_number   1
_chemical_formula_structural   In86Cu29Se144
_chemical_formula_sum   'In86 Cu29 Se144'
_cell_volume   7248.77302066
_cell_formula_units_Z   1
loop_
 _symmetry_equiv_pos_site_id
 _symmetry_equiv_pos_as_xyz
  1  'x, y, z'
loop_
 _atom_site_type_symbol
 _atom_site_label
 _atom_site_symmetry_multiplicity
 _atom_site_fract_x
 _atom_site_fract_y
 _atom_site_fract_z
 _atom_site_occupancy
  In  In0  1  -0.01684188  0.17149659  0.12740478  1
  In  In1  1  0.00488508  0.16630066  0.61574301  1
  In  In2  1  0.01568435  0.50833084  0.12860087  1
  In  In3  1  -0.01157893  0.49133468  0.61588784  1
  In  In4  1  0.00853595  0.82447093  0.13656314  1
  In  In5  1  -0.00157549  0.84458305  0.62161281  1
  In  In6  1  0.34898131  0.15523718  0.13061471  1
  In  In7  1  0.32199440  0.16760816  0.61253355  1
  In  In8  1  0.32440599  0.49436919  0.11998391  1
  In  In9  1  0.33907396  0.49884186  0.61866179  1
  In  In10  1  0.33467188  0.85000079  0.12037099  1
  In  In11  1  0.32475276  0.83454238  0.64282124  1
  In  In12  1  0.67565828  0.16955914  0.12200551  1
  In  In13  1  0.67746992  0.17496724  0.61333698  1
  In  In14  1  0.65571218  0.50643400  0.13385767  1
  In  In15  1  0.65612189  0.48797623  0.61690905  1
  In  In16  1  0.66136995  0.83224637  0.13342070  1
  In  In17  1  0.66958887  0.82441453  0.61793239  1
  In  In18  1  0.16921057  0.00633197  0.36496220  1
  In  In19  1  0.17611108  -0.01394540  0.88202381  1
  In  In20  1  0.18757213  0.31749326  0.39328420  1
  In  In21  1  0.17071089  0.34580031  0.87271162  1
  In  In22  1  0.15659976  0.65942517  0.37202886  1
  In  In23  1  0.17568177  0.66185779  0.88475266  1
  In  In24  1  0.50706615  0.01832666  0.37392702  1
  In  In25  1  0.49863573  0.01861465  0.87892935  1
  In  In26  1  0.50062566  0.32880109  0.37635920  1
  In  In27  1  0.50358412  0.33175067  0.88064037  1
  In  In28  1  0.49916535  0.64995667  0.37438301  1
  In  In29  1  0.47998127  0.67512162  0.88458621  1
  In  In30  1  0.83657578  -0.00587460  0.38479606  1
  In  In31  1  0.83974206  0.00585960  0.87983374  1
  In  In32  1  0.82037251  0.34168021  0.38042955  1
  In  In33  1  0.82257527  0.32441649  0.86312400  1
  In  In34  1  0.83502948  0.65953683  0.36887012  1
  In  In35  1  0.83343615  0.67401218  0.87305732  1
  In  In36  1  0.00901040  0.15928918  0.37731580  1
  In  In37  1  -0.01357730  0.16528087  0.87289942  1
  In  In38  1  0.00010805  0.49590927  0.38015082  1
  In  In39  1  0.01448704  0.50015239  0.87431421  1
  In  In40  1  -0.01916921  0.82300965  0.35549473  1
  In  In41  1  0.00898016  0.84663223  0.87678491  1
  In  In42  1  0.33603070  0.16628874  0.37300488  1
  In  In43  1  0.34924997  0.17168447  0.87517345  1
  In  In44  1  0.35737442  0.47478643  0.40159212  1
  In  In45  1  0.32488826  0.51064009  0.89056688  1
  In  In46  1  0.32123716  0.83896310  0.37107170  1
  In  In47  1  0.31772318  0.82762671  0.86175852  1
  In  In48  1  0.65045138  0.17409558  0.38723780  1
  In  In49  1  0.65371398  0.17696669  0.88355490  1
  In  In50  1  0.66663901  0.49729887  0.37078381  1
  In  In51  1  0.66449518  0.48465589  0.87308548  1
  In  In52  1  0.69988070  0.83283323  0.36882829  1
  In  In53  1  0.67656531  0.83431882  0.87409885  1
  In  In54  1  0.17997277  -0.00666055  0.12859317  1
  In  In55  1  0.16681840  0.00149547  0.62580246  1
  In  In56  1  0.16843531  0.35234460  0.12389730  1
  In  In57  1  0.15934326  0.31976666  0.61520645  1
  In  In58  1  0.16545077  0.65816800  0.12258877  1
  In  In59  1  0.18069138  0.66779021  0.62863712  1
  In  In60  1  0.48999388  0.00186620  0.12242606  1
  In  In61  1  0.48426400  -0.00001296  0.62482931  1
  In  In62  1  0.49994182  0.33141610  0.12845123  1
  In  In63  1  0.50031104  0.34559246  0.61873104  1
  In  In64  1  0.50611752  0.67165475  0.12619721  1
  In  In65  1  0.49056106  0.65377303  0.62216174  1
  In  In66  1  0.82962435  0.01428743  0.13205090  1
  In  In67  1  0.83548093  0.00427916  0.60496154  1
  In  In68  1  0.83015780  0.31844776  0.12762580  1
  In  In69  1  0.83244264  0.33029031  0.62173802  1
  In  In70  1  0.83460893  0.67416470  0.14273478  1
  In  In71  1  0.83146733  0.66573097  0.61048689  1
  In  In72  1  0.15985439  0.83426384  0.49770516  1
  In  In73  1  0.00589881  0.00403889  0.74372248  1
  In  In74  1  0.32875847  0.66206415  0.25041874  1
  In  In75  1  0.00382867  0.66219290  0.75668385  1
  In  In76  1  0.00104511  0.33760440  0.25177465  1
  In  In77  1  0.83584663  0.49880817  0.00143457  1
  In  In78  1  0.50525412  0.83140184  0.49777466  1
  In  In79  1  0.83526148  0.84067582  0.00269933  1
  In  In80  1  0.66933020  -0.00043195  0.25373436  1
  In  In81  1  0.49457399  0.84010890  0.00469199  1
  In  In82  1  0.66466785  0.00262075  0.74840708  1
  In  In83  1  0.65283475  0.65208094  0.73721130  1
  In  In84  1  0.33380337  0.33390163  0.74737344  1
  In  In85  1  0.16859320  0.16984778  0.00028828  1
  Cu  Cu86  1  0.17319745  0.49972588  0.25445677  1
  Cu  Cu87  1  0.16994754  0.17262068  0.25192762  1
  Cu  Cu88  1  0.49850506  0.17138310  0.25335318  1
  Cu  Cu89  1  0.83394183  0.83140881  0.74233341  1
  Cu  Cu90  1  0.00868277  0.66910599  0.00567468  1
  Cu  Cu91  1  0.16601531  0.16306569  0.74245342  1
  Cu  Cu92  1  0.49865532  0.49046516  0.25385136  1
  Cu  Cu93  1  -0.00390286  0.66643763  0.49270821  1
  Cu  Cu94  1  0.66377168  0.66293272  0.00537300  1
  Cu  Cu95  1  0.50319738  0.83138675  0.24830196  1
  Cu  Cu96  1  -0.00268638  0.33555960  0.00293975  1
  Cu  Cu97  1  0.16648333  0.84149260  0.24820888  1
  Cu  Cu98  1  0.16492885  0.49676584  0.75116518  1
  Cu  Cu99  1  0.00213737  0.00354243  0.00272052  1
  Cu  Cu100  1  0.33379103  0.66157366  0.50353753  1
  Cu  Cu101  1  0.82907526  0.16846273  0.25494802  1
  Cu  Cu102  1  0.82812704  0.17264669  0.74661474  1
  Cu  Cu103  1  0.83443757  0.48764283  0.74302153  1
  Cu  Cu104  1  0.33198472  0.00607433  0.49614972  1
  Cu  Cu105  1  0.50430288  0.17273820  0.75110425  1
  Cu  Cu106  1  0.83573619  0.49913836  0.25574213  1
  Cu  Cu107  1  0.49020494  0.83420431  0.75449850  1
  Cu  Cu108  1  0.67435108  0.66619585  0.49257749  1
  Cu  Cu109  1  0.66623506  0.33808465  0.49799286  1
  Cu  Cu110  1  0.66526603  0.33085743  0.00170889  1
  Cu  Cu111  1  -0.00531165  0.32827643  0.49779151  1
  Cu  Cu112  1  0.33844155  0.33217536  0.00228823  1
  Cu  Cu113  1  0.49240616  0.49947037  0.74882224  1
  Cu  Cu114  1  0.00260763  -0.00211020  0.49422884  1
  Se  Se115  1  0.07838078  0.08559141  0.06474374  1
  Se  Se116  1  0.08696357  0.07576200  0.55181760  1
  Se  Se117  1  0.07979984  0.42237868  0.05190175  1
  Se  Se118  1  0.07848786  0.41172915  0.55136567  1
  Se  Se119  1  0.08793508  0.75466224  0.05923275  1
  Se  Se120  1  0.07494082  0.73996141  0.56018554  1
  Se  Se121  1  0.41798982  0.08415241  0.04990626  1
  Se  Se122  1  0.41621986  0.08564606  0.55091138  1
  Se  Se123  1  0.41929562  0.41560734  0.05797016  1
  Se  Se124  1  0.41312616  0.41617852  0.54735489  1
  Se  Se125  1  0.40726120  0.74267211  0.05968784  1
  Se  Se126  1  0.40527711  0.75343114  0.56175524  1
  Se  Se127  1  0.75584201  0.08411034  0.05483816  1
  Se  Se128  1  0.74324310  0.08114234  0.54437080  1
  Se  Se129  1  0.74446341  0.41298891  0.06291983  1
  Se  Se130  1  0.75314169  0.41806227  0.55242134  1
  Se  Se131  1  0.74717003  0.74405565  0.06130698  1
  Se  Se132  1  0.75397630  0.75538043  0.54407157  1
  Se  Se133  1  0.25583473  0.25632163  0.06441393  1
  Se  Se134  1  0.25371334  0.25905710  0.54416821  1
  Se  Se135  1  0.24857814  0.58221378  0.05289266  1
  Se  Se136  1  0.24666230  0.58151347  0.55527009  1
  Se  Se137  1  0.25281027  0.92443611  0.04882898  1
  Se  Se138  1  0.25902899  0.91725722  0.55679382  1
  Se  Se139  1  0.58361018  0.24931925  0.05842018  1
  Se  Se140  1  0.58291533  0.25700043  0.55381884  1
  Se  Se141  1  0.57983254  0.58145260  0.05670243  1
  Se  Se142  1  0.59041261  0.59262471  0.55502411  1
  Se  Se143  1  0.59470741  0.92421734  0.06106836  1
  Se  Se144  1  0.58652739  0.92405172  0.56135248  1
  Se  Se145  1  0.91174887  0.25062470  0.05028988  1
  Se  Se146  1  0.91202505  0.24410257  0.55209480  1
  Se  Se147  1  0.91945553  0.59470164  0.06311463  1
  Se  Se148  1  0.91408787  0.58027832  0.54626947  1
  Se  Se149  1  0.92492599  0.92331861  0.06651791  1
  Se  Se150  1  0.91853191  0.91111071  0.54463815  1
  Se  Se151  1  0.08329485  0.24460337  0.44917041  1
  Se  Se152  1  0.07638342  0.25740141  0.93862867  1
  Se  Se153  1  0.08402175  0.58138517  0.44804303  1
  Se  Se154  1  0.08363449  0.58162672  0.94955332  1
  Se  Se155  1  0.07648837  0.91683889  0.42958662  1
  Se  Se156  1  0.08591449  0.91735146  0.95395354  1
  Se  Se157  1  0.41802039  0.24505060  0.44326263  1
  Se  Se158  1  0.42284314  0.24897433  0.95098547  1
  Se  Se159  1  0.42736022  0.58336382  0.45684764  1
  Se  Se160  1  0.42840327  0.57424344  0.95226244  1
  Se  Se161  1  0.41045360  0.92049048  0.43864281  1
  Se  Se162  1  0.41334062  0.91586645  0.93085802  1
  Se  Se163  1  0.74907478  0.24973404  0.44894155  1
  Se  Se164  1  0.75174316  0.25449915  0.94483471  1
  Se  Se165  1  0.75302209  0.57820604  0.43983986  1
  Se  Se166  1  0.74474994  0.59059701  0.94008832  1
  Se  Se167  1  0.73673608  0.92474013  0.44789456  1
  Se  Se168  1  0.74068470  0.92954334  0.94543505  1
  Se  Se169  1  0.24636346  0.08286070  0.44013955  1
  Se  Se170  1  0.26074850  0.08346136  0.94140649  1
  Se  Se171  1  0.22969739  0.43859672  0.44671956  1
  Se  Se172  1  0.24810757  0.41234512  0.95157980  1
  Se  Se173  1  0.25498568  0.74063610  0.44203658  1
  Se  Se174  1  0.25427916  0.75549968  0.94468013  1
  Se  Se175  1  0.57792511  0.08278659  0.45516966  1
  Se  Se176  1  0.58928884  0.08048839  0.94986758  1
  Se  Se177  1  0.58332039  0.41907094  0.44223797  1
  Se  Se178  1  0.58400932  0.41793475  0.95018089  1
  Se  Se179  1  0.59140263  0.74482698  0.43262867  1
  Se  Se180  1  0.59246490  0.74950513  0.94339769  1
  Se  Se181  1  0.91840797  0.08654297  0.44687319  1
  Se  Se182  1  0.91749622  0.08664063  0.95140550  1
  Se  Se183  1  0.91324472  0.41561547  0.44708814  1
  Se  Se184  1  0.91927606  0.41100911  0.93570453  1
  Se  Se185  1  0.91525853  0.74904021  0.43787138  1
  Se  Se186  1  0.92769814  0.74593778  0.94321031  1
  Se  Se187  1  0.25256176  0.25445064  0.30587970  1
  Se  Se188  1  0.24362845  0.24133791  0.80787826  1
  Se  Se189  1  0.25668317  0.57056287  0.31941290  1
  Se  Se190  1  0.24549438  0.57543071  0.80998549  1
  Se  Se191  1  0.25481883  0.92367476  0.29673510  1
  Se  Se192  1  0.24978342  0.92817567  0.79891974  1
  Se  Se193  1  0.58660169  0.25042708  0.30528467  1
  Se  Se194  1  0.58474257  0.25619134  0.80535457  1
  Se  Se195  1  0.58248775  0.57983528  0.30050461  1
  Se  Se196  1  0.57178469  0.57862327  0.81315901  1
  Se  Se197  1  0.57982249  0.90785951  0.31460020  1
  Se  Se198  1  0.57770156  0.90976472  0.81057624  1
  Se  Se199  1  0.91226298  0.24936386  0.31403551  1
  Se  Se200  1  0.91886437  0.25051953  0.79829553  1
  Se  Se201  1  0.92699681  0.57687671  0.30457716  1
  Se  Se202  1  0.90344256  0.57047373  0.80918692  1
  Se  Se203  1  0.91433944  0.93277320  0.30373500  1
  Se  Se204  1  0.90895655  0.91229278  0.80437239  1
  Se  Se205  1  0.08195348  0.08736594  0.29759224  1
  Se  Se206  1  0.09058675  0.08820195  0.81198097  1
  Se  Se207  1  0.09642791  0.41440064  0.31449490  1
  Se  Se208  1  0.07953130  0.41140735  0.80000740  1
  Se  Se209  1  0.09089175  0.75271584  0.30239337  1
  Se  Se210  1  0.09087582  0.75553928  0.81303715  1
  Se  Se211  1  0.41627961  0.08158115  0.30131142  1
  Se  Se212  1  0.41944980  0.08757453  0.80039922  1
  Se  Se213  1  0.41263355  0.41446028  0.31016554  1
  Se  Se214  1  0.41517464  0.42225465  0.81410623  1
  Se  Se215  1  0.42084910  0.75412925  0.31050943  1
  Se  Se216  1  0.41113165  0.74212659  0.80164645  1
  Se  Se217  1  0.74898256  0.09222430  0.31806595  1
  Se  Se218  1  0.75460804  0.09067384  0.81042127  1
  Se  Se219  1  0.74844013  0.41284021  0.30030289  1
  Se  Se220  1  0.74362524  0.41369516  0.79678327  1
  Se  Se221  1  0.75083329  0.73737100  0.29743353  1
  Se  Se222  1  0.74886557  0.74825750  0.79574288  1
  Se  Se223  1  0.25078666  0.08731139  0.19659725  1
  Se  Se224  1  0.25361010  0.08500765  0.69041275  1
  Se  Se225  1  0.25451139  0.41677322  0.19968121  1
  Se  Se226  1  0.24047136  0.41792095  0.68634961  1
  Se  Se227  1  0.24796081  0.75878332  0.18871113  1
  Se  Se228  1  0.24861160  0.74333140  0.70617322  1
  Se  Se229  1  0.57851759  0.08781129  0.19241501  1
  Se  Se230  1  0.57858988  0.09180625  0.68624068  1
  Se  Se231  1  0.58482137  0.41088417  0.19954326  1
  Se  Se232  1  0.57863263  0.41905580  0.69615060  1
  Se  Se233  1  0.58701686  0.74358258  0.20212262  1
  Se  Se234  1  0.56748861  0.75878515  0.68816137  1
  Se  Se235  1  0.91612567  0.08770916  0.20379715  1
  Se  Se236  1  0.90557699  0.08705617  0.68737283  1
  Se  Se237  1  0.91169098  0.42446197  0.18657062  1
  Se  Se238  1  0.92129525  0.40785077  0.69216622  1
  Se  Se239  1  0.92293089  0.75085092  0.20691056  1
  Se  Se240  1  0.91512399  0.74798099  0.68774277  1
  Se  Se241  1  0.08981020  0.24907771  0.18773678  1
  Se  Se242  1  0.08061486  0.24503508  0.69138796  1
  Se  Se243  1  0.09057354  0.58667848  0.20351930  1
  Se  Se244  1  0.08437025  0.57477099  0.68839474  1
  Se  Se245  1  0.08340110  0.92568518  0.19600098  1
  Se  Se246  1  0.09550541  0.90218408  0.69540690  1
  Se  Se247  1  0.41374519  0.25254909  0.19879698  1
  Se  Se248  1  0.42143111  0.24507111  0.68599554  1
  Se  Se249  1  0.42258057  0.57481611  0.19143717  1
  Se  Se250  1  0.40803187  0.58165206  0.69640173  1
  Se  Se251  1  0.42044288  0.91580167  0.19647989  1
  Se  Se252  1  0.41258538  0.92346366  0.70238807  1
  Se  Se253  1  0.74471725  0.24945134  0.20122061  1
  Se  Se254  1  0.74391743  0.25340867  0.69282962  1
  Se  Se255  1  0.75095469  0.57945800  0.19938752  1
  Se  Se256  1  0.75837153  0.57339829  0.68432364  1
  Se  Se257  1  0.76150665  0.90813917  0.19580236  1
  Se  Se258  1  0.75639155  0.91530696  0.68480670  1
