# generated using pymatgen
data_In86Cu29Se144
_symmetry_space_group_name_H-M   'P 1'
_cell_length_a   17.57757677
_cell_length_b   17.57562668
_cell_length_c   23.43436758
_cell_angle_alpha   90.00099994
_cell_angle_beta   89.99721348
_cell_angle_gamma   90.00429394
_symmetry_Int_Tables_number   1
_chemical_formula_structural   In86Cu29Se144
_chemical_formula_sum   'In86 Cu29 Se144'
_cell_volume   7239.74148101
_cell_formula_units_Z   1
loop_
 _symmetry_equiv_pos_site_id
 _symmetry_equiv_pos_as_xyz
  1  'x, y, z'
loop_
 _atom_site_type_symbol
 _atom_site_label
 _atom_site_symmetry_multiplicity
 _atom_site_fract_x
 _atom_site_fract_y
 _atom_site_fract_z
 _atom_site_occupancy
  In  In0  1  0.01159616  0.16726582  0.12756460  1
  In  In1  1  0.00805935  0.16896752  0.62735045  1
  In  In2  1  0.01227587  0.48531886  0.13963755  1
  In  In3  1  -0.00806550  0.48764435  0.61239438  1
  In  In4  1  -0.01217921  0.83930369  0.12795848  1
  In  In5  1  0.00852670  0.83676872  0.62472098  1
  In  In6  1  0.33202480  0.17647555  0.12920982  1
  In  In7  1  0.32310403  0.15292702  0.61382717  1
  In  In8  1  0.32361075  0.50928550  0.13362326  1
  In  In9  1  0.32802678  0.49653272  0.60540194  1
  In  In10  1  0.33287995  0.82041392  0.12664093  1
  In  In11  1  0.33884603  0.84932344  0.62433131  1
  In  In12  1  0.64898884  0.16358659  0.12738442  1
  In  In13  1  0.66844344  0.16610183  0.62556973  1
  In  In14  1  0.66625257  0.49528064  0.12966508  1
  In  In15  1  0.65676179  0.48344946  0.60987877  1
  In  In16  1  0.67215467  0.84893335  0.12081818  1
  In  In17  1  0.67588323  0.84425881  0.62839105  1
  In  In18  1  0.14910760  0.00849444  0.39361052  1
  In  In19  1  0.18429889  0.01000960  0.86866225  1
  In  In20  1  0.17279515  0.32722447  0.37019216  1
  In  In21  1  0.16144223  0.33818832  0.87879496  1
  In  In22  1  0.17001897  0.66844878  0.37978595  1
  In  In23  1  0.15390806  0.65307261  0.87896132  1
  In  In24  1  0.51530794  0.00213018  0.37105587  1
  In  In25  1  0.49970780  0.00505494  0.87519875  1
  In  In26  1  0.49497367  0.33875409  0.37998151  1
  In  In27  1  0.49018259  0.31988206  0.87379232  1
  In  In28  1  0.48598658  0.66408552  0.37748160  1
  In  In29  1  0.51336532  0.66963773  0.87728712  1
  In  In30  1  0.83530426  0.03715919  0.37591629  1
  In  In31  1  0.82370051  -0.00011142  0.86510288  1
  In  In32  1  0.84586684  0.31906430  0.38153479  1
  In  In33  1  0.82798027  0.31104313  0.84939321  1
  In  In34  1  0.83345377  0.64782916  0.37921834  1
  In  In35  1  0.84801108  0.66965337  0.87771168  1
  In  In36  1  -0.00489997  0.17397472  0.37819327  1
  In  In37  1  0.00973994  0.17363516  0.86305988  1
  In  In38  1  0.00373046  0.49562906  0.37571635  1
  In  In39  1  0.00758259  0.49490176  0.87549220  1
  In  In40  1  0.01588858  0.84185684  0.37846092  1
  In  In41  1  -0.01224909  0.83331631  0.87838684  1
  In  In42  1  0.32803126  0.17413070  0.37690849  1
  In  In43  1  0.34269688  0.16066451  0.88345215  1
  In  In44  1  0.33176075  0.50183827  0.37935783  1
  In  In45  1  0.32308996  0.48840148  0.87595739  1
  In  In46  1  0.32590270  0.81897339  0.37278602  1
  In  In47  1  0.33491106  0.84835142  0.87783648  1
  In  In48  1  0.67159675  0.16150366  0.37847203  1
  In  In49  1  0.65654382  0.15698950  0.86445816  1
  In  In50  1  0.66931406  0.50022687  0.39161021  1
  In  In51  1  0.67987234  0.49687449  0.87038266  1
  In  In52  1  0.65881403  0.84123237  0.37512137  1
  In  In53  1  0.65665642  0.84622116  0.88309522  1
  In  In54  1  0.15688371  0.00735370  0.12209716  1
  In  In55  1  0.16739728  0.00339505  0.62534700  1
  In  In56  1  0.16115449  0.33404397  0.12711258  1
  In  In57  1  0.15947290  0.32365494  0.61165310  1
  In  In58  1  0.17697411  0.65575309  0.13746459  1
  In  In59  1  0.16685592  0.66177540  0.60800464  1
  In  In60  1  0.51066938  0.01641707  0.12102608  1
  In  In61  1  0.49211728  0.00609518  0.62916048  1
  In  In62  1  0.48407333  0.30457139  0.13036996  1
  In  In63  1  0.50765089  0.33190526  0.61542122  1
  In  In64  1  0.48418567  0.66701862  0.12677598  1
  In  In65  1  0.50625657  0.65980390  0.61366463  1
  In  In66  1  0.83691086  -0.01206521  0.12312807  1
  In  In67  1  0.82880330  0.02028491  0.64227941  1
  In  In68  1  0.83650433  0.33944983  0.12786012  1
  In  In69  1  0.83540273  0.32243074  0.62569044  1
  In  In70  1  0.83087338  0.68161596  0.13075904  1
  In  In71  1  0.84006174  0.66564447  0.61788509  1
  In  In72  1  0.82954642  0.16471858  -0.00987164  1
  In  In73  1  0.33170472  0.32729267  0.74176527  1
  In  In74  1  0.00119566  0.66745381  0.74688102  1
  In  In75  1  0.33052683  0.00064499  0.25103044  1
  In  In76  1  0.83504306  0.83912922  0.50640381  1
  In  In77  1  0.66916423  0.32942433  0.25249826  1
  In  In78  1  0.49524145  0.50224374  0.00822078  1
  In  In79  1  -0.00201527  0.00704705  0.25601683  1
  In  In80  1  0.49487268  0.82812647  0.49399591  1
  In  In81  1  0.16654173  0.83245089  0.00217136  1
  In  In82  1  0.84546018  0.50194650  -0.00307844  1
  In  In83  1  0.33391406  0.67104196  0.73806932  1
  In  In84  1  0.67207189  0.66992173  0.74214351  1
  In  In85  1  0.66513986  0.66744845  0.25489700  1
  Cu  Cu86  1  0.66887511  0.00495795  0.50250810  1
  Cu  Cu87  1  0.33099901  0.66493224  0.00482644  1
  Cu  Cu88  1  0.50213199  0.16407678  0.74871466  1
  Cu  Cu89  1  0.50630371  0.49186364  0.73915009  1
  Cu  Cu90  1  0.16865613  0.82962781  0.25654133  1
  Cu  Cu91  1  0.65680058  0.33352151  -0.00220287  1
  Cu  Cu92  1  0.82838156  0.84384485  0.75588164  1
  Cu  Cu93  1  0.17287382  0.16599886  0.74434778  1
  Cu  Cu94  1  0.00508308  0.33510017  0.49800952  1
  Cu  Cu95  1  0.83842248  0.83495733  0.25179461  1
  Cu  Cu96  1  0.33280071  0.00002262  0.49898649  1
  Cu  Cu97  1  0.49812416  0.83421252  0.25179083  1
  Cu  Cu98  1  0.16388297  0.84347292  0.74767062  1
  Cu  Cu99  1  0.84181661  0.49402655  0.25833733  1
  Cu  Cu100  1  -0.00080660  0.66365178  0.49451181  1
  Cu  Cu101  1  0.33662700  0.33243831  0.49355402  1
  Cu  Cu102  1  0.33993650  0.00619407  0.00101601  1
  Cu  Cu103  1  0.50115272  0.84104827  0.75399931  1
  Cu  Cu104  1  0.00205766  0.66362523  0.00744760  1
  Cu  Cu105  1  0.66896494  0.68171901  0.00341832  1
  Cu  Cu106  1  0.67548916  0.32140923  0.49971398  1
  Cu  Cu107  1  0.49295733  0.49315303  0.25344371  1
  Cu  Cu108  1  0.00073754  0.33309853  -0.00260393  1
  Cu  Cu109  1  0.83392899  0.48870384  0.73955755  1
  Cu  Cu110  1  0.16087111  0.49481041  0.74752402  1
  Cu  Cu111  1  0.66486055  0.00206144  -0.00644188  1
  Cu  Cu112  1  0.32170127  0.33282523  0.00375573  1
  Cu  Cu113  1  0.16628610  0.49925865  0.25836005  1
  Cu  Cu114  1  0.00115402  0.00209208  -0.00083160  1
  Se  Se115  1  0.08229446  0.08884013  0.04918009  1
  Se  Se116  1  0.10002394  0.09891335  0.55840524  1
  Se  Se117  1  0.07813206  0.41709975  0.05511368  1
  Se  Se118  1  0.09147394  0.42266861  0.54642696  1
  Se  Se119  1  0.08165001  0.74502808  0.06767139  1
  Se  Se120  1  0.07546655  0.74977934  0.55138339  1
  Se  Se121  1  0.41410483  0.09232077  0.05956217  1
  Se  Se122  1  0.42184906  0.08088772  0.54957271  1
  Se  Se123  1  0.40682996  0.40930223  0.06558693  1
  Se  Se124  1  0.42212328  0.41351498  0.54792103  1
  Se  Se125  1  0.41690840  0.75147527  0.05061647  1
  Se  Se126  1  0.40485149  0.74382160  0.55824888  1
  Se  Se127  1  0.74465663  0.07909710  0.05803892  1
  Se  Se128  1  0.75530333  0.08260369  0.55766451  1
  Se  Se129  1  0.74270436  0.41267125  0.05291650  1
  Se  Se130  1  0.75775211  0.40750841  0.55265859  1
  Se  Se131  1  0.75605847  0.75982453  0.05629290  1
  Se  Se132  1  0.73763704  0.74500268  0.55822875  1
  Se  Se133  1  0.24191877  0.24773046  0.05809047  1
  Se  Se134  1  0.25365073  0.24885838  0.54788091  1
  Se  Se135  1  0.24610750  0.58248630  0.05586305  1
  Se  Se136  1  0.25510599  0.58841119  0.54104113  1
  Se  Se137  1  0.25851504  0.92477128  0.06104146  1
  Se  Se138  1  0.24984948  0.91864703  0.55414686  1
  Se  Se139  1  0.57879216  0.25100818  0.05466577  1
  Se  Se140  1  0.58587431  0.24084441  0.55053625  1
  Se  Se141  1  0.59406946  0.59497722  0.06260341  1
  Se  Se142  1  0.58713538  0.58055856  0.54607774  1
  Se  Se143  1  0.58152993  0.92249893  0.05266716  1
  Se  Se144  1  0.58527783  0.91946847  0.55648638  1
  Se  Se145  1  0.91661788  0.25371120  0.05502301  1
  Se  Se146  1  0.92558606  0.25003569  0.55485721  1
  Se  Se147  1  0.92137201  0.58572899  0.07048790  1
  Se  Se148  1  0.91504950  0.58140646  0.54787350  1
  Se  Se149  1  0.91846199  0.91517531  0.04814525  1
  Se  Se150  1  0.91470759  0.92992736  0.57090431  1
  Se  Se151  1  0.08724237  0.25155298  0.44330955  1
  Se  Se152  1  0.08139301  0.24710557  0.94329143  1
  Se  Se153  1  0.08513322  0.58051256  0.44443606  1
  Se  Se154  1  0.07779730  0.57554762  0.95297813  1
  Se  Se155  1  0.07635699  0.91696440  0.46004116  1
  Se  Se156  1  0.08378344  0.92269363  0.93779885  1
  Se  Se157  1  0.42107356  0.24446680  0.44660217  1
  Se  Se158  1  0.41289862  0.25426147  0.95295219  1
  Se  Se159  1  0.42142512  0.57626066  0.44905381  1
  Se  Se160  1  0.40899645  0.58783453  0.93802838  1
  Se  Se161  1  0.41020710  0.92305780  0.43353322  1
  Se  Se162  1  0.42094403  0.92060694  0.94803456  1
  Se  Se163  1  0.75929453  0.23730277  0.44823319  1
  Se  Se164  1  0.73891602  0.25908708  0.93449200  1
  Se  Se165  1  0.75296929  0.58427566  0.45628958  1
  Se  Se166  1  0.74435883  0.59509592  0.94389819  1
  Se  Se167  1  0.74856215  0.92641514  0.44035440  1
  Se  Se168  1  0.75532141  0.92097695  0.94445608  1
  Se  Se169  1  0.25143750  0.08732660  0.44725142  1
  Se  Se170  1  0.24981514  0.08534228  0.95011982  1
  Se  Se171  1  0.24763152  0.41303642  0.44343868  1
  Se  Se172  1  0.24199925  0.42003778  0.95110365  1
  Se  Se173  1  0.24380273  0.75804191  0.44978084  1
  Se  Se174  1  0.25373720  0.74102232  0.93771746  1
  Se  Se175  1  0.58272005  0.08360932  0.44815868  1
  Se  Se176  1  0.58101335  0.09002752  0.94524068  1
  Se  Se177  1  0.58822203  0.40647019  0.45081261  1
  Se  Se178  1  0.58243198  0.41963668  0.93800351  1
  Se  Se179  1  0.59222877  0.73895143  0.43967540  1
  Se  Se180  1  0.57872911  0.75684783  0.95057323  1
  Se  Se181  1  0.94272385  0.06626853  0.44449769  1
  Se  Se182  1  0.92519312  0.07859070  0.93324358  1
  Se  Se183  1  0.91727347  0.41615473  0.44574994  1
  Se  Se184  1  0.91317631  0.39973865  0.93210187  1
  Se  Se185  1  0.91829285  0.74940216  0.43917349  1
  Se  Se186  1  0.92009518  0.74786846  0.95391400  1
  Se  Se187  1  0.26615427  0.25818714  0.29847496  1
  Se  Se188  1  0.24869658  0.24514968  0.81185724  1
  Se  Se189  1  0.25066561  0.58517735  0.30829517  1
  Se  Se190  1  0.24376279  0.57880088  0.80296835  1
  Se  Se191  1  0.23799649  0.91962401  0.31627964  1
  Se  Se192  1  0.25611575  0.91635279  0.80049464  1
  Se  Se193  1  0.57743520  0.24558845  0.31274847  1
  Se  Se194  1  0.57867359  0.25399187  0.80187013  1
  Se  Se195  1  0.57993102  0.57015380  0.31135421  1
  Se  Se196  1  0.57982533  0.57566656  0.80217798  1
  Se  Se197  1  0.58736672  0.91701104  0.29740810  1
  Se  Se198  1  0.58581439  0.92347723  0.80576802  1
  Se  Se199  1  0.90545052  0.23504328  0.30372097  1
  Se  Se200  1  0.91821093  0.23234007  0.78706553  1
  Se  Se201  1  0.92265126  0.58382591  0.30613242  1
  Se  Se202  1  0.90890875  0.57108270  0.80390312  1
  Se  Se203  1  0.90933088  0.91687811  0.31704221  1
  Se  Se204  1  0.92233571  0.91985153  0.80462529  1
  Se  Se205  1  0.09471251  0.09363629  0.30996580  1
  Se  Se206  1  0.09247638  0.08173690  0.80097168  1
  Se  Se207  1  0.08246792  0.41089125  0.30567854  1
  Se  Se208  1  0.08051123  0.41186750  0.80231950  1
  Se  Se209  1  0.08276034  0.74876616  0.30906395  1
  Se  Se210  1  0.09178980  0.75719291  0.80967203  1
  Se  Se211  1  0.42159687  0.08759878  0.31033247  1
  Se  Se212  1  0.41539444  0.08614555  0.80509676  1
  Se  Se213  1  0.41026064  0.41419464  0.30868288  1
  Se  Se214  1  0.42026037  0.42303944  0.80335444  1
  Se  Se215  1  0.41653605  0.74808612  0.30234128  1
  Se  Se216  1  0.42263685  0.75224411  0.80877540  1
  Se  Se217  1  0.73674089  0.07564197  0.30183064  1
  Se  Se218  1  0.75711937  0.09620837  0.79978654  1
  Se  Se219  1  0.75361890  0.42035238  0.31607584  1
  Se  Se220  1  0.74676496  0.41298089  0.79598987  1
  Se  Se221  1  0.75874516  0.75527557  0.31412744  1
  Se  Se222  1  0.75400451  0.75420899  0.81368298  1
  Se  Se223  1  0.23672745  0.08958812  0.19339265  1
  Se  Se224  1  0.25737924  0.07957982  0.69629946  1
  Se  Se225  1  0.24427380  0.41883380  0.19667107  1
  Se  Se226  1  0.24465390  0.42271617  0.68463364  1
  Se  Se227  1  0.25405497  0.74886220  0.20277177  1
  Se  Se228  1  0.23623799  0.75880528  0.68472830  1
  Se  Se229  1  0.58213528  0.08200151  0.20320158  1
  Se  Se230  1  0.58489828  0.08021918  0.69500649  1
  Se  Se231  1  0.57014153  0.41459492  0.19016344  1
  Se  Se232  1  0.58931419  0.40690263  0.69051028  1
  Se  Se233  1  0.57971398  0.75490460  0.18892321  1
  Se  Se234  1  0.57196186  0.75939158  0.68839821  1
  Se  Se235  1  0.90914889  0.08806472  0.18804931  1
  Se  Se236  1  0.92052473  0.10212056  0.70396343  1
  Se  Se237  1  0.91872036  0.40722581  0.20349137  1
  Se  Se238  1  0.92451201  0.41004255  0.69106013  1
  Se  Se239  1  0.92208566  0.74987553  0.20184361  1
  Se  Se240  1  0.90406032  0.76051876  0.69364805  1
  Se  Se241  1  0.07183668  0.26062377  0.19726063  1
  Se  Se242  1  0.09284611  0.25623439  0.69577136  1
  Se  Se243  1  0.08254009  0.58393795  0.20369502  1
  Se  Se244  1  0.08695747  0.57763826  0.68462552  1
  Se  Se245  1  0.08997969  0.91100218  0.19535782  1
  Se  Se246  1  0.07903406  0.92456271  0.69589938  1
  Se  Se247  1  0.39814177  0.25366329  0.21074178  1
  Se  Se248  1  0.42199439  0.23841814  0.68326091  1
  Se  Se249  1  0.41580541  0.58390727  0.20137345  1
  Se  Se250  1  0.42195263  0.57173048  0.68426463  1
  Se  Se251  1  0.42079790  0.91347996  0.18786814  1
  Se  Se252  1  0.41480945  0.92158107  0.70130470  1
  Se  Se253  1  0.75392801  0.24184859  0.18699987  1
  Se  Se254  1  0.74139478  0.25563529  0.69478162  1
  Se  Se255  1  0.75963058  0.57303106  0.19680867  1
  Se  Se256  1  0.75512330  0.57363676  0.68317883  1
  Se  Se257  1  0.75398839  0.91651149  0.19824019  1
  Se  Se258  1  0.74435692  0.92611900  0.70323532  1
