# generated using pymatgen
data_In86Cu29Se144
_symmetry_space_group_name_H-M   'P 1'
_cell_length_a   17.58281013
_cell_length_b   17.58586910
_cell_length_c   23.43811523
_cell_angle_alpha   89.98378387
_cell_angle_beta   90.00229933
_cell_angle_gamma   90.01778407
_symmetry_Int_Tables_number   1
_chemical_formula_structural   In86Cu29Se144
_chemical_formula_sum   'In86 Cu29 Se144'
_cell_volume   7247.27546538
_cell_formula_units_Z   1
loop_
 _symmetry_equiv_pos_site_id
 _symmetry_equiv_pos_as_xyz
  1  'x, y, z'
loop_
 _atom_site_type_symbol
 _atom_site_label
 _atom_site_symmetry_multiplicity
 _atom_site_fract_x
 _atom_site_fract_y
 _atom_site_fract_z
 _atom_site_occupancy
  In  In0  1  0.01625747  0.16093428  0.12119713  1
  In  In1  1  0.00063482  0.15265528  0.62599422  1
  In  In2  1  -0.00197293  0.51576999  0.12450899  1
  In  In3  1  0.00347408  0.50989347  0.62016534  1
  In  In4  1  -0.00693267  0.83214317  0.12824641  1
  In  In5  1  -0.01148644  0.83450329  0.63298533  1
  In  In6  1  0.33318291  0.17507475  0.10942495  1
  In  In7  1  0.33867210  0.16792054  0.62409301  1
  In  In8  1  0.34390057  0.49811951  0.12914623  1
  In  In9  1  0.33439388  0.49895614  0.62621797  1
  In  In10  1  0.32316379  0.82678261  0.12841656  1
  In  In11  1  0.33949820  0.82939465  0.62764149  1
  In  In12  1  0.65766224  0.17725083  0.13536343  1
  In  In13  1  0.63058487  0.15648540  0.61368394  1
  In  In14  1  0.65384017  0.49152169  0.11918923  1
  In  In15  1  0.67698306  0.50327750  0.61076215  1
  In  In16  1  0.67817269  0.83634214  0.12918464  1
  In  In17  1  0.66435486  0.83425136  0.62822589  1
  In  In18  1  0.18114167  0.00207607  0.37952830  1
  In  In19  1  0.16958563  0.00266839  0.86481694  1
  In  In20  1  0.17634317  0.32683803  0.38249071  1
  In  In21  1  0.17420855  0.31723344  0.87885175  1
  In  In22  1  0.15555452  0.66391304  0.37017797  1
  In  In23  1  0.16972422  0.66861905  0.86526023  1
  In  In24  1  0.50432848  -0.00989406  0.38844228  1
  In  In25  1  0.50605789  0.01143901  0.87047455  1
  In  In26  1  0.51317761  0.32311559  0.38835987  1
  In  In27  1  0.48729707  0.34076887  0.88373085  1
  In  In28  1  0.49579161  0.67168143  0.38506721  1
  In  In29  1  0.49524305  0.65879448  0.86474036  1
  In  In30  1  0.81918408  0.00386504  0.38003416  1
  In  In31  1  0.83120160  -0.00310022  0.85944378  1
  In  In32  1  0.83224259  0.34796410  0.37488743  1
  In  In33  1  0.84108285  0.34579069  0.87913356  1
  In  In34  1  0.83926749  0.66249320  0.38281047  1
  In  In35  1  0.82334674  0.66016121  0.85936783  1
  In  In36  1  0.01444682  0.16457733  0.37771525  1
  In  In37  1  0.00835369  0.15946169  0.87399934  1
  In  In38  1  -0.00733390  0.51261115  0.38148532  1
  In  In39  1  -0.01041816  0.49945337  0.87730957  1
  In  In40  1  0.00545453  0.81405314  0.37818284  1
  In  In41  1  -0.00324411  0.83383303  0.85960866  1
  In  In42  1  0.33362839  0.16482584  0.38556073  1
  In  In43  1  0.33595244  0.16798663  0.87052445  1
  In  In44  1  0.32981384  0.50420211  0.38434107  1
  In  In45  1  0.34282359  0.50572152  0.86739721  1
  In  In46  1  0.34518470  0.83635414  0.37789281  1
  In  In47  1  0.33061458  0.83281483  0.86283280  1
  In  In48  1  0.65816993  0.15608958  0.36843274  1
  In  In49  1  0.65913711  0.15595293  0.87260666  1
  In  In50  1  0.67274165  0.49070345  0.38747640  1
  In  In51  1  0.65855648  0.50156306  0.87399361  1
  In  In52  1  0.65965413  0.84527472  0.38675639  1
  In  In53  1  0.67640636  0.83342953  0.85573700  1
  In  In54  1  0.15960980  0.01376914  0.12063468  1
  In  In55  1  0.16527799  0.00504382  0.62689689  1
  In  In56  1  0.17932595  0.31976497  0.12552952  1
  In  In57  1  0.17606806  0.34699936  0.61952948  1
  In  In58  1  0.16486742  0.67181509  0.14203643  1
  In  In59  1  0.17258959  0.65919383  0.63108029  1
  In  In60  1  0.49549140  0.01476174  0.12509442  1
  In  In61  1  0.49855662  0.00012565  0.62858231  1
  In  In62  1  0.49910062  0.34281581  0.12020820  1
  In  In63  1  0.49677057  0.32311897  0.61305966  1
  In  In64  1  0.49977191  0.64960121  0.12608087  1
  In  In65  1  0.49970636  0.66681755  0.62405027  1
  In  In66  1  0.83298029  -0.00908932  0.12645818  1
  In  In67  1  0.83873023  -0.01679090  0.63894040  1
  In  In68  1  0.81468158  0.33073077  0.12578798  1
  In  In69  1  0.82202727  0.34436514  0.61828763  1
  In  In70  1  0.84258124  0.67268649  0.12480024  1
  In  In71  1  0.83122187  0.66867019  0.62671729  1
  In  In72  1  0.66202232  0.32924050  0.73917098  1
  In  In73  1  0.00588158  0.33037610  0.75694572  1
  In  In74  1  0.00069666  -0.00511035  0.24716785  1
  In  In75  1  0.83000955  0.16893531  0.50410137  1
  In  In76  1  0.33420770  -0.00447532  0.25121081  1
  In  In77  1  0.83742821  0.83414241  -0.00189664  1
  In  In78  1  -0.00507824  0.33796090  0.24770559  1
  In  In79  1  0.33618728  0.33319321  0.25422044  1
  In  In80  1  0.16470095  0.83638220  -0.00736951  1
  In  In81  1  0.50411461  0.83175826  -0.00957291  1
  In  In82  1  0.82993493  0.16877229  -0.00529136  1
  In  In83  1  0.66521286  0.66832861  0.25500587  1
  In  In84  1  0.17265754  0.49366330  0.00497086  1
  In  In85  1  0.17162590  0.83359166  0.50545774  1
  Cu  Cu86  1  0.82798054  0.16426838  0.74566080  1
  Cu  Cu87  1  0.66709844  -0.00272252  0.50631131  1
  Cu  Cu88  1  0.83317352  0.83515780  0.25334462  1
  Cu  Cu89  1  0.17334753  0.49777240  0.74818375  1
  Cu  Cu90  1  0.33150585  0.66338555  0.50676175  1
  Cu  Cu91  1  0.32899087  0.00949986  -0.00673791  1
  Cu  Cu92  1  0.50213145  0.49736259  0.25179211  1
  Cu  Cu93  1  0.66634306  0.65653191  -0.00890517  1
  Cu  Cu94  1  0.50399118  0.83377894  0.26053415  1
  Cu  Cu95  1  0.16079365  0.50254925  0.25800295  1
  Cu  Cu96  1  0.34191188  0.65778348  -0.00083347  1
  Cu  Cu97  1  0.50248115  0.50247250  0.74603136  1
  Cu  Cu98  1  0.66499081  0.67329642  0.50303516  1
  Cu  Cu99  1  -0.00111696  0.66608545  -0.00155346  1
  Cu  Cu100  1  -0.00166289  0.33502190  0.00029869  1
  Cu  Cu101  1  0.16619127  0.83414757  0.74223323  1
  Cu  Cu102  1  0.50328705  0.16450778  0.25251786  1
  Cu  Cu103  1  0.49847652  0.83323963  0.74580313  1
  Cu  Cu104  1  0.82948010  0.16832165  0.25310880  1
  Cu  Cu105  1  0.82567595  0.50815193  0.25609538  1
  Cu  Cu106  1  0.00357513  0.33682606  0.49646596  1
  Cu  Cu107  1  0.00062563  -0.00506845  0.50831702  1
  Cu  Cu108  1  0.83446316  0.50307742  0.74478603  1
  Cu  Cu109  1  0.66150846  0.33759341  0.00278917  1
  Cu  Cu110  1  0.33260619  0.33411086  0.50241699  1
  Cu  Cu111  1  -0.00425244  0.66403757  0.50303288  1
  Cu  Cu112  1  0.66602404  0.00261848  -0.00089557  1
  Cu  Cu113  1  0.49215323  0.16614757  0.74713193  1
  Cu  Cu114  1  0.17155746  0.16641963  0.74867469  1
  Se  Se115  1  0.08232752  0.08249905  0.04431747  1
  Se  Se116  1  0.08577887  0.08368003  0.55206089  1
  Se  Se117  1  0.07662535  0.40858680  0.06667631  1
  Se  Se118  1  0.08305805  0.42122360  0.55366328  1
  Se  Se119  1  0.08008499  0.74400180  0.05898122  1
  Se  Se120  1  0.07849988  0.74434492  0.56303186  1
  Se  Se121  1  0.41813871  0.08488060  0.04808278  1
  Se  Se122  1  0.44676432  0.10781705  0.56248198  1
  Se  Se123  1  0.40091968  0.40931064  0.05494772  1
  Se  Se124  1  0.41565487  0.41914217  0.55392373  1
  Se  Se125  1  0.41583261  0.74618157  0.05803522  1
  Se  Se126  1  0.41645947  0.75029700  0.55383689  1
  Se  Se127  1  0.74451770  0.08116025  0.06211725  1
  Se  Se128  1  0.74754909  0.07708618  0.56766800  1
  Se  Se129  1  0.74982115  0.41949484  0.05245686  1
  Se  Se130  1  0.74648801  0.41162182  0.54051879  1
  Se  Se131  1  0.74027082  0.74080599  0.05364220  1
  Se  Se132  1  0.74934514  0.75367789  0.55789819  1
  Se  Se133  1  0.24190942  0.24935320  0.04356556  1
  Se  Se134  1  0.25034465  0.25024238  0.55662279  1
  Se  Se135  1  0.25346772  0.59386360  0.06400849  1
  Se  Se136  1  0.24650136  0.57870639  0.55625376  1
  Se  Se137  1  0.25727182  0.92381051  0.05565489  1
  Se  Se138  1  0.26141655  0.92637698  0.56032765  1
  Se  Se139  1  0.58360197  0.25129906  0.05777616  1
  Se  Se140  1  0.60998301  0.27371099  0.55146944  1
  Se  Se141  1  0.58064108  0.58164661  0.04926768  1
  Se  Se142  1  0.58160873  0.58620244  0.55234412  1
  Se  Se143  1  0.58863608  0.91878498  0.05938989  1
  Se  Se144  1  0.57994333  0.91580556  0.55827399  1
  Se  Se145  1  0.91926876  0.25391552  0.06229021  1
  Se  Se146  1  0.92648288  0.25831057  0.56183119  1
  Se  Se147  1  0.91211343  0.58632234  0.05106165  1
  Se  Se148  1  0.90867968  0.58159651  0.55429037  1
  Se  Se149  1  0.93018391  0.92791315  0.05391508  1
  Se  Se150  1  0.91337587  0.91430440  0.55773645  1
  Se  Se151  1  0.08700712  0.24829853  0.44964676  1
  Se  Se152  1  0.07594252  0.25084615  0.94492137  1
  Se  Se153  1  0.08485566  0.58640448  0.44892186  1
  Se  Se154  1  0.08586478  0.58768417  0.94201213  1
  Se  Se155  1  0.07828060  0.91991617  0.44177608  1
  Se  Se156  1  0.07343936  0.92171142  0.93330406  1
  Se  Se157  1  0.41743246  0.24849559  0.45143094  1
  Se  Se158  1  0.42673924  0.23402706  0.94273780  1
  Se  Se159  1  0.41724237  0.58291537  0.45209931  1
  Se  Se160  1  0.42451656  0.57969857  0.94303059  1
  Se  Se161  1  0.40280645  0.92653722  0.45139786  1
  Se  Se162  1  0.40742037  0.92218734  0.93707096  1
  Se  Se163  1  0.74789898  0.24862880  0.43307446  1
  Se  Se164  1  0.73798215  0.26114378  0.93615010  1
  Se  Se165  1  0.74773154  0.58858771  0.44907732  1
  Se  Se166  1  0.75476042  0.57960752  0.93732813  1
  Se  Se167  1  0.75457230  0.91654423  0.45450335  1
  Se  Se168  1  0.74272221  0.92125914  0.93887365  1
  Se  Se169  1  0.24721960  0.08582331  0.45264462  1
  Se  Se170  1  0.24453380  0.08640134  0.93708414  1
  Se  Se171  1  0.24727062  0.41798590  0.45063641  1
  Se  Se172  1  0.25978504  0.41397470  0.93811896  1
  Se  Se173  1  0.25403031  0.74186816  0.44122284  1
  Se  Se174  1  0.26158085  0.74100981  0.94144254  1
  Se  Se175  1  0.58843638  0.08262022  0.44937133  1
  Se  Se176  1  0.57969418  0.08593677  0.94996814  1
  Se  Se177  1  0.56837974  0.43134590  0.44956893  1
  Se  Se178  1  0.58100299  0.42026946  0.94584074  1
  Se  Se179  1  0.57908690  0.75673043  0.45135903  1
  Se  Se180  1  0.59614735  0.74430507  0.93091165  1
  Se  Se181  1  0.92438321  0.07789838  0.44430355  1
  Se  Se182  1  0.91469157  0.07317627  0.93722366  1
  Se  Se183  1  0.91646844  0.41966222  0.44725474  1
  Se  Se184  1  0.91488975  0.42371472  0.95466403  1
  Se  Se185  1  0.91517462  0.75219941  0.45190457  1
  Se  Se186  1  0.92102769  0.74307600  0.93487448  1
  Se  Se187  1  0.24613631  0.23691564  0.30755111  1
  Se  Se188  1  0.25352967  0.25226340  0.80005601  1
  Se  Se189  1  0.24991126  0.58061337  0.30993445  1
  Se  Se190  1  0.25521689  0.58508501  0.80043899  1
  Se  Se191  1  0.24283249  0.90396363  0.30812056  1
  Se  Se192  1  0.24962225  0.91780745  0.79643078  1
  Se  Se193  1  0.58215308  0.25306379  0.30513970  1
  Se  Se194  1  0.57476221  0.24761494  0.80729446  1
  Se  Se195  1  0.57858179  0.57807397  0.31504028  1
  Se  Se196  1  0.58904899  0.58417154  0.79821900  1
  Se  Se197  1  0.58440424  0.92153095  0.30956073  1
  Se  Se198  1  0.57767966  0.91704696  0.80310860  1
  Se  Se199  1  0.91350004  0.24289374  0.31309465  1
  Se  Se200  1  0.90437379  0.24186028  0.81054435  1
  Se  Se201  1  0.91497850  0.58797042  0.30489686  1
  Se  Se202  1  0.92217831  0.57971658  0.80049499  1
  Se  Se203  1  0.91287179  0.91419324  0.31573799  1
  Se  Se204  1  0.90893027  0.91089025  0.79365513  1
  Se  Se205  1  0.09485070  0.08309219  0.30465381  1
  Se  Se206  1  0.08133647  0.08361362  0.79701505  1
  Se  Se207  1  0.08484957  0.41708960  0.31609528  1
  Se  Se208  1  0.09540778  0.42335540  0.81564637  1
  Se  Se209  1  0.08261836  0.75108881  0.29940825  1
  Se  Se210  1  0.08553053  0.74895228  0.79789153  1
  Se  Se211  1  0.42287570  0.08545903  0.31280258  1
  Se  Se212  1  0.41256639  0.07912611  0.80077893  1
  Se  Se213  1  0.42361639  0.42000431  0.31630913  1
  Se  Se214  1  0.42313137  0.41649902  0.80107984  1
  Se  Se215  1  0.41947717  0.74819130  0.30793066  1
  Se  Se216  1  0.41559904  0.74758200  0.79916324  1
  Se  Se217  1  0.74851890  0.07839193  0.30118918  1
  Se  Se218  1  0.74214233  0.08407560  0.79948814  1
  Se  Se219  1  0.74376571  0.42047747  0.30435078  1
  Se  Se220  1  0.75508281  0.41738022  0.80281465  1
  Se  Se221  1  0.75220026  0.75872789  0.31625428  1
  Se  Se222  1  0.75987877  0.75345908  0.78973369  1
  Se  Se223  1  0.25378535  0.09084817  0.18721944  1
  Se  Se224  1  0.25413557  0.08479424  0.69319035  1
  Se  Se225  1  0.23962797  0.42350223  0.19561966  1
  Se  Se226  1  0.25629106  0.41256497  0.69822832  1
  Se  Se227  1  0.26272571  0.74173324  0.20366870  1
  Se  Se228  1  0.25325773  0.74851827  0.69552975  1
  Se  Se229  1  0.58459110  0.07857148  0.19884757  1
  Se  Se230  1  0.58250679  0.08248440  0.70099303  1
  Se  Se231  1  0.58153324  0.41362440  0.19636268  1
  Se  Se232  1  0.57839293  0.42495157  0.68122390  1
  Se  Se233  1  0.57578628  0.75620482  0.19018831  1
  Se  Se234  1  0.58166304  0.74695541  0.69556944  1
  Se  Se235  1  0.91128745  0.09389479  0.18964803  1
  Se  Se236  1  0.91789725  0.08116387  0.69914072  1
  Se  Se237  1  0.90256723  0.42837544  0.19003516  1
  Se  Se238  1  0.91547243  0.41552812  0.69153760  1
  Se  Se239  1  0.91590989  0.75118248  0.20072710  1
  Se  Se240  1  0.92625683  0.73306336  0.69674622  1
  Se  Se241  1  0.09071538  0.24295475  0.19867484  1
  Se  Se242  1  0.08973508  0.24686238  0.68879405  1
  Se  Se243  1  0.07717341  0.58324829  0.20226019  1
  Se  Se244  1  0.08437188  0.57777404  0.69798846  1
  Se  Se245  1  0.09683671  0.90873890  0.18794711  1
  Se  Se246  1  0.08174274  0.91922006  0.69254015  1
  Se  Se247  1  0.42107465  0.24174895  0.19077550  1
  Se  Se248  1  0.41821638  0.25696258  0.69344072  1
  Se  Se249  1  0.41681281  0.58230682  0.20243613  1
  Se  Se250  1  0.41554201  0.58520405  0.69431594  1
  Se  Se251  1  0.42763163  0.90689978  0.18999159  1
  Se  Se252  1  0.41349026  0.91901882  0.69733211  1
  Se  Se253  1  0.74516666  0.25509554  0.20430352  1
  Se  Se254  1  0.75299731  0.23897483  0.68059829  1
  Se  Se255  1  0.74924166  0.58245167  0.18736967  1
  Se  Se256  1  0.74563185  0.57887826  0.69120300  1
  Se  Se257  1  0.75037393  0.92014200  0.20186315  1
  Se  Se258  1  0.73941639  0.91736828  0.70167075  1
