# generated using pymatgen
data_In86Cu29Se144
_symmetry_space_group_name_H-M   'P 1'
_cell_length_a   17.57923609
_cell_length_b   17.57921578
_cell_length_c   23.44338984
_cell_angle_alpha   90.01206588
_cell_angle_beta   89.96722287
_cell_angle_gamma   89.99806076
_symmetry_Int_Tables_number   1
_chemical_formula_structural   In86Cu29Se144
_chemical_formula_sum   'In86 Cu29 Se144'
_cell_volume   7244.69029203
_cell_formula_units_Z   1
loop_
 _symmetry_equiv_pos_site_id
 _symmetry_equiv_pos_as_xyz
  1  'x, y, z'
loop_
 _atom_site_type_symbol
 _atom_site_label
 _atom_site_symmetry_multiplicity
 _atom_site_fract_x
 _atom_site_fract_y
 _atom_site_fract_z
 _atom_site_occupancy
  In  In0  1  -0.00133884  0.14392187  0.13164583  1
  In  In1  1  -0.00589480  0.17319833  0.62225931  1
  In  In2  1  0.00664119  0.52460777  0.12808311  1
  In  In3  1  0.01692644  0.50810485  0.61678241  1
  In  In4  1  0.00299809  0.83347120  0.12166243  1
  In  In5  1  0.01023199  0.81713751  0.63057988  1
  In  In6  1  0.33229240  0.16541697  0.12465353  1
  In  In7  1  0.34343088  0.15980680  0.63224121  1
  In  In8  1  0.33087709  0.48127960  0.12711229  1
  In  In9  1  0.32045602  0.49068147  0.62381672  1
  In  In10  1  0.34113633  0.84307922  0.11969883  1
  In  In11  1  0.33685216  0.83581689  0.61630544  1
  In  In12  1  0.66358723  0.17910075  0.12384046  1
  In  In13  1  0.67569156  0.18521662  0.60985564  1
  In  In14  1  0.67490236  0.50410630  0.11887790  1
  In  In15  1  0.64942785  0.49380423  0.62109884  1
  In  In16  1  0.65925349  0.82238630  0.12096666  1
  In  In17  1  0.66056535  0.84299214  0.62264964  1
  In  In18  1  0.15765607  -0.00817630  0.36535629  1
  In  In19  1  0.18374427  -0.01285820  0.87779864  1
  In  In20  1  0.18257061  0.33291054  0.37522871  1
  In  In21  1  0.16425948  0.32001513  0.87706143  1
  In  In22  1  0.15700543  0.67158351  0.38558789  1
  In  In23  1  0.16977007  0.68425355  0.87131509  1
  In  In24  1  0.48814128  0.01161228  0.37651164  1
  In  In25  1  0.49275407  0.01043208  0.88261177  1
  In  In26  1  0.49585224  0.34405587  0.38636509  1
  In  In27  1  0.49876679  0.33193134  0.87288827  1
  In  In28  1  0.50514331  0.65873657  0.37880395  1
  In  In29  1  0.49611274  0.66641949  0.88489954  1
  In  In30  1  0.84207805  0.00244818  0.37285634  1
  In  In31  1  0.81985810  -0.00120670  0.87969888  1
  In  In32  1  0.81893185  0.32761534  0.38018124  1
  In  In33  1  0.84043655  0.34599003  0.87261934  1
  In  In34  1  0.83850127  0.67494697  0.36213265  1
  In  In35  1  0.84449196  0.66010194  0.87932628  1
  In  In36  1  -0.00310070  0.15332430  0.37413495  1
  In  In37  1  0.00649729  0.18070061  0.87780184  1
  In  In38  1  0.00648611  0.51798649  0.37353005  1
  In  In39  1  -0.01178742  0.49922869  0.87657681  1
  In  In40  1  0.00440981  0.83583398  0.37008298  1
  In  In41  1  0.01422722  0.82234774  0.88244945  1
  In  In42  1  0.33911536  0.17575279  0.36689940  1
  In  In43  1  0.33593897  0.16506375  0.87257486  1
  In  In44  1  0.33882626  0.49484022  0.38161384  1
  In  In45  1  0.34478724  0.50519841  0.87611257  1
  In  In46  1  0.32120395  0.83927131  0.37599903  1
  In  In47  1  0.32394396  0.84489980  0.88344433  1
  In  In48  1  0.66008255  0.17337272  0.38790607  1
  In  In49  1  0.65464125  0.16215520  0.87275273  1
  In  In50  1  0.65318195  0.49597151  0.37365485  1
  In  In51  1  0.67388189  0.49338672  0.87705708  1
  In  In52  1  0.67071068  0.81956223  0.37027189  1
  In  In53  1  0.66304761  0.83786056  0.88657351  1
  In  In54  1  0.16801840  -0.00221355  0.12352738  1
  In  In55  1  0.18341693  -0.00192063  0.62675262  1
  In  In56  1  0.18791590  0.34016311  0.12800741  1
  In  In57  1  0.17332016  0.35232918  0.62837373  1
  In  In58  1  0.14673863  0.66577480  0.12982322  1
  In  In59  1  0.15644368  0.66328670  0.61461075  1
  In  In60  1  0.49044623  -0.00472091  0.12192272  1
  In  In61  1  0.49122636  -0.00126549  0.61847208  1
  In  In62  1  0.49479993  0.32335578  0.11707808  1
  In  In63  1  0.49829552  0.33080966  0.62839782  1
  In  In64  1  0.50816076  0.66950715  0.12055861  1
  In  In65  1  0.49283833  0.66302008  0.61286353  1
  In  In66  1  0.85957507  0.00069790  0.12887414  1
  In  In67  1  0.82360922  0.00655927  0.62441421  1
  In  In68  1  0.82121876  0.33552073  0.12373295  1
  In  In69  1  0.82991762  0.32004904  0.62626983  1
  In  In70  1  0.83463219  0.66881792  0.12289453  1
  In  In71  1  0.84493944  0.67384519  0.62784859  1
  In  In72  1  0.16857279  0.50328347  0.00397524  1
  In  In73  1  0.66759325  0.66414493  0.74798333  1
  In  In74  1  0.66826362  -0.00258822  0.25144797  1
  In  In75  1  0.16700187  0.16572955  0.50030549  1
  In  In76  1  0.66366330  0.33447541  0.24824701  1
  In  In77  1  0.66030691  0.00457356  0.75073606  1
  In  In78  1  0.32777390  0.66544987  0.74857468  1
  In  In79  1  0.83385140  0.83709035  0.49622423  1
  In  In80  1  0.83332685  0.49889557  0.49985497  1
  In  In81  1  0.32924203  0.66541087  0.25279431  1
  In  In82  1  0.00051978  0.00086585  0.74781997  1
  In  In83  1  0.83160885  0.16549631  0.00335880  1
  In  In84  1  0.00061523  0.33193717  0.25436122  1
  In  In85  1  0.00355758  0.33804457  0.74696799  1
  Cu  Cu86  1  0.66577251  -0.00498187  0.00574858  1
  Cu  Cu87  1  -0.00395825  0.67074586  0.00154534  1
  Cu  Cu88  1  0.00545814  -0.00323254  0.00088649  1
  Cu  Cu89  1  0.32960729  -0.00154783  0.49609433  1
  Cu  Cu90  1  0.17371773  0.16357807  0.75246237  1
  Cu  Cu91  1  0.33778418  0.33345434  0.50367743  1
  Cu  Cu92  1  0.49638336  0.49876675  0.25423586  1
  Cu  Cu93  1  -0.00193285  -0.00544132  0.49661445  1
  Cu  Cu94  1  0.00203890  0.33424447  0.00153338  1
  Cu  Cu95  1  0.65706172  0.00275679  0.50144518  1
  Cu  Cu96  1  0.33409809  0.00490623  0.00069646  1
  Cu  Cu97  1  0.66937352  0.66357933  -0.00043475  1
  Cu  Cu98  1  0.33817996  0.32600533  -0.00104133  1
  Cu  Cu99  1  0.83790145  0.83057238  0.24506719  1
  Cu  Cu100  1  0.16504352  0.83601471  0.24841795  1
  Cu  Cu101  1  0.49888109  0.49137630  0.75074630  1
  Cu  Cu102  1  0.83403818  0.49739284  0.74987654  1
  Cu  Cu103  1  0.49797249  0.16870547  0.74978555  1
  Cu  Cu104  1  0.83739282  0.50854411  0.24478493  1
  Cu  Cu105  1  0.84028894  0.82855642  0.75712718  1
  Cu  Cu106  1  0.66562615  0.66492242  0.49528619  1
  Cu  Cu107  1  0.16761391  0.16350122  0.24760221  1
  Cu  Cu108  1  -0.00199684  0.33471389  0.50196796  1
  Cu  Cu109  1  0.33550112  0.66801686  0.49661965  1
  Cu  Cu110  1  0.49283061  0.16998227  0.24810957  1
  Cu  Cu111  1  0.49059770  0.83638611  0.74726620  1
  Cu  Cu112  1  0.49797455  0.83245523  0.24488412  1
  Cu  Cu113  1  0.66234947  0.33553494  -0.00355038  1
  Cu  Cu114  1  0.33654364  0.66828525  0.00338317  1
  Se  Se115  1  0.08445171  0.08329780  0.05448369  1
  Se  Se116  1  0.07705411  0.07347937  0.56110086  1
  Se  Se117  1  0.07857142  0.41372701  0.06578033  1
  Se  Se118  1  0.08812385  0.41391301  0.55008155  1
  Se  Se119  1  0.08657223  0.75026163  0.05150409  1
  Se  Se120  1  0.08223826  0.75630295  0.54818816  1
  Se  Se121  1  0.41870214  0.08765191  0.05387700  1
  Se  Se122  1  0.40913083  0.08421273  0.55045338  1
  Se  Se123  1  0.41657662  0.41529265  0.05150382  1
  Se  Se124  1  0.41719667  0.41863772  0.55923461  1
  Se  Se125  1  0.42114696  0.75238023  0.05510325  1
  Se  Se126  1  0.42033140  0.75490932  0.54643476  1
  Se  Se127  1  0.74643721  0.07408459  0.06731212  1
  Se  Se128  1  0.74851192  0.08262085  0.54970363  1
  Se  Se129  1  0.75033320  0.41550006  0.04840463  1
  Se  Se130  1  0.74403912  0.40973125  0.55857290  1
  Se  Se131  1  0.75104836  0.74955159  0.05277155  1
  Se  Se132  1  0.74345458  0.74388596  0.55885180  1
  Se  Se133  1  0.25034986  0.25018291  0.05415074  1
  Se  Se134  1  0.25496225  0.25303897  0.56357338  1
  Se  Se135  1  0.25679874  0.59159815  0.06727533  1
  Se  Se136  1  0.25502663  0.58592369  0.55443126  1
  Se  Se137  1  0.25073479  0.91783836  0.05186641  1
  Se  Se138  1  0.24643683  0.91540413  0.54874105  1
  Se  Se139  1  0.58288540  0.24674851  0.04733168  1
  Se  Se140  1  0.55998818  0.23635191  0.55640580  1
  Se  Se141  1  0.58417848  0.58029200  0.05193801  1
  Se  Se142  1  0.58231882  0.58186761  0.54846791  1
  Se  Se143  1  0.57888954  0.91333732  0.05696364  1
  Se  Se144  1  0.57659882  0.91410808  0.55085128  1
  Se  Se145  1  0.92382610  0.25255290  0.06478635  1
  Se  Se146  1  0.91355983  0.24947969  0.55013765  1
  Se  Se147  1  0.91607736  0.58218786  0.05293083  1
  Se  Se148  1  0.92394882  0.59539851  0.55256063  1
  Se  Se149  1  0.91806170  0.91477002  0.05100947  1
  Se  Se150  1  0.92076459  0.92041362  0.56475803  1
  Se  Se151  1  0.07690623  0.25452484  0.43823489  1
  Se  Se152  1  0.08715394  0.24805023  0.95517698  1
  Se  Se153  1  0.08645717  0.57712971  0.45294800  1
  Se  Se154  1  0.07902289  0.58980312  0.94083706  1
  Se  Se155  1  0.08380297  0.91593061  0.44320447  1
  Se  Se156  1  0.09014774  0.91604380  0.94627104  1
  Se  Se157  1  0.41330730  0.24827500  0.44561778  1
  Se  Se158  1  0.42074241  0.24502114  0.94276657  1
  Se  Se159  1  0.42076300  0.58057148  0.44849315  1
  Se  Se160  1  0.41771683  0.57976929  0.95380490  1
  Se  Se161  1  0.41399842  0.91667271  0.44171461  1
  Se  Se162  1  0.41862993  0.91758812  0.94926192  1
  Se  Se163  1  0.74657806  0.25164863  0.45499800  1
  Se  Se164  1  0.74771107  0.25447257  0.93766892  1
  Se  Se165  1  0.75018755  0.59140906  0.43437029  1
  Se  Se166  1  0.75268277  0.58174051  0.94372318  1
  Se  Se167  1  0.73869841  0.92578066  0.43792122  1
  Se  Se168  1  0.75272147  0.91427042  0.95439004  1
  Se  Se169  1  0.25100986  0.07972411  0.43388110  1
  Se  Se170  1  0.25107314  0.08538503  0.94358840  1
  Se  Se171  1  0.25185139  0.41470936  0.45089047  1
  Se  Se172  1  0.25534048  0.41100253  0.94214760  1
  Se  Se173  1  0.24918481  0.75281206  0.44778334  1
  Se  Se174  1  0.25129527  0.74887979  0.94957652  1
  Se  Se175  1  0.57315232  0.08568834  0.44846831  1
  Se  Se176  1  0.58826110  0.08115536  0.95008376  1
  Se  Se177  1  0.59565732  0.41048682  0.44988904  1
  Se  Se178  1  0.57991496  0.41842987  0.94197433  1
  Se  Se179  1  0.58416473  0.75201948  0.44395752  1
  Se  Se180  1  0.58218677  0.74889755  0.95049533  1
  Se  Se181  1  0.91408848  0.08235894  0.44983368  1
  Se  Se182  1  0.92458568  0.07863566  0.94052746  1
  Se  Se183  1  0.92334877  0.41228955  0.43540385  1
  Se  Se184  1  0.91605406  0.41686497  0.95149280  1
  Se  Se185  1  0.92249588  0.74417003  0.44043865  1
  Se  Se186  1  0.91388721  0.75486424  0.94702872  1
  Se  Se187  1  0.24935529  0.25083363  0.29824957  1
  Se  Se188  1  0.25230226  0.25156136  0.80508907  1
  Se  Se189  1  0.24580809  0.58101956  0.31890147  1
  Se  Se190  1  0.24206991  0.57619082  0.81262561  1
  Se  Se191  1  0.25191638  0.91931153  0.29834577  1
  Se  Se192  1  0.25332739  0.90945239  0.80082999  1
  Se  Se193  1  0.57353676  0.24718530  0.30992364  1
  Se  Se194  1  0.58338454  0.24995834  0.80262456  1
  Se  Se195  1  0.58306503  0.58382223  0.30177651  1
  Se  Se196  1  0.57479219  0.57914676  0.80946377  1
  Se  Se197  1  0.57496078  0.91053203  0.31078697  1
  Se  Se198  1  0.57403670  0.90996547  0.81029678  1
  Se  Se199  1  0.90628610  0.24410062  0.31140305  1
  Se  Se200  1  0.91239071  0.24538496  0.80492985  1
  Se  Se201  1  0.92341412  0.58821137  0.29830913  1
  Se  Se202  1  0.91664662  0.58210595  0.80156968  1
  Se  Se203  1  0.91487746  0.91457912  0.30311926  1
  Se  Se204  1  0.91321044  0.91578915  0.81524676  1
  Se  Se205  1  0.07979655  0.08313905  0.29954070  1
  Se  Se206  1  0.08884264  0.08851339  0.81246957  1
  Se  Se207  1  0.09100509  0.42093533  0.31196192  1
  Se  Se208  1  0.08894774  0.42238551  0.81349407  1
  Se  Se209  1  0.08832036  0.74960030  0.30478412  1
  Se  Se210  1  0.08099192  0.75185055  0.80098997  1
  Se  Se211  1  0.41073484  0.08194625  0.29818964  1
  Se  Se212  1  0.41859722  0.08004482  0.80288773  1
  Se  Se213  1  0.41731203  0.41357725  0.30798672  1
  Se  Se214  1  0.41191902  0.41448229  0.80499791  1
  Se  Se215  1  0.42157207  0.75462024  0.31130611  1
  Se  Se216  1  0.41918676  0.75284730  0.81084624  1
  Se  Se217  1  0.74693439  0.09245145  0.31445003  1
  Se  Se218  1  0.75790579  0.09278874  0.80582259  1
  Se  Se219  1  0.75861054  0.42691371  0.30548930  1
  Se  Se220  1  0.75007467  0.41470825  0.80137262  1
  Se  Se221  1  0.74819285  0.74832640  0.29324630  1
  Se  Se222  1  0.74991055  0.75507130  0.81339851  1
  Se  Se223  1  0.25089654  0.08050662  0.19312852  1
  Se  Se224  1  0.25652755  0.07916068  0.70036098  1
  Se  Se225  1  0.24939099  0.42187160  0.20590329  1
  Se  Se226  1  0.25092555  0.42020370  0.70520113  1
  Se  Se227  1  0.24671482  0.75683047  0.18767918  1
  Se  Se228  1  0.24607902  0.75224107  0.68275630  1
  Se  Se229  1  0.57835338  0.09075266  0.19128963  1
  Se  Se230  1  0.57637964  0.08999575  0.68556424  1
  Se  Se231  1  0.57493276  0.42265662  0.18696537  1
  Se  Se232  1  0.58552653  0.41140108  0.69851475  1
  Se  Se233  1  0.58295195  0.74663530  0.19771359  1
  Se  Se234  1  0.57340263  0.75503603  0.69008595  1
  Se  Se235  1  0.91065807  0.08654827  0.20820456  1
  Se  Se236  1  0.90639450  0.09397115  0.69398911  1
  Se  Se237  1  0.91372229  0.42130347  0.18765653  1
  Se  Se238  1  0.91423412  0.42495082  0.68284635  1
  Se  Se239  1  0.92229028  0.74801943  0.19120766  1
  Se  Se240  1  0.92270021  0.74657002  0.70363556  1
  Se  Se241  1  0.08813452  0.24611364  0.18760251  1
  Se  Se242  1  0.09492966  0.24192091  0.68934843  1
  Se  Se243  1  0.09565884  0.57436004  0.20617799  1
  Se  Se244  1  0.08808462  0.58313172  0.69270103  1
  Se  Se245  1  0.08130119  0.91805521  0.19296327  1
  Se  Se246  1  0.09447909  0.91164843  0.69353813  1
  Se  Se247  1  0.41276170  0.25465067  0.19321767  1
  Se  Se248  1  0.41174188  0.25421594  0.70046111  1
  Se  Se249  1  0.42043228  0.57857151  0.18987828  1
  Se  Se250  1  0.42454795  0.57809086  0.69079016  1
  Se  Se251  1  0.41388985  0.91933584  0.19827144  1
  Se  Se252  1  0.41159550  0.91839631  0.69118292  1
  Se  Se253  1  0.76026051  0.23909921  0.19795814  1
  Se  Se254  1  0.74331809  0.24705570  0.69526303  1
  Se  Se255  1  0.74866119  0.58635172  0.19213392  1
  Se  Se256  1  0.75581023  0.57482678  0.68511190  1
  Se  Se257  1  0.75580302  0.91157291  0.18595115  1
  Se  Se258  1  0.75774030  0.90666805  0.69689420  1
