# generated using pymatgen
data_In86Cu29Se144
_symmetry_space_group_name_H-M   'P 1'
_cell_length_a   17.56363324
_cell_length_b   17.56925611
_cell_length_c   23.42833474
_cell_angle_alpha   89.99064034
_cell_angle_beta   89.99724474
_cell_angle_gamma   90.00276541
_symmetry_Int_Tables_number   1
_chemical_formula_structural   In86Cu29Se144
_chemical_formula_sum   'In86 Cu29 Se144'
_cell_volume   7229.51473001
_cell_formula_units_Z   1
loop_
 _symmetry_equiv_pos_site_id
 _symmetry_equiv_pos_as_xyz
  1  'x, y, z'
loop_
 _atom_site_type_symbol
 _atom_site_label
 _atom_site_symmetry_multiplicity
 _atom_site_fract_x
 _atom_site_fract_y
 _atom_site_fract_z
 _atom_site_occupancy
  In  In0  1  0.00328794  0.17325533  0.11981492  1
  In  In1  1  -0.01296303  0.17116303  0.62724010  1
  In  In2  1  0.00014944  0.49831469  0.12361833  1
  In  In3  1  0.01677901  0.50624764  0.62093485  1
  In  In4  1  -0.01112218  0.82624274  0.11827835  1
  In  In5  1  0.01216571  0.82248007  0.63542860  1
  In  In6  1  0.33480363  0.18422638  0.12560885  1
  In  In7  1  0.33792512  0.15379890  0.62226809  1
  In  In8  1  0.33029596  0.50198657  0.12451869  1
  In  In9  1  0.32781315  0.52733503  0.63019575  1
  In  In10  1  0.31610184  0.82801341  0.12205531  1
  In  In11  1  0.31453586  0.83154704  0.62232754  1
  In  In12  1  0.68137068  0.17015011  0.12007412  1
  In  In13  1  0.66778291  0.17105964  0.62967459  1
  In  In14  1  0.66733525  0.50008101  0.12317566  1
  In  In15  1  0.64581074  0.49692174  0.63527658  1
  In  In16  1  0.66452892  0.81804816  0.11973349  1
  In  In17  1  0.68412906  0.83735217  0.62900833  1
  In  In18  1  0.15688040  -0.01672209  0.38308400  1
  In  In19  1  0.15008375  0.00938586  0.87874909  1
  In  In20  1  0.17663591  0.34389774  0.36373798  1
  In  In21  1  0.16666554  0.33423553  0.88327595  1
  In  In22  1  0.16275215  0.66061240  0.37637954  1
  In  In23  1  0.16681131  0.66614799  0.87783976  1
  In  In24  1  0.51533843  0.00510135  0.37979809  1
  In  In25  1  0.51267144  -0.01013339  0.86528598  1
  In  In26  1  0.49949098  0.33570023  0.37177494  1
  In  In27  1  0.51476905  0.33646189  0.87483153  1
  In  In28  1  0.49095702  0.65620724  0.36691781  1
  In  In29  1  0.48732859  0.66625890  0.87115633  1
  In  In30  1  0.85270626  0.01156803  0.37973915  1
  In  In31  1  0.83461498  -0.00257518  0.87900763  1
  In  In32  1  0.83014937  0.32717797  0.36684827  1
  In  In33  1  0.82533299  0.33870186  0.88410887  1
  In  In34  1  0.83313650  0.66637713  0.36485887  1
  In  In35  1  0.84624665  0.65679485  0.88243664  1
  In  In36  1  -0.01260566  0.15788162  0.37733081  1
  In  In37  1  0.00920388  0.15481653  0.87745314  1
  In  In38  1  0.01642191  0.51274861  0.36181920  1
  In  In39  1  -0.00416691  0.50456857  0.88265550  1
  In  In40  1  0.01791219  0.82508522  0.38260148  1
  In  In41  1  0.00057437  0.83202284  0.87767994  1
  In  In42  1  0.33405481  0.18539042  0.37569238  1
  In  In43  1  0.32035149  0.16259127  0.87616266  1
  In  In44  1  0.32629895  0.49822493  0.37261347  1
  In  In45  1  0.32494878  0.50786402  0.88406432  1
  In  In46  1  0.32291847  0.81345798  0.37760195  1
  In  In47  1  0.33817486  0.81442078  0.87161541  1
  In  In48  1  0.66565744  0.17676851  0.38112567  1
  In  In49  1  0.67414461  0.16766831  0.87575978  1
  In  In50  1  0.66837079  0.49753558  0.36262175  1
  In  In51  1  0.67325760  0.49365393  0.88255903  1
  In  In52  1  0.67689721  0.83181405  0.37205424  1
  In  In53  1  0.66985812  0.85128710  0.87141726  1
  In  In54  1  0.15521345  -0.00802674  0.11238337  1
  In  In55  1  0.16737968  -0.01126628  0.63095117  1
  In  In56  1  0.16311004  0.33502137  0.12443480  1
  In  In57  1  0.15476106  0.34099860  0.62028541  1
  In  In58  1  0.16443662  0.66509673  0.12634468  1
  In  In59  1  0.16582855  0.66834946  0.62556623  1
  In  In60  1  0.50784092  0.00060914  0.11929213  1
  In  In61  1  0.49896266  0.01494741  0.62492605  1
  In  In62  1  0.48695229  0.34716999  0.13166559  1
  In  In63  1  0.51775732  0.34267967  0.62816018  1
  In  In64  1  0.50839806  0.65297205  0.12992087  1
  In  In65  1  0.47948076  0.66404591  0.62833944  1
  In  In66  1  0.83144817  0.00811872  0.10887654  1
  In  In67  1  0.82551799  0.00766864  0.63828914  1
  In  In68  1  0.83342340  0.33345581  0.12424384  1
  In  In69  1  0.83306438  0.32228555  0.62632336  1
  In  In70  1  0.83634079  0.66293805  0.12301324  1
  In  In71  1  0.83870342  0.67695678  0.62690231  1
  In  In72  1  0.49075656  0.49604464  0.49667716  1
  In  In73  1  0.84608921  0.84039495  0.49721229  1
  In  In74  1  0.49706963  0.83577568  0.50733600  1
  In  In75  1  0.16475071  0.16447819  0.49997614  1
  In  In76  1  0.66663325  0.67121385  0.75100255  1
  In  In77  1  0.84139338  0.49788455  0.50235029  1
  In  In78  1  0.50333624  0.82894227  -0.00745718  1
  In  In79  1  0.67032324  -0.00226569  0.24319363  1
  In  In80  1  0.33457840  0.33443781  0.75644300  1
  In  In81  1  0.00014326  -0.00526970  0.25609913  1
  In  In82  1  0.49479355  0.16892839  -0.00720920  1
  In  In83  1  0.33364554  0.00456060  0.24507463  1
  In  In84  1  0.33561798  -0.00927077  0.74868802  1
  In  In85  1  -0.00395224  0.33442970  0.74879906  1
  Cu  Cu86  1  0.66052683  0.66384294  0.49416317  1
  Cu  Cu87  1  0.00642915  0.66555303  0.00231689  1
  Cu  Cu88  1  0.33941165  0.33510027  0.49717412  1
  Cu  Cu89  1  0.67370660  0.32712973  0.50279245  1
  Cu  Cu90  1  0.50001663  0.50089813  0.24688556  1
  Cu  Cu91  1  0.49346141  0.82312304  0.24704987  1
  Cu  Cu92  1  0.16559540  0.17089773  0.24555847  1
  Cu  Cu93  1  0.82962901  0.16608181  0.75477713  1
  Cu  Cu94  1  -0.00432741  0.33178641  0.00284770  1
  Cu  Cu95  1  0.16977898  0.50940998  0.75245738  1
  Cu  Cu96  1  0.33143642  0.66559936  0.00152576  1
  Cu  Cu97  1  -0.00304860  0.00092121  -0.00438229  1
  Cu  Cu98  1  0.16677224  0.49984620  0.24461638  1
  Cu  Cu99  1  0.83406599  0.49952984  0.75745713  1
  Cu  Cu100  1  0.83373365  0.82299240  0.24615494  1
  Cu  Cu101  1  0.50580367  0.16864699  0.75009437  1
  Cu  Cu102  1  0.00114555  0.33552830  0.49383760  1
  Cu  Cu103  1  0.67473738  0.01578694  0.50488155  1
  Cu  Cu104  1  0.83520270  0.16815947  0.24810437  1
  Cu  Cu105  1  0.33695408  -0.00159920  0.50145079  1
  Cu  Cu106  1  0.32726166  0.34054722  0.00548303  1
  Cu  Cu107  1  0.16566892  0.82067976  0.25142290  1
  Cu  Cu108  1  0.16649159  0.82758125  0.75427297  1
  Cu  Cu109  1  0.84324073  0.83696245  0.75427406  1
  Cu  Cu110  1  0.32511388  -0.00101100  -0.00440052  1
  Cu  Cu111  1  0.66251997  0.33539458  0.00446025  1
  Cu  Cu112  1  0.67425558  0.66309519  -0.00056313  1
  Cu  Cu113  1  0.50254684  0.17885864  0.25384705  1
  Cu  Cu114  1  0.83461782  0.49728221  0.24210511  1
  Se  Se115  1  0.07974015  0.08612076  0.04979977  1
  Se  Se116  1  0.07970258  0.08069062  0.56610402  1
  Se  Se117  1  0.08238753  0.41598697  0.05294835  1
  Se  Se118  1  0.08392787  0.42076241  0.54480231  1
  Se  Se119  1  0.08669400  0.75225591  0.05591900  1
  Se  Se120  1  0.09318699  0.76123361  0.55664789  1
  Se  Se121  1  0.40576523  0.07696729  0.05760222  1
  Se  Se122  1  0.42195670  0.08631077  0.54656584  1
  Se  Se123  1  0.41650814  0.42280752  0.05303711  1
  Se  Se124  1  0.40839839  0.41251678  0.56718536  1
  Se  Se125  1  0.41656480  0.74532909  0.06068378  1
  Se  Se126  1  0.39824001  0.74103681  0.55200181  1
  Se  Se127  1  0.73847312  0.08193238  0.04517133  1
  Se  Se128  1  0.75822650  0.09231147  0.56189911  1
  Se  Se129  1  0.75115784  0.41705900  0.05484788  1
  Se  Se130  1  0.74099658  0.41770062  0.56384217  1
  Se  Se131  1  0.75627003  0.74844066  0.05151321  1
  Se  Se132  1  0.74516923  0.74482706  0.55054450  1
  Se  Se133  1  0.24609904  0.25002843  0.05341061  1
  Se  Se134  1  0.25740432  0.25595854  0.55992370  1
  Se  Se135  1  0.24669935  0.58352662  0.05522377  1
  Se  Se136  1  0.23376231  0.57221867  0.55586364  1
  Se  Se137  1  0.24579231  0.91147655  0.04812628  1
  Se  Se138  1  0.24583237  0.92177162  0.55110711  1
  Se  Se139  1  0.57747603  0.25494983  0.06204269  1
  Se  Se140  1  0.58428968  0.25128779  0.55716308  1
  Se  Se141  1  0.58542679  0.58328583  0.05161309  1
  Se  Se142  1  0.58181415  0.58968662  0.55771366  1
  Se  Se143  1  0.59486671  0.92083448  0.05171994  1
  Se  Se144  1  0.59719550  0.92556106  0.56001614  1
  Se  Se145  1  0.91035255  0.24649987  0.05309766  1
  Se  Se146  1  0.91969195  0.25640014  0.55142034  1
  Se  Se147  1  0.91918230  0.58164142  0.05301035  1
  Se  Se148  1  0.92677118  0.59693734  0.55676537  1
  Se  Se149  1  0.91528115  0.91628166  0.04958243  1
  Se  Se150  1  0.91753113  0.91732637  0.57509635  1
  Se  Se151  1  0.08350357  0.25562271  0.43397843  1
  Se  Se152  1  0.07849898  0.25059997  0.94598002  1
  Se  Se153  1  0.08462482  0.57413797  0.44591956  1
  Se  Se154  1  0.08807468  0.58081633  0.94831199  1
  Se  Se155  1  0.04963277  0.93811742  0.44842423  1
  Se  Se156  1  0.08387223  0.91480049  0.94797445  1
  Se  Se157  1  0.42506539  0.25266838  0.44674482  1
  Se  Se158  1  0.40283911  0.26358123  0.93721438  1
  Se  Se159  1  0.40148111  0.59364604  0.44478267  1
  Se  Se160  1  0.41904519  0.58607937  0.94900519  1
  Se  Se161  1  0.41240875  0.91995523  0.43563047  1
  Se  Se162  1  0.41031231  0.92398608  0.93628318  1
  Se  Se163  1  0.76016688  0.25014614  0.44722879  1
  Se  Se164  1  0.74481383  0.25054241  0.95122586  1
  Se  Se165  1  0.74522084  0.58403723  0.43936281  1
  Se  Se166  1  0.75814790  0.57672370  0.94914822  1
  Se  Se167  1  0.74583307  0.93096429  0.44116811  1
  Se  Se168  1  0.75822014  0.90684230  0.94668601  1
  Se  Se169  1  0.25787259  0.07655341  0.43618794  1
  Se  Se170  1  0.24044051  0.08658188  0.94837351  1
  Se  Se171  1  0.25119853  0.41285804  0.44457387  1
  Se  Se172  1  0.24290924  0.42239830  0.95102241  1
  Se  Se173  1  0.21770916  0.76832177  0.44401683  1
  Se  Se174  1  0.25151674  0.75051552  0.94712226  1
  Se  Se175  1  0.58549132  0.09186052  0.45089863  1
  Se  Se176  1  0.58607547  0.07366903  0.94086497  1
  Se  Se177  1  0.59619842  0.41338575  0.44333877  1
  Se  Se178  1  0.58022208  0.41966398  0.95157552  1
  Se  Se179  1  0.58233633  0.74833902  0.43721842  1
  Se  Se180  1  0.59566964  0.73984133  0.93406296  1
  Se  Se181  1  0.92069322  0.08588770  0.45884478  1
  Se  Se182  1  0.91365620  0.08815374  0.94595575  1
  Se  Se183  1  0.92238100  0.41507174  0.43207332  1
  Se  Se184  1  0.91464074  0.41831601  0.94950404  1
  Se  Se185  1  0.92249740  0.73545017  0.44149089  1
  Se  Se186  1  0.92081261  0.74844366  0.94941918  1
  Se  Se187  1  0.25408303  0.25077427  0.29761464  1
  Se  Se188  1  0.23490943  0.24367664  0.80569835  1
  Se  Se189  1  0.24618060  0.58252651  0.30376010  1
  Se  Se190  1  0.25538754  0.58879976  0.80681494  1
  Se  Se191  1  0.24383999  0.91221915  0.30541824  1
  Se  Se192  1  0.24421039  0.91134648  0.81491894  1
  Se  Se193  1  0.59141719  0.25650139  0.30620605  1
  Se  Se194  1  0.58843156  0.24812565  0.80643706  1
  Se  Se195  1  0.58415286  0.58564323  0.29982981  1
  Se  Se196  1  0.58466532  0.57822775  0.81268560  1
  Se  Se197  1  0.57492789  0.90762242  0.30394002  1
  Se  Se198  1  0.57245567  0.89538735  0.79584217  1
  Se  Se199  1  0.92248605  0.24542677  0.30284451  1
  Se  Se200  1  0.91059172  0.24825371  0.81460576  1
  Se  Se201  1  0.91481635  0.58096459  0.29875502  1
  Se  Se202  1  0.92221519  0.58189645  0.80463566  1
  Se  Se203  1  0.90810670  0.90215519  0.31269707  1
  Se  Se204  1  0.92376092  0.92163014  0.80868855  1
  Se  Se205  1  0.09569528  0.08778404  0.31091039  1
  Se  Se206  1  0.08232669  0.08332909  0.79862046  1
  Se  Se207  1  0.08222572  0.41316244  0.29591751  1
  Se  Se208  1  0.08945093  0.42329987  0.80856562  1
  Se  Se209  1  0.07788829  0.74230924  0.30382741  1
  Se  Se210  1  0.08143500  0.74581505  0.80836663  1
  Se  Se211  1  0.42603730  0.08939322  0.30999974  1
  Se  Se212  1  0.42227190  0.09062255  0.80912022  1
  Se  Se213  1  0.41759352  0.42111899  0.30595473  1
  Se  Se214  1  0.42034155  0.42513084  0.81598501  1
  Se  Se215  1  0.40872396  0.74623257  0.30323139  1
  Se  Se216  1  0.42393048  0.75314857  0.79628638  1
  Se  Se217  1  0.75659280  0.08532434  0.30886848  1
  Se  Se218  1  0.74925185  0.07800674  0.80757728  1
  Se  Se219  1  0.75201293  0.41325270  0.29758655  1
  Se  Se220  1  0.75015200  0.41517708  0.80676893  1
  Se  Se221  1  0.74328734  0.74563975  0.29839412  1
  Se  Se222  1  0.76257965  0.75184034  0.81335140  1
  Se  Se223  1  0.23819469  0.08606882  0.18335839  1
  Se  Se224  1  0.24558747  0.08916411  0.69549104  1
  Se  Se225  1  0.25059269  0.41468520  0.19291785  1
  Se  Se226  1  0.24299495  0.42171164  0.69237682  1
  Se  Se227  1  0.25300241  0.74261570  0.19795258  1
  Se  Se228  1  0.25067488  0.74697029  0.69890911  1
  Se  Se229  1  0.57646474  0.09561240  0.19125029  1
  Se  Se230  1  0.58693419  0.08186752  0.69767882  1
  Se  Se231  1  0.58557452  0.41762809  0.19509808  1
  Se  Se232  1  0.58716105  0.40891175  0.71052418  1
  Se  Se233  1  0.58476312  0.74711467  0.19553580  1
  Se  Se234  1  0.58029442  0.75335349  0.68177262  1
  Se  Se235  1  0.91257068  0.08162796  0.19033774  1
  Se  Se236  1  0.91818676  0.08747536  0.70277157  1
  Se  Se237  1  0.92004190  0.41210460  0.19327690  1
  Se  Se238  1  0.91115767  0.42823683  0.68634450  1
  Se  Se239  1  0.92143271  0.74337669  0.19471494  1
  Se  Se240  1  0.91968565  0.74610858  0.70245869  1
  Se  Se241  1  0.07881388  0.25179763  0.19453771  1
  Se  Se242  1  0.09058821  0.24541165  0.69161510  1
  Se  Se243  1  0.07994840  0.58304151  0.19448905  1
  Se  Se244  1  0.08216703  0.58764184  0.69837210  1
  Se  Se245  1  0.08799573  0.90668391  0.19238888  1
  Se  Se246  1  0.08450370  0.91577144  0.70433721  1
  Se  Se247  1  0.41315893  0.25612001  0.20142251  1
  Se  Se248  1  0.42116407  0.24460188  0.69044534  1
  Se  Se249  1  0.41251958  0.58364490  0.19632660  1
  Se  Se250  1  0.43597845  0.56132853  0.69851665  1
  Se  Se251  1  0.42324380  0.90974795  0.18537567  1
  Se  Se252  1  0.42214840  0.90811502  0.68140423  1
  Se  Se253  1  0.75026722  0.25061462  0.19609409  1
  Se  Se254  1  0.74993331  0.25335680  0.70115865  1
  Se  Se255  1  0.74988893  0.58356481  0.19240448  1
  Se  Se256  1  0.75660566  0.57691714  0.68981109  1
  Se  Se257  1  0.76178702  0.90906957  0.18455153  1
  Se  Se258  1  0.75049940  0.91681161  0.70696982  1
