# generated using pymatgen
data_In86Cu29Se144
_symmetry_space_group_name_H-M   'P 1'
_cell_length_a   17.58867019
_cell_length_b   17.58713606
_cell_length_c   23.45479440
_cell_angle_alpha   90.00720558
_cell_angle_beta   90.01994707
_cell_angle_gamma   90.02870084
_symmetry_Int_Tables_number   1
_chemical_formula_structural   In86Cu29Se144
_chemical_formula_sum   'In86 Cu29 Se144'
_cell_volume   7255.37183836
_cell_formula_units_Z   1
loop_
 _symmetry_equiv_pos_site_id
 _symmetry_equiv_pos_as_xyz
  1  'x, y, z'
loop_
 _atom_site_type_symbol
 _atom_site_label
 _atom_site_symmetry_multiplicity
 _atom_site_fract_x
 _atom_site_fract_y
 _atom_site_fract_z
 _atom_site_occupancy
  In  In0  1  0.00881582  0.16098399  0.13352779  1
  In  In1  1  0.00264476  0.16015868  0.61932720  1
  In  In2  1  -0.01053085  0.49847553  0.12586833  1
  In  In3  1  0.01723113  0.49839695  0.62519036  1
  In  In4  1  0.00180867  0.83915389  0.12369309  1
  In  In5  1  0.00172211  0.83287264  0.62482961  1
  In  In6  1  0.34181319  0.15787745  0.13400500  1
  In  In7  1  0.32983473  0.16176426  0.62473908  1
  In  In8  1  0.34091992  0.48382673  0.12915995  1
  In  In9  1  0.32254452  0.48470283  0.62000488  1
  In  In10  1  0.34561619  0.83564385  0.12628775  1
  In  In11  1  0.34060882  0.84843533  0.62055018  1
  In  In12  1  0.64847855  0.16600443  0.12259559  1
  In  In13  1  0.67114444  0.17615642  0.62540796  1
  In  In14  1  0.66486934  0.48713789  0.11015673  1
  In  In15  1  0.65664112  0.50701645  0.63293438  1
  In  In16  1  0.67328446  0.83537938  0.12038962  1
  In  In17  1  0.64962969  0.83443777  0.62632091  1
  In  In18  1  0.16613682  0.00118343  0.38032142  1
  In  In19  1  0.17068309  0.01073600  0.85536173  1
  In  In20  1  0.16719785  0.32346214  0.38288752  1
  In  In21  1  0.18027462  0.32366455  0.86646947  1
  In  In22  1  0.17104298  0.66415464  0.38766888  1
  In  In23  1  0.16441999  0.68082807  0.86734140  1
  In  In24  1  0.49721372  0.00797659  0.37910027  1
  In  In25  1  0.49702958  0.00686575  0.88255403  1
  In  In26  1  0.48489367  0.34243039  0.38052252  1
  In  In27  1  0.50111460  0.33289303  0.86972909  1
  In  In28  1  0.49622726  0.66636477  0.38268532  1
  In  In29  1  0.51215665  0.65353283  0.88159129  1
  In  In30  1  0.83643971  0.00564061  0.36452980  1
  In  In31  1  0.83323253  -0.01478325  0.87687833  1
  In  In32  1  0.83645347  0.31936927  0.36971271  1
  In  In33  1  0.82799281  0.35363292  0.88082540  1
  In  In34  1  0.83448629  0.66475270  0.37000952  1
  In  In35  1  0.83431023  0.67242878  0.87200787  1
  In  In36  1  0.01251686  0.17330868  0.37528588  1
  In  In37  1  0.01293528  0.16155520  0.86804730  1
  In  In38  1  0.01553353  0.49094685  0.38209042  1
  In  In39  1  -0.01339977  0.50697630  0.87714604  1
  In  In40  1  0.00018915  0.84861345  0.37910580  1
  In  In41  1  -0.00693406  0.82987765  0.86299606  1
  In  In42  1  0.33427410  0.16783072  0.37894757  1
  In  In43  1  0.34293009  0.17445340  0.85914454  1
  In  In44  1  0.34295690  0.48440124  0.38081166  1
  In  In45  1  0.35255205  0.49550355  0.87457341  1
  In  In46  1  0.32101421  0.84381474  0.38573918  1
  In  In47  1  0.33263338  0.84840391  0.87523932  1
  In  In48  1  0.66325520  0.15038804  0.37522292  1
  In  In49  1  0.64843809  0.16620987  0.87633471  1
  In  In50  1  0.65175300  0.48929555  0.37216956  1
  In  In51  1  0.66085145  0.50201525  0.86935511  1
  In  In52  1  0.64647466  0.84358313  0.38380937  1
  In  In53  1  0.67885208  0.82283766  0.88217279  1
  In  In54  1  0.16676799  -0.00025992  0.13840194  1
  In  In55  1  0.16725572  0.00906522  0.61967481  1
  In  In56  1  0.17843563  0.32261577  0.13745973  1
  In  In57  1  0.16783798  0.34125095  0.61686032  1
  In  In58  1  0.16064746  0.66811931  0.12491816  1
  In  In59  1  0.16195065  0.65942859  0.62230258  1
  In  In60  1  0.49967066  0.00047504  0.12885668  1
  In  In61  1  0.49358270  -0.01201162  0.61264357  1
  In  In62  1  0.50014627  0.32636504  0.12117165  1
  In  In63  1  0.49597475  0.32951679  0.62520588  1
  In  In64  1  0.50944784  0.67019972  0.11772593  1
  In  In65  1  0.50140261  0.67129921  0.62635593  1
  In  In66  1  0.84073847  -0.01043004  0.12886286  1
  In  In67  1  0.84108324  0.01013225  0.62520250  1
  In  In68  1  0.82955334  0.34561289  0.12257770  1
  In  In69  1  0.82476374  0.32473143  0.63013424  1
  In  In70  1  0.82917232  0.65373786  0.10994130  1
  In  In71  1  0.83251707  0.66662052  0.63572864  1
  In  In72  1  0.82742872  0.49955369  0.49305856  1
  In  In73  1  0.83242009  0.83768576  0.50510281  1
  In  In74  1  0.66638964  0.67017060  0.25044167  1
  In  In75  1  0.33414217  0.66809422  0.75064789  1
  In  In76  1  -0.00405695  0.33531405  0.74996501  1
  In  In77  1  0.16509581  0.50384430  -0.00093797  1
  In  In78  1  0.16354870  0.83764263  -0.00132420  1
  In  In79  1  0.33430155  0.66798734  0.24733364  1
  In  In80  1  0.82661787  0.17103334  -0.00135931  1
  In  In81  1  0.66425256  -0.00054487  0.75151381  1
  In  In82  1  0.83348993  0.16584427  0.49961002  1
  In  In83  1  0.66606723  0.32584675  0.24175286  1
  In  In84  1  0.17253978  0.16444682  -0.00732390  1
  In  In85  1  -0.00037060  0.66955564  0.24338182  1
  Cu  Cu86  1  0.00068508  0.66571908  0.50483253  1
  Cu  Cu87  1  0.82927086  0.84030529  0.24802727  1
  Cu  Cu88  1  0.34162231  0.66670385  0.00286195  1
  Cu  Cu89  1  0.16667772  0.49919273  0.74560043  1
  Cu  Cu90  1  0.65418926  0.33512383  0.50214652  1
  Cu  Cu91  1  0.33366175  0.32881529  0.50171760  1
  Cu  Cu92  1  0.49525535  0.16364114  0.74688207  1
  Cu  Cu93  1  0.82837958  0.50568176  0.75454427  1
  Cu  Cu94  1  0.17001006  0.16632186  0.26019803  1
  Cu  Cu95  1  0.83722956  0.49604785  0.24342921  1
  Cu  Cu96  1  0.00042406  -0.00596970  -0.00202059  1
  Cu  Cu97  1  0.34343340  0.00427067  0.00193720  1
  Cu  Cu98  1  0.34469857  0.32901034  -0.00269109  1
  Cu  Cu99  1  0.16479256  0.84182294  0.74291582  1
  Cu  Cu100  1  0.66775567  0.66440588  -0.00678363  1
  Cu  Cu101  1  0.33116850  0.00500252  0.50020619  1
  Cu  Cu102  1  0.83131991  0.16934759  0.75059306  1
  Cu  Cu103  1  0.49332985  0.84678200  0.25511207  1
  Cu  Cu104  1  0.65512260  0.66425780  0.50424676  1
  Cu  Cu105  1  0.17239866  0.48750621  0.25883208  1
  Cu  Cu106  1  0.66180240  -0.00307022  0.00231208  1
  Cu  Cu107  1  0.00016879  0.33806912  0.00494990  1
  Cu  Cu108  1  0.33592354  0.66599443  0.50770323  1
  Cu  Cu109  1  0.49675909  0.49123167  0.75019905  1
  Cu  Cu110  1  0.16443669  0.84054998  0.25960843  1
  Cu  Cu111  1  0.84036949  0.15832857  0.24960376  1
  Cu  Cu112  1  0.83733511  0.83506701  0.75156074  1
  Cu  Cu113  1  0.49631807  0.16807134  0.25349050  1
  Cu  Cu114  1  0.50123438  0.83174252  0.75039232  1
  Se  Se115  1  0.08384810  0.07328214  0.05619025  1
  Se  Se116  1  0.08833939  0.09174833  0.54762197  1
  Se  Se117  1  0.08967210  0.40680246  0.06491793  1
  Se  Se118  1  0.08075617  0.41901287  0.54838454  1
  Se  Se119  1  0.07318380  0.74142467  0.05299167  1
  Se  Se120  1  0.08376522  0.75003687  0.55596499  1
  Se  Se121  1  0.42234633  0.08835786  0.05743849  1
  Se  Se122  1  0.41769172  0.08628672  0.55265460  1
  Se  Se123  1  0.42125899  0.41616394  0.05228677  1
  Se  Se124  1  0.41764578  0.41450207  0.55361363  1
  Se  Se125  1  0.42103288  0.75466942  0.05438624  1
  Se  Se126  1  0.41849094  0.75280403  0.55793756  1
  Se  Se127  1  0.74638699  0.07565866  0.06189625  1
  Se  Se128  1  0.74063845  0.07492712  0.55727985  1
  Se  Se129  1  0.76243392  0.42148321  0.04501214  1
  Se  Se130  1  0.74102553  0.41287137  0.55965811  1
  Se  Se131  1  0.74792789  0.74728691  0.05070202  1
  Se  Se132  1  0.74318907  0.74064272  0.56023474  1
  Se  Se133  1  0.26073069  0.25110763  0.05700298  1
  Se  Se134  1  0.24933839  0.24802695  0.55548445  1
  Se  Se135  1  0.25963487  0.58884573  0.06289866  1
  Se  Se136  1  0.24898677  0.58030371  0.55533054  1
  Se  Se137  1  0.25487581  0.92761302  0.05950562  1
  Se  Se138  1  0.24869706  0.91888879  0.55222147  1
  Se  Se139  1  0.59868638  0.26545597  0.05303511  1
  Se  Se140  1  0.58000029  0.24569871  0.55595661  1
  Se  Se141  1  0.58563765  0.58272631  0.04986466  1
  Se  Se142  1  0.57532937  0.57896852  0.55739344  1
  Se  Se143  1  0.57927540  0.91529532  0.05850768  1
  Se  Se144  1  0.58990983  0.91573282  0.54859236  1
  Se  Se145  1  0.92660047  0.24899158  0.06152616  1
  Se  Se146  1  0.91925258  0.26162643  0.55840055  1
  Se  Se147  1  0.92965350  0.58376690  0.05054443  1
  Se  Se148  1  0.91485665  0.58543390  0.55997862  1
  Se  Se149  1  0.91686344  0.91325499  0.05173149  1
  Se  Se150  1  0.92803715  0.93093881  0.55438637  1
  Se  Se151  1  0.08342827  0.24539624  0.45383102  1
  Se  Se152  1  0.07763159  0.26131887  0.94066789  1
  Se  Se153  1  0.08350278  0.58119208  0.45222330  1
  Se  Se154  1  0.08070626  0.59645899  0.93852225  1
  Se  Se155  1  0.09568478  0.90560687  0.44789943  1
  Se  Se156  1  0.08426839  0.92721973  0.93139563  1
  Se  Se157  1  0.41996453  0.24708273  0.44942509  1
  Se  Se158  1  0.41877306  0.24455817  0.93816366  1
  Se  Se159  1  0.41196932  0.58238084  0.44776029  1
  Se  Se160  1  0.41960326  0.57965360  0.94951225  1
  Se  Se161  1  0.41621196  0.92032486  0.44794810  1
  Se  Se162  1  0.42009223  0.91400836  0.94942444  1
  Se  Se163  1  0.73765915  0.25823704  0.44164373  1
  Se  Se164  1  0.73745663  0.25916012  0.93934049  1
  Se  Se165  1  0.73357585  0.59308474  0.43646497  1
  Se  Se166  1  0.74938730  0.58432579  0.93595833  1
  Se  Se167  1  0.75031553  0.92563329  0.43885722  1
  Se  Se168  1  0.74993732  0.91624791  0.95126569  1
  Se  Se169  1  0.24764059  0.08838270  0.44731424  1
  Se  Se170  1  0.26228845  0.07456678  0.93498047  1
  Se  Se171  1  0.25015426  0.41383623  0.44815576  1
  Se  Se172  1  0.25665994  0.40850449  0.94203499  1
  Se  Se173  1  0.25193018  0.74937805  0.45386282  1
  Se  Se174  1  0.25945677  0.74400848  0.94303300  1
  Se  Se175  1  0.58250012  0.08414008  0.45050800  1
  Se  Se176  1  0.58069750  0.08541110  0.95331617  1
  Se  Se177  1  0.57409571  0.42181236  0.44959997  1
  Se  Se178  1  0.56595842  0.43151395  0.93555332  1
  Se  Se179  1  0.57568617  0.75170703  0.45140972  1
  Se  Se180  1  0.58101386  0.75203992  0.94675832  1
  Se  Se181  1  0.92250307  0.07809014  0.43894328  1
  Se  Se182  1  0.92406424  0.08194003  0.94091956  1
  Se  Se183  1  0.91833397  0.40394365  0.44165064  1
  Se  Se184  1  0.91883137  0.42183064  0.95203899  1
  Se  Se185  1  0.91947735  0.74156464  0.44262437  1
  Se  Se186  1  0.91322147  0.76213214  0.93819010  1
  Se  Se187  1  0.25425827  0.25317018  0.30901178  1
  Se  Se188  1  0.23380107  0.22728274  0.79670213  1
  Se  Se189  1  0.24752977  0.57953399  0.31193857  1
  Se  Se190  1  0.24635019  0.57443639  0.81197549  1
  Se  Se191  1  0.25229578  0.92246706  0.30773894  1
  Se  Se192  1  0.25471026  0.91636777  0.79713665  1
  Se  Se193  1  0.57926936  0.24823064  0.31244978  1
  Se  Se194  1  0.58042969  0.24632428  0.79931231  1
  Se  Se195  1  0.57144767  0.58047310  0.30544773  1
  Se  Se196  1  0.57732421  0.58373627  0.79775224  1
  Se  Se197  1  0.58160644  0.92576422  0.30700037  1
  Se  Se198  1  0.58082383  0.90907345  0.81517456  1
  Se  Se199  1  0.92191664  0.24399868  0.30167901  1
  Se  Se200  1  0.90708706  0.24887825  0.81605471  1
  Se  Se201  1  0.91722868  0.57226546  0.30694843  1
  Se  Se202  1  0.91801360  0.58845665  0.80148568  1
  Se  Se203  1  0.91954384  0.91541051  0.30131993  1
  Se  Se204  1  0.91838429  0.92629409  0.79843392  1
  Se  Se205  1  0.08346825  0.07990766  0.30720224  1
  Se  Se206  1  0.07900456  0.08504157  0.79065997  1
  Se  Se207  1  0.08491243  0.40678574  0.30926451  1
  Se  Se208  1  0.08803347  0.42389058  0.81284943  1
  Se  Se209  1  0.08777824  0.74936531  0.31274524  1
  Se  Se210  1  0.08368044  0.75442579  0.79454101  1
  Se  Se211  1  0.41342156  0.08453100  0.30694623  1
  Se  Se212  1  0.42092666  0.07338153  0.80202818  1
  Se  Se213  1  0.42115574  0.42115064  0.30132698  1
  Se  Se214  1  0.40957974  0.40688871  0.79822505  1
  Se  Se215  1  0.41719358  0.75911222  0.31255369  1
  Se  Se216  1  0.42294573  0.75350274  0.81447538  1
  Se  Se217  1  0.74617284  0.08338797  0.29845243  1
  Se  Se218  1  0.75445445  0.08897643  0.81410910  1
  Se  Se219  1  0.75553648  0.42026305  0.30620376  1
  Se  Se220  1  0.74684685  0.41635545  0.80203325  1
  Se  Se221  1  0.75174191  0.76398436  0.31261040  1
  Se  Se222  1  0.74920311  0.75256057  0.80080505  1
  Se  Se223  1  0.25119798  0.08440640  0.20209839  1
  Se  Se224  1  0.26342874  0.06592270  0.69264315  1
  Se  Se225  1  0.25883816  0.41116062  0.20280176  1
  Se  Se226  1  0.24679361  0.41057993  0.69703419  1
  Se  Se227  1  0.23825339  0.76243820  0.19222322  1
  Se  Se228  1  0.24801787  0.75672591  0.68703391  1
  Se  Se229  1  0.58044712  0.08554138  0.19934755  1
  Se  Se230  1  0.57796014  0.08463372  0.68661524  1
  Se  Se231  1  0.57940045  0.42497340  0.19027130  1
  Se  Se232  1  0.58155950  0.41046494  0.69547286  1
  Se  Se233  1  0.57307812  0.76350693  0.19571211  1
  Se  Se234  1  0.58428795  0.74635577  0.70040890  1
  Se  Se235  1  0.92340440  0.07455903  0.19606394  1
  Se  Se236  1  0.91716253  0.09233081  0.69628079  1
  Se  Se237  1  0.92118867  0.40779429  0.19689001  1
  Se  Se238  1  0.90696966  0.42829733  0.68903313  1
  Se  Se239  1  0.90110823  0.75319913  0.18646284  1
  Se  Se240  1  0.92028708  0.75232161  0.69643999  1
  Se  Se241  1  0.08674257  0.24682894  0.20210763  1
  Se  Se242  1  0.08417477  0.25168404  0.68708393  1
  Se  Se243  1  0.09518225  0.56880419  0.19544395  1
  Se  Se244  1  0.08216699  0.58651230  0.69951620  1
  Se  Se245  1  0.07824133  0.91377250  0.19976409  1
  Se  Se246  1  0.08202515  0.92360963  0.68864127  1
  Se  Se247  1  0.41915951  0.25355925  0.19633472  1
  Se  Se248  1  0.41216124  0.24786563  0.69414198  1
  Se  Se249  1  0.42704450  0.58243177  0.18836840  1
  Se  Se250  1  0.41582573  0.57302552  0.68943668  1
  Se  Se251  1  0.40866532  0.92519953  0.19935904  1
  Se  Se252  1  0.42423449  0.91823909  0.69599683  1
  Se  Se253  1  0.76148848  0.23651820  0.18523721  1
  Se  Se254  1  0.74306420  0.25270079  0.70419970  1
  Se  Se255  1  0.75111680  0.57489424  0.18878498  1
  Se  Se256  1  0.74362345  0.58691638  0.70014983  1
  Se  Se257  1  0.74278945  0.92015991  0.19529396  1
  Se  Se258  1  0.75635578  0.91257110  0.68831022  1
