# generated using pymatgen
data_In86Cu29Se144
_symmetry_space_group_name_H-M   'P 1'
_cell_length_a   17.57889559
_cell_length_b   17.57717101
_cell_length_c   23.43875854
_cell_angle_alpha   90.01261828
_cell_angle_beta   90.00468891
_cell_angle_gamma   90.01752828
_symmetry_Int_Tables_number   1
_chemical_formula_structural   In86Cu29Se144
_chemical_formula_sum   'In86 Cu29 Se144'
_cell_volume   7242.27709839
_cell_formula_units_Z   1
loop_
 _symmetry_equiv_pos_site_id
 _symmetry_equiv_pos_as_xyz
  1  'x, y, z'
loop_
 _atom_site_type_symbol
 _atom_site_label
 _atom_site_symmetry_multiplicity
 _atom_site_fract_x
 _atom_site_fract_y
 _atom_site_fract_z
 _atom_site_occupancy
  In  In0  1  0.00495824  0.17459007  0.12557948  1
  In  In1  1  0.00909481  0.15553393  0.61861859  1
  In  In2  1  0.00252712  0.49902756  0.12606444  1
  In  In3  1  0.00290112  0.48952613  0.62167559  1
  In  In4  1  -0.00108802  0.81661006  0.12658048  1
  In  In5  1  0.00274462  0.83936514  0.61282375  1
  In  In6  1  0.33875403  0.18446955  0.12681966  1
  In  In7  1  0.33860705  0.17420053  0.60725705  1
  In  In8  1  0.32474100  0.49388661  0.11931340  1
  In  In9  1  0.34485689  0.50434335  0.61421406  1
  In  In10  1  0.32754084  0.84110308  0.12445566  1
  In  In11  1  0.31997777  0.83077575  0.62741487  1
  In  In12  1  0.67582332  0.16706386  0.13238817  1
  In  In13  1  0.65434134  0.17630224  0.64087488  1
  In  In14  1  0.67054777  0.49464841  0.12202951  1
  In  In15  1  0.65500706  0.50895453  0.63212946  1
  In  In16  1  0.67252332  0.83097299  0.13246925  1
  In  In17  1  0.67258008  0.82430820  0.63826621  1
  In  In18  1  0.15849829  -0.00365511  0.38570590  1
  In  In19  1  0.15523671  0.00943743  0.88037930  1
  In  In20  1  0.16637593  0.33888674  0.37058019  1
  In  In21  1  0.16802671  0.33314919  0.88411736  1
  In  In22  1  0.15767677  0.66204334  0.37939191  1
  In  In23  1  0.17622089  0.65771274  0.88020287  1
  In  In24  1  0.51528340  0.01112678  0.37615765  1
  In  In25  1  0.50808655  -0.00217403  0.86596821  1
  In  In26  1  0.50304756  0.33308968  0.37805037  1
  In  In27  1  0.53080825  0.33670186  0.87721138  1
  In  In28  1  0.49806109  0.65219978  0.37753854  1
  In  In29  1  0.49114171  0.66310781  0.86654145  1
  In  In30  1  0.82251526  0.00489251  0.37524263  1
  In  In31  1  0.83570145  0.00544880  0.87620349  1
  In  In32  1  0.82759254  0.31782211  0.34846150  1
  In  In33  1  0.80387335  0.35092161  0.90337026  1
  In  In34  1  0.83947698  0.67060581  0.37137938  1
  In  In35  1  0.82028488  0.66662006  0.87305121  1
  In  In36  1  -0.00885319  0.17976093  0.36663104  1
  In  In37  1  -0.00785412  0.17172250  0.88351998  1
  In  In38  1  0.00193264  0.49813455  0.36527434  1
  In  In39  1  0.00326438  0.49167181  0.88547722  1
  In  In40  1  0.00799755  0.81957066  0.38433119  1
  In  In41  1  0.00109300  0.84649485  0.87500206  1
  In  In42  1  0.31932659  0.19485609  0.39353335  1
  In  In43  1  0.32842215  0.16231874  0.87699755  1
  In  In44  1  0.34342835  0.48036230  0.38782150  1
  In  In45  1  0.33280514  0.50520478  0.88087902  1
  In  In46  1  0.32457541  0.82426680  0.37949418  1
  In  In47  1  0.33540916  0.82057772  0.87008138  1
  In  In48  1  0.66844597  0.16392943  0.37161803  1
  In  In49  1  0.67493853  0.17941085  0.86319115  1
  In  In50  1  0.66289694  0.49270365  0.36992483  1
  In  In51  1  0.66053762  0.50157506  0.88104690  1
  In  In52  1  0.67654160  0.84144034  0.37437496  1
  In  In53  1  0.66262474  0.82380043  0.85320840  1
  In  In54  1  0.15960827  -0.00194662  0.11966543  1
  In  In55  1  0.16550668  0.00264454  0.60845292  1
  In  In56  1  0.17086908  0.33522391  0.12626281  1
  In  In57  1  0.18382093  0.34281045  0.59978514  1
  In  In58  1  0.15841805  0.65586587  0.11979124  1
  In  In59  1  0.17299760  0.67150629  0.62313891  1
  In  In60  1  0.51244448  0.01514650  0.12543945  1
  In  In61  1  0.50603998  0.01240094  0.62736482  1
  In  In62  1  0.49430105  0.33916485  0.13062370  1
  In  In63  1  0.50201030  0.33864723  0.61746681  1
  In  In64  1  0.51600684  0.66362098  0.12678768  1
  In  In65  1  0.50686837  0.65921441  0.63310646  1
  In  In66  1  0.81732225  -0.00209582  0.12645773  1
  In  In67  1  0.82500379  -0.01342995  0.62140479  1
  In  In68  1  0.82923558  0.33679468  0.12582799  1
  In  In69  1  0.82343940  0.32471276  0.62430615  1
  In  In70  1  0.84242602  0.65351897  0.13176235  1
  In  In71  1  0.81536816  0.67219688  0.63110395  1
  In  In72  1  0.33344526  0.66136796  0.25833225  1
  In  In73  1  -0.00392398  0.32492431  0.74823332  1
  In  In74  1  0.84009236  0.50240997  0.49136019  1
  In  In75  1  -0.00847172  0.00128422  0.74512855  1
  In  In76  1  0.49572639  0.83074107  -0.01340213  1
  In  In77  1  0.49530474  0.17323585  0.00073459  1
  In  In78  1  0.33634840  -0.00296374  0.74635445  1
  In  In79  1  0.49949882  0.83239136  0.50908087  1
  In  In80  1  0.34294987  0.00525308  0.25465129  1
  In  In81  1  -0.00574915  0.00164065  0.25590842  1
  In  In82  1  0.83385885  0.83330376  -0.00432060  1
  In  In83  1  0.34035406  0.33416035  0.74152555  1
  In  In84  1  -0.00814142  0.67025519  0.74694764  1
  In  In85  1  0.83984737  0.16579853  0.49272142  1
  Cu  Cu86  1  0.50354467  0.49907553  0.25175612  1
  Cu  Cu87  1  0.33589233  0.66976400  -0.00217237  1
  Cu  Cu88  1  0.16815229  0.16881025  0.74035739  1
  Cu  Cu89  1  0.51269278  0.83702819  0.25207153  1
  Cu  Cu90  1  0.00741665  0.66466220  0.00208307  1
  Cu  Cu91  1  0.83092629  0.82857296  0.25129837  1
  Cu  Cu92  1  0.66965241  0.65741874  0.00027913  1
  Cu  Cu93  1  0.67137904  0.00684155  0.50036426  1
  Cu  Cu94  1  0.17695064  0.17219529  0.24985912  1
  Cu  Cu95  1  0.00177633  0.33167579  0.00933733  1
  Cu  Cu96  1  0.33267362  0.33897889  0.00236423  1
  Cu  Cu97  1  0.16764403  0.83055448  0.74887098  1
  Cu  Cu98  1  0.31819154  0.00142176  -0.00136013  1
  Cu  Cu99  1  0.66463503  0.34021758  0.49995997  1
  Cu  Cu100  1  0.17390991  0.50362262  0.75411545  1
  Cu  Cu101  1  0.66352522  -0.00240853  -0.00031971  1
  Cu  Cu102  1  0.50649116  0.17267890  0.25388397  1
  Cu  Cu103  1  0.83075478  0.50251764  0.24415893  1
  Cu  Cu104  1  0.16240989  0.82424446  0.25542163  1
  Cu  Cu105  1  0.66156533  0.66826667  0.50739090  1
  Cu  Cu106  1  0.82601485  0.17204524  0.75491759  1
  Cu  Cu107  1  0.00442063  0.33538954  0.48936069  1
  Cu  Cu108  1  0.16717087  0.49582042  0.24697708  1
  Cu  Cu109  1  0.82316526  0.49520974  0.75886902  1
  Cu  Cu110  1  0.32469595  0.66019767  0.49805377  1
  Cu  Cu111  1  -0.00612247  0.66586049  0.49796410  1
  Cu  Cu112  1  0.50126869  0.49684590  0.75144142  1
  Cu  Cu113  1  0.33961575  -0.00539487  0.50287482  1
  Cu  Cu114  1  -0.00049012  0.00378703  0.00191895  1
  Se  Se115  1  0.08308531  0.08835718  0.05450970  1
  Se  Se116  1  0.08718559  0.08881004  0.54187189  1
  Se  Se117  1  0.08813778  0.41814378  0.05722511  1
  Se  Se118  1  0.08197414  0.42213751  0.54455007  1
  Se  Se119  1  0.08799909  0.75300910  0.05273631  1
  Se  Se120  1  0.08172101  0.74334062  0.55388226  1
  Se  Se121  1  0.40489037  0.07542928  0.05900528  1
  Se  Se122  1  0.42485803  0.08037877  0.55032837  1
  Se  Se123  1  0.41967601  0.41879304  0.05482379  1
  Se  Se124  1  0.39410347  0.39199139  0.55433610  1
  Se  Se125  1  0.41529373  0.74767746  0.06132265  1
  Se  Se126  1  0.40642657  0.73773083  0.56134516  1
  Se  Se127  1  0.74332593  0.08122175  0.05446018  1
  Se  Se128  1  0.74745000  0.09167529  0.56162046  1
  Se  Se129  1  0.76154753  0.42515861  0.05223297  1
  Se  Se130  1  0.74747942  0.42079145  0.55831581  1
  Se  Se131  1  0.74838894  0.74259908  0.05891316  1
  Se  Se132  1  0.74572074  0.75477640  0.55582848  1
  Se  Se133  1  0.25170812  0.25138653  0.05381484  1
  Se  Se134  1  0.23176942  0.22742047  0.54416515  1
  Se  Se135  1  0.25225717  0.58641515  0.05192075  1
  Se  Se136  1  0.24309810  0.57811919  0.55449296  1
  Se  Se137  1  0.24258000  0.91255463  0.05260955  1
  Se  Se138  1  0.25196951  0.91035176  0.55008371  1
  Se  Se139  1  0.58605219  0.25361914  0.06444153  1
  Se  Se140  1  0.59207253  0.25090611  0.55680622  1
  Se  Se141  1  0.58279652  0.57844393  0.05308414  1
  Se  Se142  1  0.57718354  0.58067657  0.55425956  1
  Se  Se143  1  0.58464193  0.91367283  0.05746394  1
  Se  Se144  1  0.59513496  0.92301926  0.56134727  1
  Se  Se145  1  0.91400997  0.24913312  0.05834913  1
  Se  Se146  1  0.92709736  0.26073247  0.55645000  1
  Se  Se147  1  0.92151236  0.58371076  0.05491125  1
  Se  Se148  1  0.91631467  0.59084900  0.56507205  1
  Se  Se149  1  0.92128693  0.91992137  0.06217885  1
  Se  Se150  1  0.93145305  0.94079991  0.55529256  1
  Se  Se151  1  0.08231298  0.24849539  0.43592487  1
  Se  Se152  1  0.08173934  0.25039708  0.94899229  1
  Se  Se153  1  0.07108164  0.57737266  0.44445108  1
  Se  Se154  1  0.08864960  0.57976418  0.94756365  1
  Se  Se155  1  0.08648938  0.90551589  0.45113121  1
  Se  Se156  1  0.08185236  0.91845721  0.94935682  1
  Se  Se157  1  0.43205305  0.24604075  0.45079266  1
  Se  Se158  1  0.41029846  0.26381177  0.93595618  1
  Se  Se159  1  0.41632489  0.57991078  0.45073330  1
  Se  Se160  1  0.42197954  0.58714173  0.94644019  1
  Se  Se161  1  0.41805129  0.91781769  0.43714324  1
  Se  Se162  1  0.40349506  0.93026429  0.93589325  1
  Se  Se163  1  0.74989081  0.26430690  0.43977695  1
  Se  Se164  1  0.74511348  0.23310689  0.95023349  1
  Se  Se165  1  0.74037566  0.59193944  0.44126576  1
  Se  Se166  1  0.75684036  0.57913260  0.94696508  1
  Se  Se167  1  0.75262724  0.91948759  0.44988132  1
  Se  Se168  1  0.73659502  0.91514983  0.93563060  1
  Se  Se169  1  0.26231908  0.07230041  0.43986498  1
  Se  Se170  1  0.24045911  0.09205819  0.94772769  1
  Se  Se171  1  0.24217124  0.41327541  0.44819153  1
  Se  Se172  1  0.24827669  0.42221729  0.94828815  1
  Se  Se173  1  0.24169387  0.74585208  0.44801110  1
  Se  Se174  1  0.25157801  0.75310188  0.94549047  1
  Se  Se175  1  0.58940886  0.09278118  0.44989835  1
  Se  Se176  1  0.58257327  0.07902302  0.94199665  1
  Se  Se177  1  0.58210449  0.42414329  0.44705962  1
  Se  Se178  1  0.58757067  0.41830132  0.95547409  1
  Se  Se179  1  0.58524009  0.74721856  0.44160170  1
  Se  Se180  1  0.59521376  0.74103498  0.93719406  1
  Se  Se181  1  0.93084532  0.07485704  0.43583152  1
  Se  Se182  1  0.91200686  0.08355032  0.95003472  1
  Se  Se183  1  0.91291530  0.40170093  0.42912009  1
  Se  Se184  1  0.91859095  0.41445077  0.95471532  1
  Se  Se185  1  0.90770786  0.75062902  0.44973730  1
  Se  Se186  1  0.92707078  0.74110783  0.93810124  1
  Se  Se187  1  0.25748413  0.25622992  0.30452495  1
  Se  Se188  1  0.24338000  0.24835531  0.80434984  1
  Se  Se189  1  0.24545651  0.56872368  0.31533115  1
  Se  Se190  1  0.25811639  0.58592066  0.80485457  1
  Se  Se191  1  0.24464562  0.91125829  0.30734410  1
  Se  Se192  1  0.23819923  0.91855049  0.81082472  1
  Se  Se193  1  0.58965353  0.25637901  0.30731226  1
  Se  Se194  1  0.57072142  0.24102874  0.80133120  1
  Se  Se195  1  0.58452059  0.58564252  0.30374310  1
  Se  Se196  1  0.58403039  0.58072677  0.80570421  1
  Se  Se197  1  0.58978806  0.92329471  0.30708581  1
  Se  Se198  1  0.57077940  0.90661957  0.79587027  1
  Se  Se199  1  0.92286900  0.24660443  0.28469213  1
  Se  Se200  1  0.90308353  0.25366733  0.81635751  1
  Se  Se201  1  0.91393087  0.58246822  0.30203919  1
  Se  Se202  1  0.91549682  0.57076115  0.81160149  1
  Se  Se203  1  0.91157026  0.90465644  0.31499336  1
  Se  Se204  1  0.90366396  0.90705713  0.80362782  1
  Se  Se205  1  0.09633372  0.08928225  0.30792741  1
  Se  Se206  1  0.08253290  0.09715335  0.80290905  1
  Se  Se207  1  0.08025404  0.41140744  0.29689482  1
  Se  Se208  1  0.09033705  0.41854858  0.80663769  1
  Se  Se209  1  0.07794746  0.74094052  0.30576761  1
  Se  Se210  1  0.08654604  0.75335859  0.81059006  1
  Se  Se211  1  0.42150876  0.09987743  0.31660769  1
  Se  Se212  1  0.42049284  0.09400372  0.80553915  1
  Se  Se213  1  0.42087569  0.41685395  0.30677805  1
  Se  Se214  1  0.42195847  0.41716988  0.81308293  1
  Se  Se215  1  0.42723052  0.76004722  0.31025758  1
  Se  Se216  1  0.42596248  0.75985617  0.79895526  1
  Se  Se217  1  0.76455129  0.09772005  0.30403649  1
  Se  Se218  1  0.75006045  0.07811839  0.80451575  1
  Se  Se219  1  0.74647732  0.41931112  0.29678662  1
  Se  Se220  1  0.74329734  0.41214366  0.81365719  1
  Se  Se221  1  0.74601900  0.74723306  0.30610507  1
  Se  Se222  1  0.76011505  0.74690764  0.79479433  1
  Se  Se223  1  0.24855172  0.08501518  0.18933752  1
  Se  Se224  1  0.24814769  0.08696271  0.68321447  1
  Se  Se225  1  0.25633485  0.41497972  0.19728378  1
  Se  Se226  1  0.24305263  0.42191744  0.68693173  1
  Se  Se227  1  0.24685223  0.75077633  0.19346782  1
  Se  Se228  1  0.25098143  0.74332431  0.70100918  1
  Se  Se229  1  0.58826819  0.08560329  0.20206397  1
  Se  Se230  1  0.59002250  0.07491562  0.70378563  1
  Se  Se231  1  0.58574283  0.41810806  0.19522692  1
  Se  Se232  1  0.58000661  0.41230429  0.69489618  1
  Se  Se233  1  0.58866539  0.74745913  0.19953066  1
  Se  Se234  1  0.58192285  0.74518814  0.70069707  1
  Se  Se235  1  0.91165598  0.08406290  0.18753613  1
  Se  Se236  1  0.90448320  0.09817852  0.68842501  1
  Se  Se237  1  0.91739978  0.41862655  0.19427045  1
  Se  Se238  1  0.90391584  0.42312264  0.69276704  1
  Se  Se239  1  0.91689796  0.74547659  0.20016062  1
  Se  Se240  1  0.91163545  0.76575035  0.68634588  1
  Se  Se241  1  0.09008836  0.25095989  0.19614230  1
  Se  Se242  1  0.09270439  0.25386024  0.68089630  1
  Se  Se243  1  0.08384047  0.58383656  0.19770834  1
  Se  Se244  1  0.08600379  0.57511158  0.69333937  1
  Se  Se245  1  0.08560884  0.90883743  0.19549880  1
  Se  Se246  1  0.09315272  0.91563209  0.68951206  1
  Se  Se247  1  0.41812300  0.25352941  0.20283188  1
  Se  Se248  1  0.42521086  0.23746689  0.68651414  1
  Se  Se249  1  0.42076270  0.57845683  0.19114329  1
  Se  Se250  1  0.41495968  0.57561510  0.69568049  1
  Se  Se251  1  0.43075025  0.91332801  0.19026249  1
  Se  Se252  1  0.42375716  0.90808665  0.68509363  1
  Se  Se253  1  0.75176926  0.25500289  0.19876756  1
  Se  Se254  1  0.74520039  0.26056722  0.70339409  1
  Se  Se255  1  0.74224073  0.58540786  0.19463045  1
  Se  Se256  1  0.74713896  0.58072939  0.70098100  1
  Se  Se257  1  0.74818838  0.91724433  0.20301053  1
  Se  Se258  1  0.74239192  0.92675496  0.69865417  1
