# generated using pymatgen
data_V3Zn3O8
_symmetry_space_group_name_H-M   'P 1'
_cell_length_a   17.08708212
_cell_length_b   17.08811012
_cell_length_c   17.08850960
_cell_angle_alpha   90.00555700
_cell_angle_beta   89.99463837
_cell_angle_gamma   89.99066128
_symmetry_Int_Tables_number   1
_chemical_formula_structural   V3Zn3O8
_chemical_formula_sum   'V96 Zn96 O256'
_cell_volume   4989.60444181
_cell_formula_units_Z   32
loop_
 _symmetry_equiv_pos_site_id
 _symmetry_equiv_pos_as_xyz
  1  'x, y, z'
loop_
 _atom_site_type_symbol
 _atom_site_label
 _atom_site_symmetry_multiplicity
 _atom_site_fract_x
 _atom_site_fract_y
 _atom_site_fract_z
 _atom_site_occupancy
  V  V0  1  0.75114463  0.75066892  0.49996556  1
  V  V1  1  0.37732749  0.87551587  -0.00121953  1
  V  V2  1  0.37531114  0.62470227  0.74952406  1
  V  V3  1  0.25153859  0.75095089  0.00112195  1
  V  V4  1  0.24871757  0.62411692  0.37568677  1
  V  V5  1  0.24951488  0.49941600  0.75061360  1
  V  V6  1  0.24991823  0.00007781  0.24867681  1
  V  V7  1  0.74919134  0.49847591  0.24871849  1
  V  V8  1  0.74971452  0.74781378  -0.00290768  1
  V  V9  1  0.12558268  0.62460630  0.00023529  1
  V  V10  1  0.12461911  0.62497942  0.50029305  1
  V  V11  1  0.24841860  0.49862829  0.25089494  1
  V  V12  1  0.37485652  0.37595675  0.00002870  1
  V  V13  1  0.75098724  0.62527725  0.37471306  1
  V  V14  1  0.74983793  0.87563815  0.62579780  1
  V  V15  1  0.49975984  0.62481833  0.62359694  1
  V  V16  1  0.49962580  0.87533408  0.37423959  1
  V  V17  1  0.62427953  0.25032257  0.87540309  1
  V  V18  1  0.00027049  0.62590449  0.62556376  1
  V  V19  1  0.37437181  0.75003190  0.62293120  1
  V  V20  1  0.49895460  0.49933279  0.49949012  1
  V  V21  1  0.87284317  0.24996398  0.62562528  1
  V  V22  1  0.62486625  -0.00048029  0.62545650  1
  V  V23  1  0.00105378  0.00175214  0.00097686  1
  V  V24  1  0.37341733  0.49888893  0.37590355  1
  V  V25  1  0.12585646  -0.00023069  0.62486836  1
  V  V26  1  0.37493100  0.12501230  0.74932070  1
  V  V27  1  -0.00085662  0.37389400  0.37675613  1
  V  V28  1  0.37486982  0.00023084  0.37450275  1
  V  V29  1  -0.00085360  0.24889116  0.25102281  1
  V  V30  1  0.87293161  0.37523715  0.00101575  1
  V  V31  1  0.62552890  0.37679122  0.74929502  1
  V  V32  1  0.74938564  0.25122095  0.00147606  1
  V  V33  1  0.50105774  0.12417293  0.62443655  1
  V  V34  1  -0.00053199  0.12482869  0.12611370  1
  V  V35  1  0.24885933  0.37390234  0.12489221  1
  V  V36  1  0.87438692  0.12536252  0.75090897  1
  V  V37  1  0.87628235  0.87595094  0.50012749  1
  V  V38  1  0.37558877  0.24987438  0.62461730  1
  V  V39  1  0.87673755  0.75014232  0.62579400  1
  V  V40  1  0.12407808  0.49882410  0.12501286  1
  V  V41  1  0.12388209  0.75083105  0.37355876  1
  V  V42  1  0.50110091  -0.00128336  -0.00072909  1
  V  V43  1  0.50086361  0.50218936  0.00091554  1
  V  V44  1  0.24993962  0.87601573  0.12441984  1
  V  V45  1  0.00157785  0.75041024  0.25028337  1
  V  V46  1  0.49975986  0.25039863  0.74982894  1
  V  V47  1  0.62428512  0.12437451  -0.00018294  1
  V  V48  1  0.62513054  0.75100831  0.37453149  1
  V  V49  1  0.87527061  0.62468348  0.25057365  1
  V  V50  1  0.75038519  0.87445582  0.12513678  1
  V  V51  1  0.62420558  0.25007041  0.37344283  1
  V  V52  1  0.87620367  0.74978705  0.12490800  1
  V  V53  1  0.37503895  0.25023715  0.12525779  1
  V  V54  1  0.25053826  0.62543050  0.87557830  1
  V  V55  1  0.74890911  0.24953370  0.49938177  1
  V  V56  1  0.49959221  0.37383707  0.37363737  1
  V  V57  1  0.00098022  0.62497515  0.12501757  1
  V  V58  1  0.62540815  0.62517035  0.00015562  1
  V  V59  1  -0.00133198  0.49912543  -0.00041316  1
  V  V60  1  0.12637023  0.75090892  0.87533143  1
  V  V61  1  0.12471545  0.12511394  0.50081704  1
  V  V62  1  0.37365474  0.37410073  0.50076412  1
  V  V63  1  0.25120983  0.87433046  0.62407546  1
  V  V64  1  0.49906461  0.25110649  0.24902377  1
  V  V65  1  0.87518396  0.00081352  0.87465592  1
  V  V66  1  0.75001783  0.12437080  0.87495619  1
  V  V67  1  0.37453476  0.12561024  0.24835223  1
  V  V68  1  0.12497960  0.37471927  0.75018286  1
  V  V69  1  0.62514536  0.62493874  0.49916167  1
  V  V70  1  0.24956480  0.24974580  -0.00084883  1
  V  V71  1  0.87572535  0.87484711  -0.00016219  1
  V  V72  1  0.24910888  0.24950629  0.50069961  1
  V  V73  1  0.37561912  0.50079419  0.87536456  1
  V  V74  1  0.50264216  0.75246221  0.74997631  1
  V  V75  1  0.74894085  0.37486331  0.62438957  1
  V  V76  1  0.37579210  0.62614560  0.24887536  1
  V  V77  1  0.62567729  0.49940642  0.62459747  1
  V  V78  1  0.00109520  0.74987435  0.74948647  1
  V  V79  1  0.12527033  0.00091144  0.12534176  1
  V  V80  1  0.75053869  0.00011840  0.25124854  1
  V  V81  1  0.25132878  0.00088591  0.74957256  1
  V  V82  1  -0.00139488  0.25030194  0.75031376  1
  V  V83  1  0.50019581  0.37594200  0.87491116  1
  V  V84  1  0.24981419  0.12573374  0.87548389  1
  V  V85  1  -0.00037688  0.49963875  0.50106090  1
  V  V86  1  -0.00137098  0.37500982  0.87568072  1
  V  V87  1  0.12699817  0.87573897  0.75054204  1
  V  V88  1  0.62594883  0.87418588  0.25028320  1
  V  V89  1  0.62528262  -0.00011963  0.12386280  1
  V  V90  1  0.87466222  0.12443169  0.25099982  1
  V  V91  1  0.24990087  0.74984125  0.49981767  1
  V  V92  1  -0.00097265  -0.00063176  0.49972635  1
  V  V93  1  0.12338342  0.37327878  0.25026550  1
  V  V94  1  0.74908215  0.12530269  0.37478575  1
  V  V95  1  0.00177502  0.87624784  0.87535320  1
  Zn  Zn96  1  0.62542762  0.75086289  0.87306527  1
  Zn  Zn97  1  0.75188077  0.62227594  0.87008632  1
  Zn  Zn98  1  0.75392615  0.50312065  0.74893841  1
  Zn  Zn99  1  0.50408664  0.87530361  0.87396031  1
  Zn  Zn100  1  0.24964289  0.37665372  0.62617491  1
  Zn  Zn101  1  0.62280617  0.49958397  0.12638260  1
  Zn  Zn102  1  0.87271618  0.24985723  0.12648965  1
  Zn  Zn103  1  0.87410653  0.49953669  0.37554801  1
  Zn  Zn104  1  0.62291553  0.12434580  0.49824385  1
  Zn  Zn105  1  0.24960340  0.12416312  0.37452748  1
  Zn  Zn106  1  0.62781757  0.87389520  0.75238749  1
  Zn  Zn107  1  0.74728866  0.37435210  0.12606473  1
  Zn  Zn108  1  0.12389566  0.12740362  -0.00012764  1
  Zn  Zn109  1  0.49916752  0.00150628  0.49972234  1
  Zn  Zn110  1  0.37471097  0.87524924  0.49855990  1
  Zn  Zn111  1  0.50050015  0.74764539  0.24866872  1
  Zn  Zn112  1  0.87416007  -0.00102871  0.37619824  1
  Zn  Zn113  1  -0.00013648  0.87535144  0.37275723  1
  Zn  Zn114  1  0.87402499  0.37463018  0.50117392  1
  Zn  Zn115  1  0.12435769  0.87560561  0.25057322  1
  Zn  Zn116  1  0.87481134  0.62399741  0.75281324  1
  Zn  Zn117  1  0.37819153  -0.00085073  0.87331480  1
  Zn  Zn118  1  0.49945261  0.62667568  0.12546176  1
  Zn  Zn119  1  0.12483266  0.24771352  0.37577928  1
  Zn  Zn120  1  0.62480135  0.37563460  0.24695096  1
  Zn  Zn121  1  0.12318095  0.24908321  0.87631989  1
  Zn  Zn122  1  -0.00207286  0.12598337  0.62625805  1
  Zn  Zn123  1  0.87273754  0.50302080  0.87180945  1
  Zn  Zn124  1  0.12656558  0.50097126  0.62636422  1
  Zn  Zn125  1  0.37670574  0.75010489  0.12643385  1
  Zn  Zn126  1  0.49990728  0.12594556  0.12366406  1
  Zn  Zn127  1  0.75002461  -0.00232608  0.75107811  1
  Zn  Zn128  1  0.18634559  0.18625653  0.18774469  1
  Zn  Zn129  1  0.18628109  0.18870157  0.68719752  1
  Zn  Zn130  1  0.18865503  0.68832722  0.18712919  1
  Zn  Zn131  1  0.18704311  0.68697601  0.68715607  1
  Zn  Zn132  1  0.68666018  0.18794978  0.18680879  1
  Zn  Zn133  1  0.68738365  0.18661974  0.68833702  1
  Zn  Zn134  1  0.68767640  0.68625946  0.18602482  1
  Zn  Zn135  1  0.68923094  0.68626530  0.68571630  1
  Zn  Zn136  1  0.31196354  0.31142274  0.31400374  1
  Zn  Zn137  1  0.31244902  0.31228442  0.81325123  1
  Zn  Zn138  1  0.31008778  0.81269437  0.31169811  1
  Zn  Zn139  1  0.31493354  0.81221959  0.81260661  1
  Zn  Zn140  1  0.81358063  0.31201483  0.31363856  1
  Zn  Zn141  1  0.81104096  0.31415252  0.81309659  1
  Zn  Zn142  1  0.81492680  0.81312449  0.31392390  1
  Zn  Zn143  1  0.81438013  0.81251288  0.81129901  1
  Zn  Zn144  1  0.18513575  0.43613005  0.43820463  1
  Zn  Zn145  1  0.18657328  0.43708775  0.93608572  1
  Zn  Zn146  1  0.18714569  0.93559172  0.43582201  1
  Zn  Zn147  1  0.18896778  0.94055776  0.93863145  1
  Zn  Zn148  1  0.68658303  0.43600868  0.43572129  1
  Zn  Zn149  1  0.68909552  0.44073612  0.93534467  1
  Zn  Zn150  1  0.68726523  0.93903919  0.43958153  1
  Zn  Zn151  1  0.68645254  0.93507255  0.93521353  1
  Zn  Zn152  1  0.31377290  0.06210428  0.06186577  1
  Zn  Zn153  1  0.31359594  0.06228690  0.56168460  1
  Zn  Zn154  1  0.31193554  0.56147556  0.06388541  1
  Zn  Zn155  1  0.31151309  0.56190499  0.56408179  1
  Zn  Zn156  1  0.81278451  0.06343572  0.06310227  1
  Zn  Zn157  1  0.81054729  0.06425867  0.56314705  1
  Zn  Zn158  1  0.81274020  0.56204649  0.06336664  1
  Zn  Zn159  1  0.81406071  0.56278319  0.56421431  1
  Zn  Zn160  1  0.43783768  0.43932127  0.18632262  1
  Zn  Zn161  1  0.43742291  0.43709675  0.68677018  1
  Zn  Zn162  1  0.43840182  0.93778681  0.18600774  1
  Zn  Zn163  1  0.43707720  0.93752945  0.68609925  1
  Zn  Zn164  1  0.93528036  0.43736926  0.18737503  1
  Zn  Zn165  1  0.93608948  0.43765660  0.68694505  1
  Zn  Zn166  1  0.93796852  0.93780259  0.18860062  1
  Zn  Zn167  1  0.93757513  0.93786115  0.68728735  1
  Zn  Zn168  1  0.06303715  0.06187628  0.31375889  1
  Zn  Zn169  1  0.06257255  0.06372758  0.81226973  1
  Zn  Zn170  1  0.06203045  0.56210892  0.31343885  1
  Zn  Zn171  1  0.06073192  0.56137296  0.81349635  1
  Zn  Zn172  1  0.56227153  0.06421736  0.30925882  1
  Zn  Zn173  1  0.56238455  0.06089878  0.81228423  1
  Zn  Zn174  1  0.56285932  0.56134529  0.31405466  1
  Zn  Zn175  1  0.56523093  0.56435677  0.81373388  1
  Zn  Zn176  1  0.43844540  0.18583477  0.43702372  1
  Zn  Zn177  1  0.43727961  0.18721052  0.93786223  1
  Zn  Zn178  1  0.43694928  0.68782646  0.43554425  1
  Zn  Zn179  1  0.43871870  0.68906279  0.93671480  1
  Zn  Zn180  1  0.93489817  0.18693972  0.43794242  1
  Zn  Zn181  1  0.93641165  0.18897759  0.93782514  1
  Zn  Zn182  1  0.93744510  0.68771891  0.43695045  1
  Zn  Zn183  1  0.93770814  0.68690567  0.93576440  1
  Zn  Zn184  1  0.06117461  0.30941949  0.06260823  1
  Zn  Zn185  1  0.06153439  0.31242661  0.56645924  1
  Zn  Zn186  1  0.06423064  0.81357332  0.06327871  1
  Zn  Zn187  1  0.06338043  0.81283899  0.56176116  1
  Zn  Zn188  1  0.56377336  0.31526471  0.06447937  1
  Zn  Zn189  1  0.56333854  0.31166918  0.56078511  1
  Zn  Zn190  1  0.56099094  0.80923956  0.06598185  1
  Zn  Zn191  1  0.56258808  0.81438548  0.56147945  1
  O  O192  1  0.11773321  0.11822614  0.12352695  1
  O  O193  1  0.12407064  0.11874968  0.61555303  1
  O  O194  1  0.12108238  0.61859176  0.11956020  1
  O  O195  1  0.11855005  0.62450367  0.61771267  1
  O  O196  1  0.62417774  0.11770599  0.11730039  1
  O  O197  1  0.61915308  0.11634659  0.62514191  1
  O  O198  1  0.62349815  0.62347253  0.11232259  1
  O  O199  1  0.61865381  0.61957834  0.61679556  1
  O  O200  1  0.37899871  0.38013352  0.38151565  1
  O  O201  1  0.38030374  0.38088118  0.88009434  1
  O  O202  1  0.38291717  0.88323385  0.37250033  1
  O  O203  1  0.37601437  0.87646088  0.88761550  1
  O  O204  1  0.88892184  0.37659842  0.37814299  1
  O  O205  1  0.88067062  0.37495083  0.88678842  1
  O  O206  1  0.87840140  0.87815377  0.38462429  1
  O  O207  1  0.88244508  0.88034730  0.88078028  1
  O  O208  1  0.26034258  -0.00126705  0.36871068  1
  O  O209  1  0.25247618  0.00970605  0.86832492  1
  O  O210  1  0.25362318  0.50384637  0.37068927  1
  O  O211  1  0.25608981  0.50621440  0.87074682  1
  O  O212  1  0.74954856  0.00645606  0.36869139  1
  O  O213  1  0.75733518  0.00608706  0.87487177  1
  O  O214  1  0.75172166  0.50670594  0.36775455  1
  O  O215  1  0.75332985  0.50334703  0.86872334  1
  O  O216  1  0.24338715  0.49297347  0.13043390  1
  O  O217  1  0.24734652  0.49746774  0.63410006  1
  O  O218  1  0.24508490  0.99610923  0.12937211  1
  O  O219  1  0.24554824  0.99480526  0.62990204  1
  O  O220  1  0.74970018  0.50078691  0.13864746  1
  O  O221  1  0.74203170  0.49283980  0.62262121  1
  O  O222  1  0.74505779  0.99358864  0.13014779  1
  O  O223  1  0.74138684  0.99442194  0.62619012  1
  O  O224  1  0.00360932  0.37076906  0.25774426  1
  O  O225  1  0.00717517  0.37031844  0.75523941  1
  O  O226  1  0.00236351  0.86629757  0.25106326  1
  O  O227  1  0.00786358  0.87095351  0.75563038  1
  O  O228  1  0.49751714  0.36957231  0.25719654  1
  O  O229  1  0.50450162  0.36974848  0.75562765  1
  O  O230  1  0.50620740  0.87464572  0.26002999  1
  O  O231  1  0.49883588  0.86208302  0.74835301  1
  O  O232  1  0.49224313  0.13278458  0.24654157  1
  O  O233  1  0.49427162  0.13142635  0.74547360  1
  O  O234  1  0.48660768  0.62313052  0.25270115  1
  O  O235  1  0.49458893  0.63162090  0.74335203  1
  O  O236  1  0.99491353  0.12911359  0.24720181  1
  O  O237  1  0.99327217  0.13167978  0.74930047  1
  O  O238  1  0.99563965  0.62923396  0.24378220  1
  O  O239  1  1.00324588  0.63356588  0.74299494  1
  O  O240  1  0.37005155  0.25711116  0.00497670  1
  O  O241  1  0.36734876  0.25362889  0.50439742  1
  O  O242  1  0.36934575  0.75871955  0.00065453  1
  O  O243  1  0.36760826  0.75008499  0.50476687  1
  O  O244  1  0.86840971  0.25925451  0.00129463  1
  O  O245  1  0.86745618  0.25084922  0.50734297  1
  O  O246  1  0.86926362  0.75513940  0.00602356  1
  O  O247  1  0.87076751  0.75582304  0.50569443  1
  O  O248  1  0.13184609  0.24177937  0.50288603  1
  O  O249  1  0.13337530  0.24795588  0.99703632  1
  O  O250  1  0.13034413  0.74381747  0.49441514  1
  O  O251  1  0.13094659  0.74447603  0.99456431  1
  O  O252  1  0.63064143  0.24798391  0.49184695  1
  O  O253  1  0.62849208  0.24493216  0.99377644  1
  O  O254  1  0.63105779  0.74457915  0.49467057  1
  O  O255  1  0.63522937  0.74344610  1.00174489  1
  O  O256  1  0.49173908  0.25037507  0.13031361  1
  O  O257  1  0.49521890  0.24492303  0.63071820  1
  O  O258  1  0.49422243  0.74485784  0.13203710  1
  O  O259  1  0.49449216  0.74415004  0.62935484  1
  O  O260  1  0.99831655  0.24266744  0.13329679  1
  O  O261  1  0.99157767  0.24875684  0.63248387  1
  O  O262  1  0.99595564  0.74408074  0.12899303  1
  O  O263  1  0.99688664  0.74625788  0.62977326  1
  O  O264  1  0.00175312  0.25864455  0.37143326  1
  O  O265  1  0.00117064  0.25664227  0.86839067  1
  O  O266  1  0.00671466  0.74945315  0.36838688  1
  O  O267  1  0.00790419  0.75736484  0.87097576  1
  O  O268  1  0.50303658  0.25501361  0.36903272  1
  O  O269  1  0.50420537  0.25596139  0.86970280  1
  O  O270  1  0.50573223  0.75902391  0.37301682  1
  O  O271  1  0.49977921  0.75044650  0.86069730  1
  O  O272  1  0.24183720  0.13236126  0.50006385  1
  O  O273  1  0.25112791  0.13030803  0.99022318  1
  O  O274  1  0.24475332  0.62931724  0.49470619  1
  O  O275  1  0.24494723  0.62959372  0.99506111  1
  O  O276  1  0.74746651  0.13195347  0.49255712  1
  O  O277  1  0.74451338  0.13017738  0.99407218  1
  O  O278  1  0.74488800  0.63068071  0.49509026  1
  O  O279  1  0.74328770  0.63465246  1.00272728  1
  O  O280  1  0.25524961  0.37097855  0.00468103  1
  O  O281  1  0.25387651  0.36618177  0.50197721  1
  O  O282  1  0.25808336  0.87132681  0.00416695  1
  O  O283  1  0.25048139  0.86741632  0.50639903  1
  O  O284  1  0.75862372  0.36989000  -0.00076828  1
  O  O285  1  0.75070937  0.36805770  0.50538233  1
  O  O286  1  0.75583153  0.86702812  0.00573204  1
  O  O287  1  0.75593330  0.86961544  0.50528446  1
  O  O288  1  0.12911442  0.49409084  0.24448345  1
  O  O289  1  0.13044079  0.49078984  0.75121518  1
  O  O290  1  0.13177772  0.99952504  0.24401042  1
  O  O291  1  0.13081357  0.99509855  0.74452149  1
  O  O292  1  0.63655502  0.50071627  0.25033519  1
  O  O293  1  0.62260973  0.49351458  0.74105175  1
  O  O294  1  0.63098443  0.99395513  0.24384323  1
  O  O295  1  0.62629684  0.99770674  0.73746315  1
  O  O296  1  0.37054388  0.00513773  0.25584069  1
  O  O297  1  0.36872137  0.00695422  0.75011580  1
  O  O298  1  0.36734042  0.50595369  0.25642585  1
  O  O299  1  0.37081961  0.50515009  0.75600244  1
  O  O300  1  0.86804940  0.00554582  0.25218737  1
  O  O301  1  0.87525862  0.00645763  0.75728391  1
  O  O302  1  0.86771106  0.50706023  0.25234832  1
  O  O303  1  0.87391906  0.50396576  0.75174786  1
  O  O304  1  0.11410951  0.37314614  0.36929556  1
  O  O305  1  0.11917316  0.37340967  0.86492920  1
  O  O306  1  0.12222682  0.86612742  0.37188536  1
  O  O307  1  0.12197784  0.87108292  0.87036845  1
  O  O308  1  0.61620826  0.36820188  0.37220324  1
  O  O309  1  0.61837124  0.36954330  0.86992613  1
  O  O310  1  0.61806154  0.87139752  0.37038453  1
  O  O311  1  0.62192468  0.86834546  0.87002137  1
  O  O312  1  0.37575775  0.13260731  0.13045580  1
  O  O313  1  0.38014697  0.13013438  0.63060138  1
  O  O314  1  0.37239074  0.62476691  0.13827955  1
  O  O315  1  0.38053539  0.62988287  0.62992966  1
  O  O316  1  0.88185218  0.12506861  0.13304485  1
  O  O317  1  0.87451250  0.13195255  0.63312053  1
  O  O318  1  0.88213899  0.63100136  0.12977366  1
  O  O319  1  0.88403161  0.63421197  0.62351266  1
  O  O320  1  0.25487837  0.25573454  0.11985626  1
  O  O321  1  0.25627502  0.25062412  0.61535160  1
  O  O322  1  0.25154080  0.75685297  0.11778036  1
  O  O323  1  0.25484644  0.75438999  0.61995741  1
  O  O324  1  0.75210811  0.25195286  0.11673532  1
  O  O325  1  0.75268257  0.25511998  0.61946797  1
  O  O326  1  0.75664302  0.75499722  0.11688772  1
  O  O327  1  0.75585550  0.75572882  0.61737464  1
  O  O328  1  0.24820500  0.24751895  0.38869672  1
  O  O329  1  0.25018651  0.24098288  0.88005004  1
  O  O330  1  0.24425130  0.74368221  0.38022966  1
  O  O331  1  0.24535007  0.74446756  0.88033600  1
  O  O332  1  0.74424372  0.24518621  0.37917667  1
  O  O333  1  0.74285794  0.24470118  0.88112706  1
  O  O334  1  0.74497233  0.74539226  0.38083860  1
  O  O335  1  0.75207303  0.75033841  0.88961206  1
  O  O336  1  -0.00016435  0.11902752  0.00632774  1
  O  O337  1  0.00827897  0.11761880  0.50253993  1
  O  O338  1  0.00687495  0.62049225  0.00613229  1
  O  O339  1  0.00533748  0.61777319  0.50386250  1
  O  O340  1  0.50643944  0.11824439  0.00053712  1
  O  O341  1  0.50168625  0.12261109  0.50867935  1
  O  O342  1  0.50836358  0.62092622  -0.00065412  1
  O  O343  1  0.50466070  0.61937596  0.50329882  1
  O  O344  1  0.49309345  0.37971363  0.49422021  1
  O  O345  1  0.49376289  0.38105147  0.99354996  1
  O  O346  1  0.49820059  0.87704042  0.48555030  1
  O  O347  1  0.49159314  0.87885266  1.00061092  1
  O  O348  1  1.00213458  0.38259347  0.49325478  1
  O  O349  1  0.99244002  0.37869770  0.99630951  1
  O  O350  1  0.99565069  0.88477643  0.50097091  1
  O  O351  1  0.99555035  0.88046569  0.99478401  1
  O  O352  1  0.49335684  0.49435574  0.38130673  1
  O  O353  1  0.49422479  0.49530302  0.87997026  1
  O  O354  1  0.49190917  0.99235415  0.37289209  1
  O  O355  1  0.49774530  0.99666865  0.88257977  1
  O  O356  1  1.00017786  0.49182918  0.38370612  1
  O  O357  1  0.99991390  0.49214230  0.88383332  1
  O  O358  1  0.99932008  0.99883586  0.38933615  1
  O  O359  1  0.99589188  0.99502911  0.88060838  1
  O  O360  1  0.00513354  0.00505377  0.12004519  1
  O  O361  1  0.00692388  0.00140968  0.61539777  1
  O  O362  1  0.00566534  0.50528278  0.12018129  1
  O  O363  1  0.00257571  0.50517727  0.61459998  1
  O  O364  1  0.50809180  0.00131281  0.11779247  1
  O  O365  1  0.50756177  0.00501693  0.62368403  1
  O  O366  1  0.50006612  0.50502356  0.11597671  1
  O  O367  1  0.50406148  0.50528743  0.61816405  1
  O  O368  1  0.24400739  0.37904768  0.24545072  1
  O  O369  1  0.24137185  0.37983882  0.75146156  1
  O  O370  1  0.24947802  0.88214335  0.24174713  1
  O  O371  1  0.24612534  0.88016439  0.74498424  1
  O  O372  1  0.75141720  0.38678260  0.25117512  1
  O  O373  1  0.74122786  0.37435976  0.74189849  1
  O  O374  1  0.74592494  0.87941273  0.24470615  1
  O  O375  1  0.74928217  0.87586582  0.74078529  1
  O  O376  1  0.25635023  0.11897317  0.25271592  1
  O  O377  1  0.25506628  0.12147263  0.75575175  1
  O  O378  1  0.25553010  0.61785010  0.25615797  1
  O  O379  1  0.25530397  0.62055174  0.75625389  1
  O  O380  1  0.75482385  0.11945827  0.25502501  1
  O  O381  1  0.75646983  0.12409156  0.75836653  1
  O  O382  1  0.75575897  0.61896726  0.25521790  1
  O  O383  1  0.75437323  0.62394558  0.75068737  1
  O  O384  1  0.37469915  0.11465339  0.36835148  1
  O  O385  1  0.36517981  0.12492136  0.86832568  1
  O  O386  1  0.36806151  0.61802833  0.36909017  1
  O  O387  1  0.36957848  0.61998297  0.86972723  1
  O  O388  1  0.86742345  0.12223292  0.36868667  1
  O  O389  1  0.86944250  0.11994278  0.87087993  1
  O  O390  1  0.86840721  0.62459059  0.36841006  1
  O  O391  1  0.87284039  0.62247849  0.87250895  1
  O  O392  1  0.12923800  0.37972727  0.13047041  1
  O  O393  1  0.12626049  0.37705085  0.63906488  1
  O  O394  1  0.13240702  0.88292519  0.12535525  1
  O  O395  1  0.13180729  0.87976211  0.63124457  1
  O  O396  1  0.62922861  0.38146587  0.12903184  1
  O  O397  1  0.62833800  0.37997135  0.62934841  1
  O  O398  1  0.63152683  0.87947955  0.13046818  1
  O  O399  1  0.63086339  0.88330030  0.62508564  1
  O  O400  1  0.11853461  0.25563970  0.25330735  1
  O  O401  1  0.11918843  0.25895026  0.75106974  1
  O  O402  1  0.11935472  0.74935468  0.25577308  1
  O  O403  1  0.12209262  0.75667749  0.75630738  1
  O  O404  1  0.61724580  0.25153862  0.25600863  1
  O  O405  1  0.61843719  0.25569630  0.75586299  1
  O  O406  1  0.62611169  0.75614018  0.25713048  1
  O  O407  1  0.61249766  0.74892561  0.74746819  1
  O  O408  1  0.37826063  0.24556192  0.24479810  1
  O  O409  1  0.38048023  0.24564418  0.74425438  1
  O  O410  1  0.37335688  0.73647885  0.25190032  1
  O  O411  1  0.38143460  0.74363470  0.74299445  1
  O  O412  1  0.88157289  0.24270794  0.24929286  1
  O  O413  1  0.87901281  0.24517688  0.74586016  1
  O  O414  1  0.88003644  0.74440413  0.24372019  1
  O  O415  1  0.88543815  0.75151497  0.74257315  1
  O  O416  1  0.37902142  0.49466035  0.49518656  1
  O  O417  1  0.37907160  0.49551035  0.99398195  1
  O  O418  1  0.37576977  0.99811395  0.48711784  1
  O  O419  1  0.38166625  0.99058458  0.99933924  1
  O  O420  1  0.88826270  0.49820015  0.49798887  1
  O  O421  1  0.88113870  0.49048581  1.00106467  1
  O  O422  1  0.88464672  0.99597747  0.50230716  1
  O  O423  1  0.88080348  0.99415316  0.99492209  1
  O  O424  1  0.11845159  0.00306455  0.00638638  1
  O  O425  1  0.11975235  0.00637624  0.50503131  1
  O  O426  1  0.12014401  0.50462265  0.00578546  1
  O  O427  1  0.11562861  0.50578198  0.50090568  1
  O  O428  1  0.62116372  0.00436229  0.00486349  1
  O  O429  1  0.62237408  0.00221369  0.51255264  1
  O  O430  1  0.61939447  0.50996055  -0.00030497  1
  O  O431  1  0.61792131  0.50529808  0.50379317  1
  O  O432  1  0.36747577  0.37087240  0.11937639  1
  O  O433  1  0.37391760  0.36778693  0.61846546  1
  O  O434  1  0.36873109  0.87508996  0.11460892  1
  O  O435  1  0.36836897  0.86853553  0.62143885  1
  O  O436  1  0.87342376  0.37269191  0.11249333  1
  O  O437  1  0.86734280  0.36722704  0.62328495  1
  O  O438  1  0.87017988  0.86964925  0.11908413  1
  O  O439  1  0.87024651  0.86975219  0.61916295  1
  O  O440  1  0.12760493  0.12550716  0.38926945  1
  O  O441  1  0.13835829  0.12675566  0.87482485  1
  O  O442  1  0.13047788  0.62975906  0.38033964  1
  O  O443  1  0.13068898  0.63066776  0.88098585  1
  O  O444  1  0.63077309  0.13175866  0.37469500  1
  O  O445  1  0.62985112  0.13072876  0.87974609  1
  O  O446  1  0.63029848  0.63122089  0.38083991  1
  O  O447  1  0.62765123  0.63020882  0.88825005  1
