# generated using pymatgen
data_V3Zn3O8
_symmetry_space_group_name_H-M   'P 1'
_cell_length_a   17.09140030
_cell_length_b   17.09052950
_cell_length_c   17.09192043
_cell_angle_alpha   89.99636349
_cell_angle_beta   90.01261562
_cell_angle_gamma   90.00980050
_symmetry_Int_Tables_number   1
_chemical_formula_structural   V3Zn3O8
_chemical_formula_sum   'V96 Zn96 O256'
_cell_volume   4992.56823016
_cell_formula_units_Z   32
loop_
 _symmetry_equiv_pos_site_id
 _symmetry_equiv_pos_as_xyz
  1  'x, y, z'
loop_
 _atom_site_type_symbol
 _atom_site_label
 _atom_site_symmetry_multiplicity
 _atom_site_fract_x
 _atom_site_fract_y
 _atom_site_fract_z
 _atom_site_occupancy
  V  V0  1  0.50060218  0.87553114  0.37465179  1
  V  V1  1  0.00043055  0.62553760  0.62448370  1
  V  V2  1  0.37380938  0.37506160  0.50034199  1
  V  V3  1  0.50146976  0.49912996  0.00011537  1
  V  V4  1  0.49983429  0.24967247  0.74898406  1
  V  V5  1  0.62464153  0.12577801  -0.00007312  1
  V  V6  1  0.74989997  0.87528596  0.12578222  1
  V  V7  1  0.37449549  0.50088713  0.37410990  1
  V  V8  1  -0.00131772  0.24996769  0.24926590  1
  V  V9  1  0.49980788  0.00071543  0.50016086  1
  V  V10  1  0.87495183  0.37488277  0.50060361  1
  V  V11  1  0.37491115  0.74971299  0.12572297  1
  V  V12  1  0.12478905  0.87414395  0.25008846  1
  V  V13  1  0.49937108  0.37568870  0.37554137  1
  V  V14  1  0.12567554  0.62503416  0.49932090  1
  V  V15  1  0.75027432  0.75048003  0.50001936  1
  V  V16  1  0.12451551  0.12416789  0.49981003  1
  V  V17  1  0.74956302  0.24909910  0.00031596  1
  V  V18  1  0.12576746  0.74927580  0.87498541  1
  V  V19  1  0.62556333  0.75040641  0.37542330  1
  V  V20  1  0.62441583  0.75140038  0.87419366  1
  V  V21  1  0.87537072  0.75091144  0.62433355  1
  V  V22  1  0.49973437  0.12620029  0.62564232  1
  V  V23  1  0.62541769  -0.00057743  0.62597723  1
  V  V24  1  0.62719388  0.62546756  0.00003754  1
  V  V25  1  0.37514268  0.00015999  0.37494719  1
  V  V26  1  0.87409451  -0.00002751  0.87376965  1
  V  V27  1  0.00032187  0.12365960  0.12407502  1
  V  V28  1  0.49907143  -0.00068382  -0.00201404  1
  V  V29  1  0.12489815  0.37456427  0.74968702  1
  V  V30  1  0.12519827  0.00000719  0.62479951  1
  V  V31  1  0.50052865  0.62590476  0.62672573  1
  V  V32  1  0.25083722  0.50033766  0.75133759  1
  V  V33  1  0.62567349  0.87591265  0.24926940  1
  V  V34  1  0.37467198  0.12535174  0.24981160  1
  V  V35  1  0.74954565  0.37612807  0.62594776  1
  V  V36  1  0.24960226  0.74876874  0.49884101  1
  V  V37  1  0.00071808  0.87369974  0.87435998  1
  V  V38  1  0.87570569  0.37625883  -0.00062340  1
  V  V39  1  0.12409131  0.24943552  0.37439870  1
  V  V40  1  0.62439195  0.25030524  0.37530528  1
  V  V41  1  0.12565966  0.24970182  0.87443403  1
  V  V42  1  0.24940571  0.37481739  0.12480574  1
  V  V43  1  0.00180982  0.75009735  0.74980486  1
  V  V44  1  0.49972500  0.50012971  0.50080706  1
  V  V45  1  -0.00093882  0.37496474  0.87522693  1
  V  V46  1  0.37607562  0.37586716  -0.00061040  1
  V  V47  1  0.87475278  0.24927737  0.12470399  1
  V  V48  1  0.49992072  0.12534502  0.12419934  1
  V  V49  1  0.49948368  0.25024583  0.25035710  1
  V  V50  1  0.74947592  0.62642362  0.37586475  1
  V  V51  1  -0.00009926  0.87522042  0.37575261  1
  V  V52  1  0.12525186  0.49934629  0.62446992  1
  V  V53  1  0.24990643  0.25067308  0.50000491  1
  V  V54  1  0.74853408  0.50009540  0.25142062  1
  V  V55  1  0.24917817  0.12484211  0.37459240  1
  V  V56  1  0.50057260  0.37570616  0.87537505  1
  V  V57  1  0.62549192  0.25005500  0.87591911  1
  V  V58  1  0.62517023  0.50031478  0.62580816  1
  V  V59  1  0.00009513  0.12416457  0.62407953  1
  V  V60  1  0.87531665  0.87371864  0.00087796  1
  V  V61  1  0.62563818  0.37576168  0.75006422  1
  V  V62  1  0.12449980  -0.00003515  0.12413932  1
  V  V63  1  0.25035207  0.62417580  0.87506159  1
  V  V64  1  0.87467645  0.24950535  0.62531829  1
  V  V65  1  0.24956912  0.87431097  0.12479280  1
  V  V66  1  0.24982210  0.24989897  -0.00112141  1
  V  V67  1  0.25046027  -0.00055250  0.74894980  1
  V  V68  1  0.37443358  0.25021520  0.12491689  1
  V  V69  1  0.37493030  0.87471788  0.49994172  1
  V  V70  1  0.00038341  0.50005373  0.49960294  1
  V  V71  1  0.62536652  0.50039196  0.12591223  1
  V  V72  1  -0.00016161  0.74948845  0.24978386  1
  V  V73  1  0.24968336  0.74851685  -0.00057915  1
  V  V74  1  0.87441343  0.12406385  0.75049335  1
  V  V75  1  0.62444419  0.12536401  0.50012630  1
  V  V76  1  0.37537784  0.87530242  -0.00068757  1
  V  V77  1  0.25037086  0.49945841  0.24899627  1
  V  V78  1  0.49885806  0.75030507  0.24997448  1
  V  V79  1  0.25018793  -0.00049312  0.24946552  1
  V  V80  1  0.87526414  0.62543896  0.25023270  1
  V  V81  1  0.62482411  0.37626925  0.25029610  1
  V  V82  1  0.37459648  0.62514637  0.24986016  1
  V  V83  1  -0.00024525  0.24969093  0.74977569  1
  V  V84  1  0.87399602  0.00081763  0.37430027  1
  V  V85  1  0.74937484  0.87593761  0.62714121  1
  V  V86  1  0.24994266  0.37449135  0.62449206  1
  V  V87  1  0.74948748  0.25038418  0.50018078  1
  V  V88  1  0.37591426  0.74954146  0.62683221  1
  V  V89  1  -0.00054905  0.37455116  0.37446890  1
  V  V90  1  0.00076501  0.62284991  0.12377760  1
  V  V91  1  0.12531814  0.37540702  0.24891525  1
  V  V92  1  0.87424528  0.50015909  0.37561459  1
  V  V93  1  0.25151436  0.12438466  0.87402570  1
  V  V94  1  0.87357883  0.62309175  0.75161913  1
  V  V95  1  0.74981685  0.12480139  0.37418908  1
  Zn  Zn96  1  0.37511626  -0.00206288  0.87211491  1
  Zn  Zn97  1  0.24798967  0.62411425  0.37329601  1
  Zn  Zn98  1  0.75036678  0.74906829  -0.00073604  1
  Zn  Zn99  1  0.62538026  0.62539316  0.50033907  1
  Zn  Zn100  1  0.37579269  0.50173004  0.87455977  1
  Zn  Zn101  1  0.37477660  0.24944967  0.62592181  1
  Zn  Zn102  1  0.12524456  0.74843362  0.37487248  1
  Zn  Zn103  1  0.37575335  0.62396691  0.75286884  1
  Zn  Zn104  1  0.00056443  -0.00080060  0.50063403  1
  Zn  Zn105  1  0.12536457  0.12299914  -0.00102471  1
  Zn  Zn106  1  0.24891314  0.87519225  0.62551513  1
  Zn  Zn107  1  0.74756718  0.00112272  0.75067619  1
  Zn  Zn108  1  0.00244345  -0.00047493  -0.00098041  1
  Zn  Zn109  1  0.12559246  0.87418025  0.74835873  1
  Zn  Zn110  1  0.37593001  0.12611176  0.74771755  1
  Zn  Zn111  1  0.62581376  0.00114107  0.12553768  1
  Zn  Zn112  1  0.74925712  0.12387550  0.87439384  1
  Zn  Zn113  1  0.50034597  0.62570980  0.12525285  1
  Zn  Zn114  1  0.62157865  0.87650816  0.75242082  1
  Zn  Zn115  1  0.87450706  0.74920621  0.12473274  1
  Zn  Zn116  1  0.87172151  0.12547079  0.24893731  1
  Zn  Zn117  1  0.74766608  0.00244913  0.24920670  1
  Zn  Zn118  1  0.49845730  0.87443568  0.87239319  1
  Zn  Zn119  1  0.75158147  0.62383236  0.87546990  1
  Zn  Zn120  1  0.87653348  0.87586594  0.50107084  1
  Zn  Zn121  1  0.49970803  0.75296718  0.75186366  1
  Zn  Zn122  1  0.00172876  0.50072584  -0.00182720  1
  Zn  Zn123  1  0.12468328  0.49908603  0.12287006  1
  Zn  Zn124  1  0.12488450  0.62141811  0.00036675  1
  Zn  Zn125  1  0.75039903  0.37459817  0.12580970  1
  Zn  Zn126  1  0.87442784  0.50098216  0.87543099  1
  Zn  Zn127  1  0.75058719  0.50012574  0.75231556  1
  Zn  Zn128  1  0.18602488  0.18771929  0.18689250  1
  Zn  Zn129  1  0.18729752  0.18680497  0.68707404  1
  Zn  Zn130  1  0.18626239  0.68676743  0.18755148  1
  Zn  Zn131  1  0.18817580  0.68602600  0.68839283  1
  Zn  Zn132  1  0.68750161  0.18784002  0.18682892  1
  Zn  Zn133  1  0.68784994  0.18680241  0.68910890  1
  Zn  Zn134  1  0.68799554  0.68925391  0.18697040  1
  Zn  Zn135  1  0.68718376  0.68917713  0.68870833  1
  Zn  Zn136  1  0.31207974  0.31327551  0.31285240  1
  Zn  Zn137  1  0.31484213  0.31300321  0.81182352  1
  Zn  Zn138  1  0.31262809  0.81234745  0.31311824  1
  Zn  Zn139  1  0.31241404  0.81366225  0.81344546  1
  Zn  Zn140  1  0.81192738  0.31231619  0.31189990  1
  Zn  Zn141  1  0.81107034  0.31138711  0.81365536  1
  Zn  Zn142  1  0.81339451  0.81298377  0.31129405  1
  Zn  Zn143  1  0.81061202  0.80951318  0.81273676  1
  Zn  Zn144  1  0.18769142  0.43772833  0.43577131  1
  Zn  Zn145  1  0.18600622  0.43923333  0.93846639  1
  Zn  Zn146  1  0.18727810  0.93662636  0.43849008  1
  Zn  Zn147  1  0.18634515  0.93646203  0.93746939  1
  Zn  Zn148  1  0.68629777  0.43855111  0.43912235  1
  Zn  Zn149  1  0.69135569  0.43933822  0.93557815  1
  Zn  Zn150  1  0.68871788  0.93715331  0.43918046  1
  Zn  Zn151  1  0.68714315  0.93710801  0.93952761  1
  Zn  Zn152  1  0.31276214  0.06232554  0.06123584  1
  Zn  Zn153  1  0.31319782  0.06399687  0.56341290  1
  Zn  Zn154  1  0.31342076  0.56236228  0.06242021  1
  Zn  Zn155  1  0.31278141  0.56283466  0.56297835  1
  Zn  Zn156  1  0.81237250  0.06132024  0.06113524  1
  Zn  Zn157  1  0.81275757  0.06151985  0.56050255  1
  Zn  Zn158  1  0.81231946  0.56061118  0.06503709  1
  Zn  Zn159  1  0.81176080  0.56354705  0.56351737  1
  Zn  Zn160  1  0.43801238  0.43866379  0.18604780  1
  Zn  Zn161  1  0.43635213  0.43738957  0.68851917  1
  Zn  Zn162  1  0.43796576  0.93744929  0.18567420  1
  Zn  Zn163  1  0.43785823  0.93675664  0.68885751  1
  Zn  Zn164  1  0.93644855  0.43814544  0.18684446  1
  Zn  Zn165  1  0.93825185  0.43799326  0.68755667  1
  Zn  Zn166  1  0.93641189  0.93880514  0.18917828  1
  Zn  Zn167  1  0.93794876  0.93715181  0.68866945  1
  Zn  Zn168  1  0.06123925  0.06175446  0.31038355  1
  Zn  Zn169  1  0.06284993  0.06162519  0.81136230  1
  Zn  Zn170  1  0.06403644  0.56253610  0.31178405  1
  Zn  Zn171  1  0.06227193  0.56156743  0.81417522  1
  Zn  Zn172  1  0.56346372  0.06196968  0.31154978  1
  Zn  Zn173  1  0.56361582  0.06322043  0.81184165  1
  Zn  Zn174  1  0.56159509  0.56463297  0.31289771  1
  Zn  Zn175  1  0.56328022  0.56302383  0.81297968  1
  Zn  Zn176  1  0.43651586  0.18805541  0.43859810  1
  Zn  Zn177  1  0.43708908  0.18806303  0.93604431  1
  Zn  Zn178  1  0.43735263  0.68622066  0.43762481  1
  Zn  Zn179  1  0.43856090  0.68666873  0.93798482  1
  Zn  Zn180  1  0.93689718  0.18605813  0.43781031  1
  Zn  Zn181  1  0.93752948  0.18759151  0.93838752  1
  Zn  Zn182  1  0.93694400  0.68876104  0.43775833  1
  Zn  Zn183  1  0.93896985  0.68885527  0.93752986  1
  Zn  Zn184  1  0.06302079  0.31088094  0.06133172  1
  Zn  Zn185  1  0.06266387  0.31149754  0.56216682  1
  Zn  Zn186  1  0.06212970  0.80990192  0.06203421  1
  Zn  Zn187  1  0.06400133  0.81404077  0.56275836  1
  Zn  Zn188  1  0.56339957  0.31334659  0.06356592  1
  Zn  Zn189  1  0.56203595  0.31320743  0.56356296  1
  Zn  Zn190  1  0.56250373  0.81260051  0.06233187  1
  Zn  Zn191  1  0.56381355  0.81308689  0.56153519  1
  O  O192  1  0.11625618  0.11957983  0.12488369  1
  O  O193  1  0.11934203  0.12034053  0.61930758  1
  O  O194  1  0.11275644  0.62355304  0.12487993  1
  O  O195  1  0.11947235  0.61856742  0.61936114  1
  O  O196  1  0.61698776  0.12500291  0.11834209  1
  O  O197  1  0.62052929  0.11993318  0.61838943  1
  O  O198  1  0.62400269  0.62021515  0.11688518  1
  O  O199  1  0.61574346  0.62085559  0.62368412  1
  O  O200  1  0.38058051  0.38054721  0.37997556  1
  O  O201  1  0.38274162  0.37572369  0.88259323  1
  O  O202  1  0.38094526  0.88112595  0.37958188  1
  O  O203  1  0.37676990  0.87731507  0.88480706  1
  O  O204  1  0.87986003  0.38007583  0.38118141  1
  O  O205  1  0.88099763  0.37206519  0.88434809  1
  O  O206  1  0.88344788  0.88293870  0.37522267  1
  O  O207  1  0.87904774  0.88070978  0.88120052  1
  O  O208  1  0.25548204  0.00498704  0.36926942  1
  O  O209  1  0.24841905  0.00850800  0.86677880  1
  O  O210  1  0.25738251  0.49966106  0.36755254  1
  O  O211  1  0.25039681  0.50601410  0.86874033  1
  O  O212  1  0.75797851  0.00558294  0.37564349  1
  O  O213  1  0.76287031  -0.00030124  0.87410063  1
  O  O214  1  0.75479534  0.50576705  0.37158466  1
  O  O215  1  0.75630521  0.50546446  0.86963006  1
  O  O216  1  0.25024191  0.49168690  0.13167106  1
  O  O217  1  0.24371062  0.49429249  0.62938810  1
  O  O218  1  0.24568672  0.99463252  0.13076826  1
  O  O219  1  0.24434275  1.00169582  0.63360729  1
  O  O220  1  0.74332608  0.49737372  0.13444697  1
  O  O221  1  0.74352541  0.49319035  0.62559080  1
  O  O222  1  0.74900684  0.98820960  0.12664058  1
  O  O223  1  0.74500174  0.99112633  0.62341120  1
  O  O224  1  0.00444269  0.36990194  0.25559302  1
  O  O225  1  0.00516797  0.36844832  0.75382028  1
  O  O226  1  0.00459134  0.87038727  0.25716558  1
  O  O227  1  0.00075768  0.86704428  0.75664980  1
  O  O228  1  0.50438445  0.36966636  0.25618917  1
  O  O229  1  0.50662205  0.37022495  0.75502344  1
  O  O230  1  0.50419167  0.87027841  0.25567581  1
  O  O231  1  0.50327284  0.87145636  0.75415708  1
  O  O232  1  0.49404156  0.13072004  0.24548747  1
  O  O233  1  0.49980217  0.13163657  0.74351670  1
  O  O234  1  0.49305584  0.63279163  0.24893713  1
  O  O235  1  0.49780348  0.62700300  0.73697509  1
  O  O236  1  0.99881630  0.13130044  0.23961068  1
  O  O237  1  0.99470238  0.13104063  0.74389878  1
  O  O238  1  0.99463882  0.62913524  0.24423553  1
  O  O239  1  0.99362515  0.62998560  0.74338839  1
  O  O240  1  0.37003116  0.25552663  0.00577620  1
  O  O241  1  0.36732242  0.25751382  0.49953755  1
  O  O242  1  0.36989241  0.75544210  0.00653969  1
  O  O243  1  0.36856374  0.75373332  0.50712699  1
  O  O244  1  0.86998137  0.25687784  0.00482419  1
  O  O245  1  0.86954260  0.25541268  0.50528833  1
  O  O246  1  0.87278122  0.76323284  0.00017607  1
  O  O247  1  0.86863038  0.75157447  0.50705693  1
  O  O248  1  0.13001173  0.24477332  0.49334718  1
  O  O249  1  0.13272906  0.24826365  0.99211633  1
  O  O250  1  0.13480602  0.74448498  0.50082012  1
  O  O251  1  0.13263140  0.74826485  0.99315489  1
  O  O252  1  0.62975963  0.24578989  0.49433802  1
  O  O253  1  0.62920412  0.24570560  0.99547231  1
  O  O254  1  0.63172121  0.74892396  0.49242861  1
  O  O255  1  0.62481232  0.74069819  0.99388209  1
  O  O256  1  0.49380068  0.24539829  0.13097449  1
  O  O257  1  0.50071440  0.24399710  0.63096271  1
  O  O258  1  0.49270487  0.75046907  0.13259132  1
  O  O259  1  0.49175995  0.74203761  0.62182950  1
  O  O260  1  0.99572435  0.24167059  0.12971759  1
  O  O261  1  0.99432733  0.24489290  0.63000084  1
  O  O262  1  0.99761599  0.74089213  0.13180037  1
  O  O263  1  0.99566794  0.74477920  0.62914449  1
  O  O264  1  0.00441076  0.25504237  0.37015352  1
  O  O265  1  0.00559093  0.25380921  0.86857237  1
  O  O266  1  0.00032797  0.76013862  0.36964805  1
  O  O267  1  0.00615524  0.75470474  0.86914079  1
  O  O268  1  0.50465261  0.25537672  0.37003645  1
  O  O269  1  0.50626283  0.25580725  0.87004826  1
  O  O270  1  0.50441142  0.75651503  0.37063412  1
  O  O271  1  0.51091120  0.75042904  0.87452695  1
  O  O272  1  0.24459503  0.13046027  0.49327027  1
  O  O273  1  0.24914998  0.13085440  0.99081402  1
  O  O274  1  0.24494168  0.63313392  0.49941496  1
  O  O275  1  0.24945382  0.63171593  0.99401267  1
  O  O276  1  0.74366383  0.13172742  0.49502567  1
  O  O277  1  0.74324206  0.13094576  0.99877294  1
  O  O278  1  0.74889745  0.63183960  0.49363076  1
  O  O279  1  0.73863103  0.62595571  1.00116111  1
  O  O280  1  0.25597360  0.36883113  0.00470912  1
  O  O281  1  0.25365020  0.37020612  0.50450081  1
  O  O282  1  0.25528118  0.86923382  0.00601600  1
  O  O283  1  0.25629456  0.86579633  0.50115404  1
  O  O284  1  0.75995297  0.36829731  0.00136709  1
  O  O285  1  0.75545867  0.36974153  0.50516587  1
  O  O286  1  0.75897750  0.87510298  0.00883409  1
  O  O287  1  0.75212558  0.86911553  0.51054419  1
  O  O288  1  0.13194146  0.49195060  0.24882693  1
  O  O289  1  0.12957839  0.49356704  0.74337592  1
  O  O290  1  0.13156449  0.99416451  0.24460314  1
  O  O291  1  0.13458269  1.00011790  0.74334291  1
  O  O292  1  0.62895524  0.49574415  0.24675773  1
  O  O293  1  0.62607173  0.49336862  0.74298990  1
  O  O294  1  0.62603676  0.99167781  0.24667206  1
  O  O295  1  0.62842610  0.99804820  0.74201423  1
  O  O296  1  0.37008986  0.00547580  0.25503079  1
  O  O297  1  0.36334183  0.00362395  0.75083943  1
  O  O298  1  0.37062068  0.50454733  0.25463704  1
  O  O299  1  0.36617341  0.50162467  0.75238438  1
  O  O300  1  0.87205702  0.00242164  0.26315626  1
  O  O301  1  0.87408693  0.00506531  0.75925437  1
  O  O302  1  0.86874679  0.50442959  0.25722712  1
  O  O303  1  0.87564314  0.51205590  0.74838127  1
  O  O304  1  0.11869446  0.36886645  0.36974236  1
  O  O305  1  0.11981449  0.36856148  0.86843408  1
  O  O306  1  0.11548377  0.87511638  0.36893401  1
  O  O307  1  0.11828624  0.86784080  0.87303625  1
  O  O308  1  0.61865477  0.36996660  0.37077858  1
  O  O309  1  0.61999684  0.36971562  0.87021990  1
  O  O310  1  0.61976924  0.87026820  0.37023674  1
  O  O311  1  0.62396743  0.86383079  0.87679212  1
  O  O312  1  0.37919394  0.13112634  0.13079551  1
  O  O313  1  0.38426617  0.12886599  0.62521067  1
  O  O314  1  0.37709960  0.63232903  0.13169592  1
  O  O315  1  0.38373880  0.63342878  0.62436956  1
  O  O316  1  0.88415402  0.12938642  0.12557866  1
  O  O317  1  0.87986981  0.13043630  0.62903496  1
  O  O318  1  0.88256399  0.62627645  0.13206579  1
  O  O319  1  0.88152917  0.63065480  0.63124535  1
  O  O320  1  0.25553591  0.25424983  0.11984604  1
  O  O321  1  0.24930701  0.25661791  0.61764689  1
  O  O322  1  0.25490483  0.75572699  0.12026112  1
  O  O323  1  0.25889173  0.74900502  0.61542917  1
  O  O324  1  0.75640964  0.25198389  0.11867367  1
  O  O325  1  0.75508142  0.25558954  0.61892473  1
  O  O326  1  0.75324999  0.76266636  0.12292168  1
  O  O327  1  0.75453563  0.75765934  0.62002558  1
  O  O328  1  0.24376066  0.24456252  0.37923718  1
  O  O329  1  0.24539395  0.24291129  0.87802800  1
  O  O330  1  0.25012639  0.74853823  0.38791165  1
  O  O331  1  0.24530452  0.74430094  0.87975259  1
  O  O332  1  0.74400907  0.24580576  0.38114628  1
  O  O333  1  0.74270233  0.24801295  0.88243339  1
  O  O334  1  0.74554237  0.74597769  0.37958538  1
  O  O335  1  0.73925554  0.74579069  0.87852121  1
  O  O336  1  0.00216153  0.12400876  0.01261726  1
  O  O337  1  0.00727540  0.12452932  0.50620778  1
  O  O338  1  -0.00127526  0.62466282  0.01192360  1
  O  O339  1  0.00464990  0.61950257  0.50510934  1
  O  O340  1  0.50325322  0.11904171  0.00493838  1
  O  O341  1  0.50562224  0.12019537  0.50384241  1
  O  O342  1  0.51130656  0.61834886  0.00229724  1
  O  O343  1  0.50065367  0.61895866  0.51023346  1
  O  O344  1  0.49437921  0.38018784  0.49471640  1
  O  O345  1  0.49602558  0.37918340  0.99506034  1
  O  O346  1  0.49482323  0.88108543  0.49386549  1
  O  O347  1  0.49425391  0.88537093  1.00122535  1
  O  O348  1  0.99475355  0.37978055  0.49457836  1
  O  O349  1  0.98983952  0.37163886  0.99419160  1
  O  O350  1  0.99901181  0.87678517  0.48800317  1
  O  O351  1  0.99033796  0.87546313  0.99469980  1
  O  O352  1  0.49477921  0.49464378  0.38034659  1
  O  O353  1  0.50019904  0.49299823  0.88202098  1
  O  O354  1  0.49423466  0.99559344  0.38043021  1
  O  O355  1  0.49749599  1.00142984  0.88794691  1
  O  O356  1  0.99401581  0.49410012  0.38010010  1
  O  O357  1  0.99578941  0.49023068  0.87643977  1
  O  O358  1  0.99260586  0.99178801  0.37412257  1
  O  O359  1  0.99037592  0.99397792  0.87519147  1
  O  O360  1  0.00509423  0.00890058  0.12639747  1
  O  O361  1  0.00612713  0.00674986  0.62426625  1
  O  O362  1  0.00048145  0.51156743  0.12576459  1
  O  O363  1  0.00600120  0.50466165  0.61836897  1
  O  O364  1  0.49942763  0.00693552  0.11455240  1
  O  O365  1  0.50514354  0.00545994  0.61816849  1
  O  O366  1  0.50783704  0.50151451  0.11858796  1
  O  O367  1  0.50411005  0.50745339  0.62044797  1
  O  O368  1  0.24533066  0.37870983  0.24437328  1
  O  O369  1  0.24354805  0.37923275  0.74463860  1
  O  O370  1  0.24561614  0.88020531  0.24493603  1
  O  O371  1  0.24832939  0.88734995  0.74832644  1
  O  O372  1  0.74242202  0.38198191  0.25113441  1
  O  O373  1  0.74381002  0.37444877  0.74262526  1
  O  O374  1  0.74472470  0.87591249  0.24150862  1
  O  O375  1  0.74875187  0.87540498  0.73642768  1
  O  O376  1  0.25510646  0.11988757  0.25500959  1
  O  O377  1  0.25009069  0.11778390  0.75767766  1
  O  O378  1  0.25651408  0.61853634  0.25093792  1
  O  O379  1  0.25089636  0.61771465  0.75653434  1
  O  O380  1  0.75099539  0.12352068  0.25827884  1
  O  O381  1  0.75903463  0.12286310  0.75309328  1
  O  O382  1  0.75499152  0.62025393  0.25623832  1
  O  O383  1  0.76385980  0.62507674  0.74756523  1
  O  O384  1  0.36933904  0.11989695  0.36961732  1
  O  O385  1  0.36154025  0.12397509  0.87299728  1
  O  O386  1  0.37353805  0.61808787  0.36846370  1
  O  O387  1  0.36678446  0.62345047  0.87304911  1
  O  O388  1  0.86929406  0.11753448  0.37400247  1
  O  O389  1  0.87621658  0.11517810  0.87057501  1
  O  O390  1  0.86995182  0.61892441  0.37041938  1
  O  O391  1  0.87635568  0.62612834  0.86287468  1
  O  O392  1  0.13154236  0.37299124  0.13214447  1
  O  O393  1  0.12944955  0.37991734  0.62967672  1
  O  O394  1  0.13008291  0.87946533  0.13071824  1
  O  O395  1  0.12842511  0.88392845  0.62735307  1
  O  O396  1  0.62648683  0.38135908  0.13306910  1
  O  O397  1  0.62998718  0.38027020  0.63017181  1
  O  O398  1  0.63425080  0.87558277  0.12977336  1
  O  O399  1  0.63413335  0.88065418  0.62429608  1
  O  O400  1  0.11923423  0.25535460  0.25595455  1
  O  O401  1  0.11926593  0.25540371  0.75418190  1
  O  O402  1  0.11909082  0.75717603  0.25266169  1
  O  O403  1  0.11928455  0.75072678  0.75564218  1
  O  O404  1  0.61853252  0.25565296  0.25609146  1
  O  O405  1  0.61994346  0.25598328  0.75568697  1
  O  O406  1  0.61898282  0.75603875  0.25602781  1
  O  O407  1  0.62310895  0.75053503  0.76172520  1
  O  O408  1  0.37987430  0.24483942  0.24552441  1
  O  O409  1  0.38414491  0.24851939  0.74683502  1
  O  O410  1  0.37917542  0.74577333  0.24556464  1
  O  O411  1  0.37421693  0.74863102  0.73621217  1
  O  O412  1  0.88142494  0.24971462  0.24358750  1
  O  O413  1  0.88051764  0.24490033  0.74437373  1
  O  O414  1  0.88195086  0.74265133  0.24948682  1
  O  O415  1  0.88152137  0.74215580  0.74416831  1
  O  O416  1  0.37980463  0.49437029  0.49454488  1
  O  O417  1  0.38296779  0.49260160  0.99970752  1
  O  O418  1  0.37964218  0.99522415  0.49402892  1
  O  O419  1  0.38315090  0.99454324  0.99948093  1
  O  O420  1  0.88069039  0.49465364  0.49545126  1
  O  O421  1  0.87667426  0.48634807  1.00050030  1
  O  O422  1  0.87839875  0.99863466  0.48701291  1
  O  O423  1  0.87760093  0.99032519  0.99099104  1
  O  O424  1  0.12238816  0.00189280  0.00831429  1
  O  O425  1  0.12515601  0.00736768  0.50616869  1
  O  O426  1  0.11978739  0.50259712  0.00532291  1
  O  O427  1  0.11951356  0.50394003  0.50480759  1
  O  O428  1  0.61516366  0.00631591  0.00181207  1
  O  O429  1  0.61874101  0.00601114  0.50446760  1
  O  O430  1  0.62182337  0.50666018  0.00523474  1
  O  O431  1  0.61723410  0.50147922  0.50721086  1
  O  O432  1  0.36995807  0.36841759  0.12000481  1
  O  O433  1  0.36777056  0.37400661  0.61731603  1
  O  O434  1  0.36813279  0.86961630  0.12046243  1
  O  O435  1  0.37429253  0.86500727  0.61746039  1
  O  O436  1  0.87510259  0.36802346  0.11585247  1
  O  O437  1  0.87080213  0.36912993  0.61963889  1
  O  O438  1  0.86901323  0.87579504  0.11713631  1
  O  O439  1  0.86699468  0.86990185  0.62375691  1
  O  O440  1  0.12985061  0.12969859  0.37850308  1
  O  O441  1  0.13496990  0.13073084  0.87492691  1
  O  O442  1  0.12703768  0.62769924  0.38324122  1
  O  O443  1  0.13154554  0.63175661  0.87643374  1
  O  O444  1  0.62872180  0.13106914  0.38088169  1
  O  O445  1  0.62604065  0.13235341  0.88244445  1
  O  O446  1  0.63152390  0.63237896  0.37636508  1
  O  O447  1  0.62562649  0.63186516  0.88459699  1
