# generated using pymatgen
data_V3Zn3O8
_symmetry_space_group_name_H-M   'P 1'
_cell_length_a   17.09044143
_cell_length_b   17.08960005
_cell_length_c   17.08937592
_cell_angle_alpha   90.00327702
_cell_angle_beta   89.99179676
_cell_angle_gamma   89.98574797
_symmetry_Int_Tables_number   1
_chemical_formula_structural   V3Zn3O8
_chemical_formula_sum   'V96 Zn96 O256'
_cell_volume   4991.27345239
_cell_formula_units_Z   32
loop_
 _symmetry_equiv_pos_site_id
 _symmetry_equiv_pos_as_xyz
  1  'x, y, z'
loop_
 _atom_site_type_symbol
 _atom_site_label
 _atom_site_symmetry_multiplicity
 _atom_site_fract_x
 _atom_site_fract_y
 _atom_site_fract_z
 _atom_site_occupancy
  V  V0  1  0.00086078  0.12234423  0.62431706  1
  V  V1  1  0.75068676  0.37500345  0.12456497  1
  V  V2  1  0.12414097  0.24903662  0.37472483  1
  V  V3  1  0.74978879  0.87408513  0.62467757  1
  V  V4  1  0.49861717  0.74849922  0.24922223  1
  V  V5  1  0.75041879  0.12647983  0.87529410  1
  V  V6  1  0.62436910  0.62538557  0.00169320  1
  V  V7  1  0.87401555  0.74870587  0.62534316  1
  V  V8  1  0.75030412  0.62526492  0.87520246  1
  V  V9  1  0.75009627  0.24934748  0.50011923  1
  V  V10  1  0.37487276  0.62599006  0.25000194  1
  V  V11  1  0.25001869  0.37294316  0.62483698  1
  V  V12  1  0.25111693  0.75152085  0.00003520  1
  V  V13  1  0.62538060  0.75082872  0.87537447  1
  V  V14  1  -0.00189379  0.37414991  0.37561099  1
  V  V15  1  0.87608713  -0.00033893  0.87599802  1
  V  V16  1  0.87595641  0.87609498  -0.00098689  1
  V  V17  1  0.62522900  0.37586903  0.75135788  1
  V  V18  1  0.62376819  0.62444390  0.50028617  1
  V  V19  1  -0.00060405  0.24950074  0.24885001  1
  V  V20  1  -0.00034595  0.62475610  0.12497239  1
  V  V21  1  0.00064253  0.37606740  0.87548267  1
  V  V22  1  0.12480283  0.12333089  0.49876829  1
  V  V23  1  0.50162649  0.87690504  0.87545926  1
  V  V24  1  0.24954584  -0.00045276  0.74759316  1
  V  V25  1  0.62525579  0.87595854  0.74993189  1
  V  V26  1  0.62562104  0.87438654  0.24982581  1
  V  V27  1  0.75033260  0.87531876  0.12560397  1
  V  V28  1  0.37460975  0.50209146  0.87449114  1
  V  V29  1  -0.00010396  0.87386095  0.37571393  1
  V  V30  1  0.50091552  0.25157236  0.25193127  1
  V  V31  1  0.74921058  0.62424517  0.37534952  1
  V  V32  1  0.00048904  0.74965651  0.74930493  1
  V  V33  1  0.87439139  0.62446910  0.25088561  1
  V  V34  1  0.50067726  0.37563227  0.87606814  1
  V  V35  1  0.87522538  0.25090785  0.12415824  1
  V  V36  1  -0.00029150  0.74928500  0.25069172  1
  V  V37  1  0.50143469  0.00100106  -0.00017582  1
  V  V38  1  0.87464684  0.24955135  0.62452586  1
  V  V39  1  0.62430807  0.37501751  0.25065219  1
  V  V40  1  0.12539139  0.12430307  0.00004977  1
  V  V41  1  0.25283168  0.12444220  0.87376102  1
  V  V42  1  0.37431773  0.49942879  0.37611848  1
  V  V43  1  0.37509651  0.37481154  0.50003168  1
  V  V44  1  0.62430683  0.50209853  0.12467157  1
  V  V45  1  0.12593471  0.24979622  0.87431992  1
  V  V46  1  0.37431644  0.37584069  0.00255187  1
  V  V47  1  0.62440919  0.74951364  0.37514961  1
  V  V48  1  0.00041137  0.24907036  0.74991099  1
  V  V49  1  0.62711595  0.12563769  0.49767386  1
  V  V50  1  0.87411402  0.49811460  0.37627274  1
  V  V51  1  0.75045518  0.75042472  0.00019992  1
  V  V52  1  0.62423146  0.49958655  0.62642691  1
  V  V53  1  0.74916823  0.49951728  0.25002067  1
  V  V54  1  0.49894208  0.62592041  0.62565823  1
  V  V55  1  0.12422325  0.49863208  0.62442409  1
  V  V56  1  0.00052681  0.49977914  -0.00156603  1
  V  V57  1  0.62515004  0.25193560  0.87503706  1
  V  V58  1  0.12404471  0.74783235  0.37574209  1
  V  V59  1  0.50089803  0.12513582  0.12490578  1
  V  V60  1  0.75087844  0.00053511  0.74991893  1
  V  V61  1  0.87567286  0.12478034  0.75033965  1
  V  V62  1  0.74947176  0.50090518  0.75084814  1
  V  V63  1  0.12575840  0.62629294  -0.00010522  1
  V  V64  1  0.37367423  0.87548343  0.49960480  1
  V  V65  1  0.12551134  0.37393135  0.74931976  1
  V  V66  1  0.62510861  0.00043581  0.62460599  1
  V  V67  1  0.37571845  0.87619926  0.00035616  1
  V  V68  1  0.37389405  0.00042906  0.37274991  1
  V  V69  1  0.12505383  0.50022489  0.12576069  1
  V  V70  1  0.49988434  0.75166152  0.74924156  1
  V  V71  1  0.75058063  0.25156246  0.00066412  1
  V  V72  1  0.37568057  0.24903749  0.62502922  1
  V  V73  1  0.25123424  0.25070508  0.00044531  1
  V  V74  1  0.00092038  0.12357195  0.12320330  1
  V  V75  1  0.87403303  0.62447375  0.75064177  1
  V  V76  1  0.00071782  -0.00171202  0.49981371  1
  V  V77  1  0.12473286  0.75169368  0.87315480  1
  V  V78  1  0.87398445  -0.00016333  0.37449363  1
  V  V79  1  0.24910226  0.24832682  0.49892330  1
  V  V80  1  0.12699465  0.87653852  0.24737395  1
  V  V81  1  0.75027286  -0.00101136  0.25028606  1
  V  V82  1  0.49872472  0.49929896  0.50063751  1
  V  V83  1  0.87509485  0.75033457  0.12515317  1
  V  V84  1  0.74951554  0.74979807  0.50082658  1
  V  V85  1  0.12353757  0.62266174  0.50110728  1
  V  V86  1  0.37323932  0.75130682  0.62466638  1
  V  V87  1  0.62494090  0.12553205  0.00050041  1
  V  V88  1  0.25104122  0.49916139  0.75008522  1
  V  V89  1  0.24849280  0.50049592  0.25076746  1
  V  V90  1  0.49960679  0.87446446  0.37381409  1
  V  V91  1  0.24844636  0.62498630  0.37617229  1
  V  V92  1  0.12440089  0.37569953  0.25002622  1
  V  V93  1  0.50022167  0.12625863  0.62604440  1
  V  V94  1  0.87386763  0.37339470  0.50027117  1
  V  V95  1  0.37385450  0.12567231  0.24953986  1
  Zn  Zn96  1  0.24875181  0.00125877  0.24548821  1
  Zn  Zn97  1  0.37313794  0.25219438  0.12691440  1
  Zn  Zn98  1  0.87540456  0.37723519  -0.00173150  1
  Zn  Zn99  1  0.87555791  0.49950144  0.87557427  1
  Zn  Zn100  1  0.49928907  0.25075890  0.75135345  1
  Zn  Zn101  1  0.24969562  0.37503965  0.12658801  1
  Zn  Zn102  1  0.25023403  0.87808237  0.12451657  1
  Zn  Zn103  1  0.62612090  -0.00009857  0.12613513  1
  Zn  Zn104  1  0.75025656  0.12622354  0.37150335  1
  Zn  Zn105  1  0.50040662  0.00075247  0.49920382  1
  Zn  Zn106  1  -0.00136394  0.62168946  0.62491323  1
  Zn  Zn107  1  0.24851651  0.12473604  0.37312363  1
  Zn  Zn108  1  0.62726033  0.25174392  0.37531417  1
  Zn  Zn109  1  0.25126503  0.62608106  0.87261183  1
  Zn  Zn110  1  0.37746130  0.00209248  0.87281279  1
  Zn  Zn111  1  0.24688241  0.75054552  0.50168924  1
  Zn  Zn112  1  0.37403433  0.62663561  0.75046162  1
  Zn  Zn113  1  0.12708359  -0.00094638  0.12183720  1
  Zn  Zn114  1  0.87555292  0.87317057  0.50101071  1
  Zn  Zn115  1  0.87293067  0.12516429  0.24883319  1
  Zn  Zn116  1  0.37652900  0.12594153  0.74953835  1
  Zn  Zn117  1  0.00054292  0.87737093  0.87504627  1
  Zn  Zn118  1  0.12543360  0.87453483  0.74584568  1
  Zn  Zn119  1  0.50161096  0.37511017  0.37653138  1
  Zn  Zn120  1  0.49789648  0.62567565  0.12398046  1
  Zn  Zn121  1  0.00231588  -0.00204399  -0.00210439  1
  Zn  Zn122  1  0.49940152  0.50299781  0.00238228  1
  Zn  Zn123  1  0.37584354  0.74910880  0.12509203  1
  Zn  Zn124  1  -0.00268041  0.49873366  0.50316774  1
  Zn  Zn125  1  0.74955398  0.37514583  0.62607846  1
  Zn  Zn126  1  0.24853503  0.87602047  0.62506308  1
  Zn  Zn127  1  0.12547227  -0.00491724  0.62292542  1
  Zn  Zn128  1  0.18771130  0.18954527  0.18603846  1
  Zn  Zn129  1  0.18672700  0.18474208  0.68535047  1
  Zn  Zn130  1  0.18859419  0.68850819  0.18674405  1
  Zn  Zn131  1  0.18889820  0.68371602  0.68708489  1
  Zn  Zn132  1  0.68762312  0.18657241  0.18707246  1
  Zn  Zn133  1  0.68780210  0.18967840  0.68779432  1
  Zn  Zn134  1  0.68705296  0.68761562  0.18747890  1
  Zn  Zn135  1  0.68699051  0.68711211  0.68783163  1
  Zn  Zn136  1  0.31132672  0.31357104  0.31453567  1
  Zn  Zn137  1  0.31451873  0.31210396  0.81200412  1
  Zn  Zn138  1  0.31035361  0.81037427  0.31357856  1
  Zn  Zn139  1  0.31366094  0.81590795  0.81355942  1
  Zn  Zn140  1  0.81142275  0.31050606  0.31260353  1
  Zn  Zn141  1  0.81355264  0.31471940  0.81293880  1
  Zn  Zn142  1  0.81206838  0.81268247  0.31347962  1
  Zn  Zn143  1  0.81326361  0.81284490  0.81277408  1
  Zn  Zn144  1  0.18640319  0.43644955  0.43784382  1
  Zn  Zn145  1  0.18809920  0.43772361  0.93756977  1
  Zn  Zn146  1  0.18833281  0.93739335  0.43433993  1
  Zn  Zn147  1  0.18699158  0.93853589  0.93521625  1
  Zn  Zn148  1  0.68697696  0.43555361  0.43822141  1
  Zn  Zn149  1  0.68806227  0.43973275  0.93853935  1
  Zn  Zn150  1  0.68831579  0.93726609  0.43801171  1
  Zn  Zn151  1  0.68870704  0.93902942  0.93849595  1
  Zn  Zn152  1  0.31241630  0.06063324  0.06397828  1
  Zn  Zn153  1  0.31243597  0.06317709  0.56123488  1
  Zn  Zn154  1  0.31106041  0.56440713  0.06397266  1
  Zn  Zn155  1  0.31066799  0.56233923  0.56304415  1
  Zn  Zn156  1  0.81343963  0.06220038  0.06277842  1
  Zn  Zn157  1  0.81356501  0.06189904  0.56170472  1
  Zn  Zn158  1  0.81312404  0.56176086  0.06168281  1
  Zn  Zn159  1  0.81118885  0.56181131  0.56378136  1
  Zn  Zn160  1  0.43795420  0.44038921  0.18766572  1
  Zn  Zn161  1  0.43808879  0.43590393  0.68828821  1
  Zn  Zn162  1  0.43933150  0.93758218  0.18524239  1
  Zn  Zn163  1  0.43613155  0.94050687  0.68786627  1
  Zn  Zn164  1  0.93741782  0.43696351  0.18664016  1
  Zn  Zn165  1  0.93697930  0.43693346  0.68806472  1
  Zn  Zn166  1  0.93878037  0.93822857  0.18748341  1
  Zn  Zn167  1  0.93729283  0.93527467  0.68738222  1
  Zn  Zn168  1  0.06050749  0.06190185  0.31160829  1
  Zn  Zn169  1  0.06430530  0.06086619  0.81206760  1
  Zn  Zn170  1  0.06041371  0.56076456  0.31443746  1
  Zn  Zn171  1  0.06378658  0.56330638  0.81223710  1
  Zn  Zn172  1  0.56185453  0.06121381  0.31214579  1
  Zn  Zn173  1  0.56426443  0.06370212  0.81266161  1
  Zn  Zn174  1  0.56035099  0.56194291  0.31259936  1
  Zn  Zn175  1  0.56088723  0.56370657  0.81336979  1
  Zn  Zn176  1  0.43874606  0.18789002  0.43738817  1
  Zn  Zn177  1  0.43789429  0.18975240  0.93837939  1
  Zn  Zn178  1  0.43650334  0.68708669  0.43711260  1
  Zn  Zn179  1  0.43932509  0.68785531  0.93753156  1
  Zn  Zn180  1  0.93750852  0.18538613  0.43760966  1
  Zn  Zn181  1  0.93755393  0.18899078  0.93842611  1
  Zn  Zn182  1  0.93772559  0.68542726  0.43955698  1
  Zn  Zn183  1  0.93773784  0.68736002  0.93660804  1
  Zn  Zn184  1  0.06345725  0.31284130  0.06171348  1
  Zn  Zn185  1  0.06105823  0.31097103  0.56137909  1
  Zn  Zn186  1  0.06077254  0.81276401  0.06168098  1
  Zn  Zn187  1  0.06282845  0.81218232  0.56401852  1
  Zn  Zn188  1  0.56142143  0.31374334  0.06406196  1
  Zn  Zn189  1  0.56293934  0.31247442  0.56385196  1
  Zn  Zn190  1  0.56208967  0.81186929  0.06465677  1
  Zn  Zn191  1  0.56085126  0.81352037  0.56145728  1
  O  O192  1  0.11534466  0.12672721  0.11897474  1
  O  O193  1  0.11729934  0.12252487  0.61653331  1
  O  O194  1  0.11868181  0.62098851  0.12015494  1
  O  O195  1  0.12493779  0.61704497  0.61730496  1
  O  O196  1  0.61859510  0.12362286  0.11792198  1
  O  O197  1  0.61926694  0.12107747  0.61759147  1
  O  O198  1  0.62593566  0.61935876  0.11912536  1
  O  O199  1  0.61843754  0.62061147  0.61952828  1
  O  O200  1  0.37637169  0.38184535  0.38265722  1
  O  O201  1  0.37915788  0.38258532  0.88299711  1
  O  O202  1  0.37945996  0.88105541  0.38044622  1
  O  O203  1  0.38309167  0.87692372  0.88543745  1
  O  O204  1  0.87877937  0.37893496  0.38007680  1
  O  O205  1  0.88501720  0.37775326  0.87672857  1
  O  O206  1  0.88075458  0.88345313  0.37581113  1
  O  O207  1  0.87416728  0.88145415  0.88121240  1
  O  O208  1  0.26362642  0.00151449  0.36967186  1
  O  O209  1  0.25062689  0.01053053  0.86719368  1
  O  O210  1  0.25437059  0.50515324  0.37040478  1
  O  O211  1  0.25941439  0.49968421  0.86925684  1
  O  O212  1  0.75963874  -0.00118845  0.36985338  1
  O  O213  1  0.75491736  0.00689583  0.86888105  1
  O  O214  1  0.75441997  0.50518133  0.36970171  1
  O  O215  1  0.75074525  0.50820019  0.86878708  1
  O  O216  1  0.24169803  0.50018635  0.13273687  1
  O  O217  1  0.24548099  0.49180343  0.63019547  1
  O  O218  1  0.24508549  0.99557366  0.12862805  1
  O  O219  1  0.24956354  1.00110467  0.63533462  1
  O  O220  1  0.74516739  0.49526300  0.13133066  1
  O  O221  1  0.74118068  0.49942158  0.63254323  1
  O  O222  1  0.75013951  0.99250049  0.13181470  1
  O  O223  1  0.74544239  0.99474927  0.63082528  1
  O  O224  1  0.00474298  0.36921415  0.25547081  1
  O  O225  1  0.00669586  0.36788075  0.75482302  1
  O  O226  1  0.00723678  0.86830128  0.25526806  1
  O  O227  1  0.00045918  0.86062250  0.75239563  1
  O  O228  1  0.50427297  0.36609677  0.25020608  1
  O  O229  1  0.50743297  0.37386664  0.75767413  1
  O  O230  1  0.50514223  0.86936707  0.25534181  1
  O  O231  1  0.50623742  0.87198826  0.75479779  1
  O  O232  1  0.49348028  0.13201978  0.24608383  1
  O  O233  1  0.50118713  0.12697185  0.73757880  1
  O  O234  1  0.49246280  0.63163095  0.25136044  1
  O  O235  1  0.49799328  0.63349095  0.74351364  1
  O  O236  1  0.99974451  0.13140212  0.23908267  1
  O  O237  1  0.99519408  0.13003775  0.74493892  1
  O  O238  1  0.99402402  0.62956236  0.24524588  1
  O  O239  1  0.99432349  0.63512241  0.74968503  1
  O  O240  1  0.37033719  0.26138444  0.00053858  1
  O  O241  1  0.36968910  0.25465213  0.50456351  1
  O  O242  1  0.36705544  0.75849950  -0.00238718  1
  O  O243  1  0.37528097  0.75889294  0.50764648  1
  O  O244  1  0.86788297  0.25265375  0.00604765  1
  O  O245  1  0.87005371  0.25291078  0.50508490  1
  O  O246  1  0.86964025  0.75446791  0.00579292  1
  O  O247  1  0.86713785  0.74950946  0.50622905  1
  O  O248  1  0.12905498  0.24390988  0.49399138  1
  O  O249  1  0.13166875  0.24486053  0.99308268  1
  O  O250  1  0.12512291  0.74099193  0.49393040  1
  O  O251  1  0.13165901  0.74708704  0.99234688  1
  O  O252  1  0.63063212  0.24095231  0.50042797  1
  O  O253  1  0.63058712  0.24555811  0.99529041  1
  O  O254  1  0.62892576  0.74432714  0.49482716  1
  O  O255  1  0.63148806  0.74650289  0.99469415  1
  O  O256  1  0.49730560  0.24493667  0.13630240  1
  O  O257  1  0.49505040  0.24076346  0.62564994  1
  O  O258  1  0.49781471  0.74759046  0.13437662  1
  O  O259  1  0.49207847  0.74653070  0.62910457  1
  O  O260  1  0.99577963  0.24298634  0.12879277  1
  O  O261  1  0.99461768  0.24278383  0.63056583  1
  O  O262  1  0.99404974  0.74353932  0.13046375  1
  O  O263  1  0.99359704  0.74696165  0.63462172  1
  O  O264  1  0.00409164  0.25428912  0.36913931  1
  O  O265  1  0.00670657  0.25415881  0.86897334  1
  O  O266  1  0.00392744  0.75354012  0.36941568  1
  O  O267  1  0.00853788  0.74968410  0.86678052  1
  O  O268  1  0.50256068  0.25100040  0.36279206  1
  O  O269  1  0.50748413  0.25684474  0.87449925  1
  O  O270  1  0.50546498  0.75485298  0.37016956  1
  O  O271  1  0.50624027  0.75715924  0.86905057  1
  O  O272  1  0.24381426  0.13105661  0.49660558  1
  O  O273  1  0.24663587  0.12981255  0.99151463  1
  O  O274  1  0.24099365  0.62584060  0.49407855  1
  O  O275  1  0.24464073  0.63567204  0.99719222  1
  O  O276  1  0.74059445  0.12983923  0.50084054  1
  O  O277  1  0.74494889  0.13122910  0.99475187  1
  O  O278  1  0.74280592  0.62968158  0.49461498  1
  O  O279  1  0.74522156  0.63191352  0.99529327  1
  O  O280  1  0.25915495  0.36958718  -0.00020328  1
  O  O281  1  0.25486681  0.36836796  0.50589457  1
  O  O282  1  0.25893139  0.86807184  -0.00300022  1
  O  O283  1  0.26356788  0.87317970  0.49897138  1
  O  O284  1  0.75067332  0.36912930  0.00675845  1
  O  O285  1  0.75585228  0.36738749  0.50253666  1
  O  O286  1  0.75531641  0.86913940  0.00557561  1
  O  O287  1  0.75003376  0.86717349  0.50703415  1
  O  O288  1  0.12859521  0.49554534  0.24587603  1
  O  O289  1  0.13122182  0.49325960  0.74531482  1
  O  O290  1  0.12485636  0.98731847  0.25026646  1
  O  O291  1  0.13619596  0.99800725  0.74808457  1
  O  O292  1  0.63067047  0.49580338  0.24547440  1
  O  O293  1  0.62927445  0.49633517  0.74593320  1
  O  O294  1  0.63119797  0.99169725  0.25028488  1
  O  O295  1  0.63192850  0.99537384  0.74467304  1
  O  O296  1  0.37681819  0.00831320  0.25675797  1
  O  O297  1  0.36534263  0.00485521  0.75347235  1
  O  O298  1  0.36841468  0.50503886  0.25675471  1
  O  O299  1  0.37011853  0.49805336  0.75979357  1
  O  O300  1  0.87010606  -0.00068004  0.25970070  1
  O  O301  1  0.86956138  0.00563166  0.75479064  1
  O  O302  1  0.86862995  0.50510045  0.25520997  1
  O  O303  1  0.86810656  0.50679681  0.75124056  1
  O  O304  1  0.11811778  0.36921284  0.36982551  1
  O  O305  1  0.12133673  0.36906655  0.86861079  1
  O  O306  1  0.11961155  0.86823629  0.36730385  1
  O  O307  1  0.12333073  0.86171128  0.87219875  1
  O  O308  1  0.62170769  0.37310664  0.36672013  1
  O  O309  1  0.62015349  0.37141789  0.87159403  1
  O  O310  1  0.61961594  0.86909335  0.37055228  1
  O  O311  1  0.62164479  0.87022832  0.86956767  1
  O  O312  1  0.38181467  0.12627129  0.13502840  1
  O  O313  1  0.38594667  0.13005385  0.62294374  1
  O  O314  1  0.37606633  0.62794054  0.13391609  1
  O  O315  1  0.38069944  0.63515909  0.62424065  1
  O  O316  1  0.88508548  0.13177314  0.12469758  1
  O  O317  1  0.88069434  0.12920354  0.63091660  1
  O  O318  1  0.87976960  0.63066811  0.13146138  1
  O  O319  1  0.87450978  0.63146692  0.63253457  1
  O  O320  1  0.25345779  0.25403174  0.11653880  1
  O  O321  1  0.25497664  0.25380219  0.61870735  1
  O  O322  1  0.25043207  0.75386631  0.11060715  1
  O  O323  1  0.26292932  0.75133765  0.62410564  1
  O  O324  1  0.75492680  0.25539687  0.12015081  1
  O  O325  1  0.75745487  0.25084004  0.61848437  1
  O  O326  1  0.75645962  0.75507914  0.12038592  1
  O  O327  1  0.75330642  0.75475795  0.62044206  1
  O  O328  1  0.24219538  0.24893690  0.38160151  1
  O  O329  1  0.24565056  0.24246092  0.87866031  1
  O  O330  1  0.24178100  0.74215542  0.37749116  1
  O  O331  1  0.24284487  0.74982036  0.88271494  1
  O  O332  1  0.74797550  0.24516661  0.38351921  1
  O  O333  1  0.74522740  0.24536983  0.88039013  1
  O  O334  1  0.74404399  0.74387648  0.38015553  1
  O  O335  1  0.74411537  0.74571540  0.88046959  1
  O  O336  1  0.00669350  0.12661641  0.00875637  1
  O  O337  1  0.00499348  0.11831832  0.50495783  1
  O  O338  1  0.00599493  0.62139377  0.00598298  1
  O  O339  1  0.00900668  0.62046427  0.50263506  1
  O  O340  1  0.50483733  0.12145712  0.00476139  1
  O  O341  1  0.50935876  0.12490706  0.50908495  1
  O  O342  1  0.50882187  0.62428464  0.00235577  1
  O  O343  1  0.50486253  0.61990709  0.50551410  1
  O  O344  1  0.49320205  0.38127760  0.50021799  1
  O  O345  1  0.49024439  0.37712001  0.99520043  1
  O  O346  1  0.48981915  0.87693582  0.49316710  1
  O  O347  1  0.49450492  0.87943057  0.99500561  1
  O  O348  1  0.99214085  0.37462860  0.49296845  1
  O  O349  1  1.00140655  0.38172937  0.99294777  1
  O  O350  1  0.99821219  0.87975533  0.49279724  1
  O  O351  1  0.99144167  0.87639775  0.99708610  1
  O  O352  1  0.49212063  0.49945206  0.38324183  1
  O  O353  1  0.49006934  0.49479205  0.87710600  1
  O  O354  1  0.48896106  0.99370910  0.37556853  1
  O  O355  1  0.50058581  0.99478048  0.88097424  1
  O  O356  1  0.99108468  0.49179592  0.37590362  1
  O  O357  1  1.00163988  0.49412792  0.88061236  1
  O  O358  1  0.99178508  0.99385892  0.37930514  1
  O  O359  1  0.99176414  0.99843894  0.87555584  1
  O  O360  1  0.00124445  0.01292852  0.12303066  1
  O  O361  1  -0.00031028  0.00499680  0.61845515  1
  O  O362  1  0.00555818  0.50630014  0.12034370  1
  O  O363  1  0.00863170  0.50077734  0.62468331  1
  O  O364  1  0.50353716  0.00694495  0.11793141  1
  O  O365  1  0.50624750  0.00973220  0.62321239  1
  O  O366  1  0.50894857  0.50378916  0.12356225  1
  O  O367  1  0.50388634  0.50618547  0.62037246  1
  O  O368  1  0.24252052  0.38249677  0.25016511  1
  O  O369  1  0.24436443  0.37823474  0.74409321  1
  O  O370  1  0.23780558  0.87365388  0.24898749  1
  O  O371  1  0.25020719  0.88743732  0.74985648  1
  O  O372  1  0.74459013  0.38029285  0.24447296  1
  O  O373  1  0.74307190  0.38247056  0.74983066  1
  O  O374  1  0.74491595  0.87869472  0.24513003  1
  O  O375  1  0.74412723  0.88039013  0.74495006  1
  O  O376  1  0.26255994  0.12604615  0.25158940  1
  O  O377  1  0.25014074  0.11896435  0.75878700  1
  O  O378  1  0.25368549  0.62026280  0.25671708  1
  O  O379  1  0.25483848  0.61549486  0.75260421  1
  O  O380  1  0.75209903  0.11582242  0.25188145  1
  O  O381  1  0.75571786  0.12029745  0.75520659  1
  O  O382  1  0.75514828  0.61991366  0.25611584  1
  O  O383  1  0.75358001  0.62102347  0.75626370  1
  O  O384  1  0.37707147  0.11651882  0.36656351  1
  O  O385  1  0.36327971  0.12604675  0.87458072  1
  O  O386  1  0.36815419  0.61917805  0.37125470  1
  O  O387  1  0.37485037  0.61365008  0.87390933  1
  O  O388  1  0.87496387  0.11090696  0.37279196  1
  O  O389  1  0.86934574  0.12123143  0.86954621  1
  O  O390  1  0.86866279  0.61919114  0.37004083  1
  O  O391  1  0.86760684  0.62512554  0.86854135  1
  O  O392  1  0.12527048  0.38247863  0.13211643  1
  O  O393  1  0.13085817  0.37728179  0.63001078  1
  O  O394  1  0.12361612  0.87462974  0.13645031  1
  O  O395  1  0.13138624  0.87667500  0.62764497  1
  O  O396  1  0.63106324  0.38107529  0.13091302  1
  O  O397  1  0.62539398  0.38228310  0.63260287  1
  O  O398  1  0.63284494  0.87542126  0.13221472  1
  O  O399  1  0.62919424  0.88006796  0.63026280  1
  O  O400  1  0.11917557  0.25580189  0.25518813  1
  O  O401  1  0.12014671  0.25429379  0.75440866  1
  O  O402  1  0.11883476  0.75562789  0.25530958  1
  O  O403  1  0.11804880  0.74712414  0.75728532  1
  O  O404  1  0.61605489  0.25508965  0.25024261  1
  O  O405  1  0.62490325  0.25723324  0.75765173  1
  O  O406  1  0.62042955  0.75462656  0.25701358  1
  O  O407  1  0.61999255  0.75660436  0.75508662  1
  O  O408  1  0.38296614  0.24246557  0.25126616  1
  O  O409  1  0.37818196  0.24719236  0.74117048  1
  O  O410  1  0.38027765  0.74428290  0.25046766  1
  O  O411  1  0.38143234  0.75236427  0.74076507  1
  O  O412  1  0.88149503  0.24807803  0.24280410  1
  O  O413  1  0.88065628  0.24388312  0.74519427  1
  O  O414  1  0.87981197  0.74420849  0.24561141  1
  O  O415  1  0.88136144  0.74440498  0.74601201  1
  O  O416  1  0.37897489  0.49438659  0.49640667  1
  O  O417  1  0.37341106  0.49255357  0.99132599  1
  O  O418  1  0.37667585  0.99279323  0.49045285  1
  O  O419  1  0.38177586  0.99161598  0.99693916  1
  O  O420  1  0.87342448  0.49270054  0.49386739  1
  O  O421  1  0.88445351  0.49895903  0.99762019  1
  O  O422  1  0.88048939  0.99721012  0.49068948  1
  O  O423  1  0.87520106  0.99393119  0.99296469  1
  O  O424  1  0.12224845  0.00827815  0.00033833  1
  O  O425  1  0.11876929  0.00552578  0.49762860  1
  O  O426  1  0.12123319  0.50665427  0.00518574  1
  O  O427  1  0.12345905  0.50538024  0.50622076  1
  O  O428  1  0.61973634  0.00763239  0.00132823  1
  O  O429  1  0.62408695  0.00833082  0.50615984  1
  O  O430  1  0.62474277  0.50756941  0.00674316  1
  O  O431  1  0.61929228  0.50542802  0.50589689  1
  O  O432  1  0.37289484  0.37672475  0.11355568  1
  O  O433  1  0.36940453  0.36956866  0.61946603  1
  O  O434  1  0.37495409  0.87251879  0.11127979  1
  O  O435  1  0.37649587  0.86811830  0.61545035  1
  O  O436  1  0.86842865  0.36901379  0.12339804  1
  O  O437  1  0.87387421  0.36698782  0.61892898  1
  O  O438  1  0.87049917  0.86898960  0.12054840  1
  O  O439  1  0.86684814  0.86711920  0.62422020  1
  O  O440  1  0.12505281  0.13109451  0.37973401  1
  O  O441  1  0.13435295  0.13102540  0.87934832  1
  O  O442  1  0.12850003  0.62801458  0.38104648  1
  O  O443  1  0.12726527  0.63618087  0.88085047  1
  O  O444  1  0.62487687  0.12432835  0.38818282  1
  O  O445  1  0.63146225  0.13172774  0.88022884  1
  O  O446  1  0.62994264  0.62959628  0.38058654  1
  O  O447  1  0.63021059  0.63216327  0.88040314  1
