# generated using pymatgen
data_V3Zn3O8
_symmetry_space_group_name_H-M   'P 1'
_cell_length_a   17.08884483
_cell_length_b   17.09036273
_cell_length_c   17.08889211
_cell_angle_alpha   90.01215621
_cell_angle_beta   89.99161564
_cell_angle_gamma   90.00448606
_symmetry_Int_Tables_number   1
_chemical_formula_structural   V3Zn3O8
_chemical_formula_sum   'V96 Zn96 O256'
_cell_volume   4990.88862733
_cell_formula_units_Z   32
loop_
 _symmetry_equiv_pos_site_id
 _symmetry_equiv_pos_as_xyz
  1  'x, y, z'
loop_
 _atom_site_type_symbol
 _atom_site_label
 _atom_site_symmetry_multiplicity
 _atom_site_fract_x
 _atom_site_fract_y
 _atom_site_fract_z
 _atom_site_occupancy
  V  V0  1  0.12556185  0.00005610  0.62569583  1
  V  V1  1  0.12396824  -0.00014821  0.12586759  1
  V  V2  1  0.87543755  0.49913600  0.87357351  1
  V  V3  1  0.12591367  0.75072441  0.37479750  1
  V  V4  1  0.50059342  0.62403102  0.62490788  1
  V  V5  1  0.25003785  0.12410696  0.87505594  1
  V  V6  1  0.37577525  0.75046457  0.62568280  1
  V  V7  1  0.62374088  0.24937611  0.87391008  1
  V  V8  1  0.74978392  0.37539500  0.62455211  1
  V  V9  1  0.74874443  0.75043965  -0.00048847  1
  V  V10  1  0.75104669  0.74982795  0.49984557  1
  V  V11  1  0.37436229  0.75075858  0.12484664  1
  V  V12  1  0.49945026  0.49996023  0.50020764  1
  V  V13  1  0.00051008  0.87590508  0.37570336  1
  V  V14  1  0.62494002  0.25135064  0.37422644  1
  V  V15  1  0.12566320  0.49999550  0.62490215  1
  V  V16  1  0.25112691  0.12503662  0.37527044  1
  V  V17  1  0.62574194  0.49960740  0.12497732  1
  V  V18  1  0.74960715  0.12498649  0.87438184  1
  V  V19  1  0.87583741  0.50037745  0.37435925  1
  V  V20  1  0.62588320  0.74874597  0.37524725  1
  V  V21  1  0.87599327  0.24916497  0.62419290  1
  V  V22  1  0.62682525  -0.00039829  0.62493402  1
  V  V23  1  0.74974879  0.49935858  0.74773640  1
  V  V24  1  0.12492756  0.62414925  -0.00084817  1
  V  V25  1  0.87381496  0.87525038  0.00019519  1
  V  V26  1  0.62540811  0.87515353  0.25078341  1
  V  V27  1  0.24919443  0.37581891  0.62531435  1
  V  V28  1  0.00081949  0.12353044  0.62431023  1
  V  V29  1  0.50129932  0.75001936  0.75054712  1
  V  V30  1  0.24891977  0.24927910  0.00200044  1
  V  V31  1  0.75087707  0.62488208  0.37330511  1
  V  V32  1  0.00107392  0.87275505  0.87341888  1
  V  V33  1  0.12544574  0.49889842  0.12498168  1
  V  V34  1  0.74922279  0.37571339  0.12385172  1
  V  V35  1  0.74955476  0.87602653  0.12559836  1
  V  V36  1  0.87453242  0.12403333  0.74999311  1
  V  V37  1  0.37436946  0.12408752  0.25139594  1
  V  V38  1  0.37593657  0.49980706  0.87600616  1
  V  V39  1  0.50035342  0.74935679  0.25097206  1
  V  V40  1  0.62394772  0.00099197  0.12464076  1
  V  V41  1  0.12423238  0.25065023  0.37414867  1
  V  V42  1  0.37579645  0.62458597  0.25069822  1
  V  V43  1  0.37511668  0.25036781  0.62528532  1
  V  V44  1  0.62512985  0.75039292  0.87475525  1
  V  V45  1  0.74949921  0.24964885  -0.00084682  1
  V  V46  1  0.25050265  0.75073897  0.50126253  1
  V  V47  1  0.87499556  0.25094707  0.12481187  1
  V  V48  1  -0.00135704  0.25090966  0.24908222  1
  V  V49  1  0.49988438  0.37448673  0.87476176  1
  V  V50  1  0.87618401  0.37565348  0.49877335  1
  V  V51  1  0.25032276  0.87632700  0.62681258  1
  V  V52  1  0.75083156  0.00084009  0.25095466  1
  V  V53  1  0.24989347  0.50003393  0.24914297  1
  V  V54  1  0.37602121  0.87567866  0.50066490  1
  V  V55  1  0.37473918  0.37590307  0.49929359  1
  V  V56  1  0.37473879  0.00061953  0.37525584  1
  V  V57  1  0.62494899  0.49952106  0.62423393  1
  V  V58  1  0.87557182  -0.00009074  0.37550037  1
  V  V59  1  0.25076405  -0.00016506  0.75081255  1
  V  V60  1  0.37546203  0.62533085  0.75025694  1
  V  V61  1  0.00026841  0.49986435  0.49884793  1
  V  V62  1  0.87495108  0.62418984  0.74839535  1
  V  V63  1  0.87495071  0.74968439  0.12491104  1
  V  V64  1  0.24950736  0.62456649  0.87529452  1
  V  V65  1  0.37598900  0.12515790  0.74951684  1
  V  V66  1  0.62566747  0.12499534  0.50038680  1
  V  V67  1  0.87555378  0.75016355  0.62507271  1
  V  V68  1  0.87519521  0.37595591  -0.00222421  1
  V  V69  1  0.50168130  0.00090798  0.49967090  1
  V  V70  1  0.00011647  0.62524761  0.62468848  1
  V  V71  1  0.50061100  0.50043152  -0.00026459  1
  V  V72  1  -0.00052673  0.00044174  0.00135646  1
  V  V73  1  0.00053066  -0.00000548  0.50008744  1
  V  V74  1  0.37446989  0.24990655  0.12598934  1
  V  V75  1  0.24960085  0.25050556  0.49902162  1
  V  V76  1  0.37532025  0.49979117  0.37543627  1
  V  V77  1  0.87550752  0.62464674  0.24963716  1
  V  V78  1  0.62534254  0.37464373  0.24963332  1
  V  V79  1  0.50079392  0.62463491  0.12553212  1
  V  V80  1  0.50066280  0.12356019  0.12407938  1
  V  V81  1  0.00123011  0.24989373  0.74970518  1
  V  V82  1  0.12367783  0.25021734  0.87494906  1
  V  V83  1  0.12554551  0.87530075  0.24942016  1
  V  V84  1  0.50050166  0.87486705  0.37557102  1
  V  V85  1  0.62518481  0.87497481  0.75005444  1
  V  V86  1  0.25100002  0.75143990  0.00038651  1
  V  V87  1  0.75076156  0.12439866  0.37482098  1
  V  V88  1  0.62581006  0.62605754  -0.00044837  1
  V  V89  1  0.00093895  0.74972395  0.24965525  1
  V  V90  1  -0.00013489  0.62453350  0.12342388  1
  V  V91  1  0.25056130  0.62540780  0.37547574  1
  V  V92  1  0.24951383  0.49985503  0.74995354  1
  V  V93  1  0.12547276  0.62527240  0.50017379  1
  V  V94  1  0.75048631  0.25026329  0.49975989  1
  V  V95  1  0.87336229  0.00040922  0.87476234  1
  Zn  Zn96  1  0.75106720  0.50020783  0.24927803  1
  Zn  Zn97  1  0.37562609  0.87852175  0.00046645  1
  Zn  Zn98  1  0.12377551  0.37579035  0.75016558  1
  Zn  Zn99  1  0.25102234  0.37512968  0.12589976  1
  Zn  Zn100  1  0.62364103  0.12188314  -0.00165840  1
  Zn  Zn101  1  0.49703802  -0.00302998  -0.00104734  1
  Zn  Zn102  1  0.00016023  0.37536229  0.37439958  1
  Zn  Zn103  1  0.87658045  0.87483357  0.50113995  1
  Zn  Zn104  1  0.49674080  0.87747651  0.87961976  1
  Zn  Zn105  1  0.12399928  0.74874670  0.87347560  1
  Zn  Zn106  1  0.74985739  0.62493784  0.87335854  1
  Zn  Zn107  1  0.00045504  0.37474307  0.87403273  1
  Zn  Zn108  1  0.12554242  0.12537156  0.50037369  1
  Zn  Zn109  1  -0.00304284  0.12534357  0.12405369  1
  Zn  Zn110  1  0.12698697  0.87264957  0.75174473  1
  Zn  Zn111  1  0.62410329  0.37446946  0.74819897  1
  Zn  Zn112  1  0.50042366  0.37474625  0.37440926  1
  Zn  Zn113  1  0.37597618  -0.00185782  0.88053880  1
  Zn  Zn114  1  0.37514067  0.37532107  0.00180396  1
  Zn  Zn115  1  0.74931721  -0.00070892  0.75022543  1
  Zn  Zn116  1  0.25109498  0.87576346  0.12613268  1
  Zn  Zn117  1  0.12152132  0.12493076  0.00199094  1
  Zn  Zn118  1  0.00259454  0.74983909  0.75013635  1
  Zn  Zn119  1  0.00002793  0.49926602  -0.00211094  1
  Zn  Zn120  1  0.12617418  0.37501451  0.24928208  1
  Zn  Zn121  1  0.50155551  0.12872445  0.62545366  1
  Zn  Zn122  1  0.49914178  0.25056658  0.74917560  1
  Zn  Zn123  1  0.87393144  0.12610931  0.24894151  1
  Zn  Zn124  1  0.75238640  0.87474309  0.62539265  1
  Zn  Zn125  1  0.24939324  -0.00212122  0.25024616  1
  Zn  Zn126  1  0.62417523  0.62386182  0.49848091  1
  Zn  Zn127  1  0.49963992  0.25153144  0.25220809  1
  Zn  Zn128  1  0.18588282  0.18298535  0.18941314  1
  Zn  Zn129  1  0.18795218  0.18692938  0.68768444  1
  Zn  Zn130  1  0.18802126  0.68584254  0.18667970  1
  Zn  Zn131  1  0.18672169  0.68898509  0.68994155  1
  Zn  Zn132  1  0.68736079  0.18820165  0.18837584  1
  Zn  Zn133  1  0.68844144  0.18789455  0.68888204  1
  Zn  Zn134  1  0.68832888  0.68750246  0.18763842  1
  Zn  Zn135  1  0.68775019  0.68484323  0.68716517  1
  Zn  Zn136  1  0.31140576  0.31459816  0.31099425  1
  Zn  Zn137  1  0.31164426  0.31308890  0.81242932  1
  Zn  Zn138  1  0.31228968  0.81362894  0.31150038  1
  Zn  Zn139  1  0.31415883  0.81397420  0.81489485  1
  Zn  Zn140  1  0.81178091  0.31405150  0.31206721  1
  Zn  Zn141  1  0.81205713  0.31236239  0.81048129  1
  Zn  Zn142  1  0.81409307  0.81384470  0.31251548  1
  Zn  Zn143  1  0.81146238  0.81200865  0.81191930  1
  Zn  Zn144  1  0.18748785  0.43632063  0.43673379  1
  Zn  Zn145  1  0.18871028  0.43488599  0.93847561  1
  Zn  Zn146  1  0.18752423  0.93858521  0.43889172  1
  Zn  Zn147  1  0.18705658  0.93726149  0.93838015  1
  Zn  Zn148  1  0.68786030  0.43792762  0.43699095  1
  Zn  Zn149  1  0.68792811  0.43738000  0.93663913  1
  Zn  Zn150  1  0.68933533  0.93570381  0.43785097  1
  Zn  Zn151  1  0.68473012  0.93865875  0.93789023  1
  Zn  Zn152  1  0.30987050  0.06181189  0.06321780  1
  Zn  Zn153  1  0.31216880  0.06413680  0.56277796  1
  Zn  Zn154  1  0.31302689  0.56482434  0.06177575  1
  Zn  Zn155  1  0.31273548  0.56285028  0.56297062  1
  Zn  Zn156  1  0.81195017  0.06509381  0.06268608  1
  Zn  Zn157  1  0.81272994  0.06221190  0.56132751  1
  Zn  Zn158  1  0.81147191  0.56291923  0.06051692  1
  Zn  Zn159  1  0.81227763  0.56297380  0.56069024  1
  Zn  Zn160  1  0.43915777  0.43566081  0.18865911  1
  Zn  Zn161  1  0.43671644  0.43717868  0.68850443  1
  Zn  Zn162  1  0.43639438  0.93650247  0.18719317  1
  Zn  Zn163  1  0.43968927  0.93893294  0.68806091  1
  Zn  Zn164  1  0.93831084  0.43639996  0.18723306  1
  Zn  Zn165  1  0.93907358  0.43525096  0.68709007  1
  Zn  Zn166  1  0.93769328  0.93708715  0.18898954  1
  Zn  Zn167  1  0.93777999  0.93719560  0.68836997  1
  Zn  Zn168  1  0.06127185  0.06520152  0.31090265  1
  Zn  Zn169  1  0.06254057  0.06142041  0.81230414  1
  Zn  Zn170  1  0.06262116  0.56366857  0.31197142  1
  Zn  Zn171  1  0.06167668  0.56289601  0.81122987  1
  Zn  Zn172  1  0.56252280  0.06467341  0.31099011  1
  Zn  Zn173  1  0.55874328  0.06136406  0.81303939  1
  Zn  Zn174  1  0.56366810  0.56063154  0.31281354  1
  Zn  Zn175  1  0.56450724  0.56246562  0.81153025  1
  Zn  Zn176  1  0.43959175  0.18856058  0.43827216  1
  Zn  Zn177  1  0.43636452  0.18490927  0.93852848  1
  Zn  Zn178  1  0.43770421  0.68660708  0.43865660  1
  Zn  Zn179  1  0.43834196  0.68912835  0.93753756  1
  Zn  Zn180  1  0.93811059  0.18556360  0.43730986  1
  Zn  Zn181  1  0.93739351  0.18683739  0.93819535  1
  Zn  Zn182  1  0.93839834  0.68679900  0.43693202  1
  Zn  Zn183  1  0.93636968  0.68624291  0.93780105  1
  Zn  Zn184  1  0.06018362  0.31590369  0.06163806  1
  Zn  Zn185  1  0.06267074  0.31307711  0.56216225  1
  Zn  Zn186  1  0.06339038  0.81251041  0.06083975  1
  Zn  Zn187  1  0.06343172  0.81454303  0.56334200  1
  Zn  Zn188  1  0.56243908  0.31149455  0.06136749  1
  Zn  Zn189  1  0.56117075  0.31371609  0.56147586  1
  Zn  Zn190  1  0.56086661  0.81382132  0.06242398  1
  Zn  Zn191  1  0.56347566  0.81238795  0.56254993  1
  O  O192  1  0.12011064  0.11225329  0.12514345  1
  O  O193  1  0.11853201  0.11898435  0.62361183  1
  O  O194  1  0.11979354  0.61676152  0.11990026  1
  O  O195  1  0.12085500  0.62006500  0.61875117  1
  O  O196  1  0.61577163  0.12075840  0.12604432  1
  O  O197  1  0.62534814  0.11619588  0.62008585  1
  O  O198  1  0.61976115  0.62031057  0.12043797  1
  O  O199  1  0.61790777  0.61796456  0.62263269  1
  O  O200  1  0.37496569  0.38264709  0.38122759  1
  O  O201  1  0.38383842  0.38025715  0.87721540  1
  O  O202  1  0.38104820  0.87938986  0.38129649  1
  O  O203  1  0.37822127  0.87874420  0.87903837  1
  O  O204  1  0.87595895  0.38190735  0.38182667  1
  O  O205  1  0.87431221  0.38384190  0.87839362  1
  O  O206  1  0.88330267  0.88101677  0.37611233  1
  O  O207  1  0.88028769  0.87997191  0.88077151  1
  O  O208  1  0.25702362  0.00653732  0.37582243  1
  O  O209  1  0.24920863  0.00739532  0.86871332  1
  O  O210  1  0.25495576  0.50699372  0.37045418  1
  O  O211  1  0.25600615  0.50447882  0.87078521  1
  O  O212  1  0.75502564  0.00419669  0.37083222  1
  O  O213  1  0.75554818  0.00653434  0.87399218  1
  O  O214  1  0.75741902  0.50773361  0.37411266  1
  O  O215  1  0.75939115  0.50053053  0.86769232  1
  O  O216  1  0.24103093  0.50264003  0.12983257  1
  O  O217  1  0.24510697  0.49586871  0.62983844  1
  O  O218  1  0.23651031  0.99749614  0.12797675  1
  O  O219  1  0.24557699  0.99511259  0.62949504  1
  O  O220  1  0.74334054  0.49388490  0.12519818  1
  O  O221  1  0.74547996  0.49492627  0.62764486  1
  O  O222  1  0.74511019  0.99479007  0.13082961  1
  O  O223  1  0.73844570  0.99701563  0.62483420  1
  O  O224  1  0.00250778  0.36315537  0.25245276  1
  O  O225  1  0.00316310  0.36552406  0.75197258  1
  O  O226  1  0.00570506  0.86808310  0.25620930  1
  O  O227  1  -0.00035178  0.87443734  0.76317796  1
  O  O228  1  0.51049697  0.37229117  0.25249979  1
  O  O229  1  0.50043584  0.37396129  0.76353524  1
  O  O230  1  0.50592869  0.86875108  0.25648769  1
  O  O231  1  0.51207841  0.86831021  0.74753988  1
  O  O232  1  0.49410070  0.12813709  0.24027016  1
  O  O233  1  0.48751415  0.12815277  0.74755659  1
  O  O234  1  0.49564931  0.62998434  0.24549069  1
  O  O235  1  0.49471600  0.62962502  0.74422418  1
  O  O236  1  0.99658984  0.13963337  0.24861764  1
  O  O237  1  0.99396739  0.12979164  0.74374267  1
  O  O238  1  0.99498240  0.63132542  0.24386604  1
  O  O239  1  0.99245533  0.62612731  0.74160566  1
  O  O240  1  0.36588669  0.24823248  0.00948196  1
  O  O241  1  0.36891922  0.25621892  0.50452207  1
  O  O242  1  0.36463440  0.74520039  0.00726029  1
  O  O243  1  0.37024342  0.75567074  0.50561759  1
  O  O244  1  0.86877733  0.25631041  0.00359388  1
  O  O245  1  0.87009164  0.25469192  0.50476830  1
  O  O246  1  0.86888771  0.75531865  0.00614456  1
  O  O247  1  0.86812677  0.74892274  0.50785889  1
  O  O248  1  0.13011122  0.24930623  0.49009503  1
  O  O249  1  0.13193966  0.24936783  0.99363958  1
  O  O250  1  0.13098499  0.74487854  0.49508694  1
  O  O251  1  0.13440004  0.74211589  0.99997510  1
  O  O252  1  0.63181063  0.24522606  0.49566987  1
  O  O253  1  0.63012368  0.24851362  0.98850564  1
  O  O254  1  0.63420527  0.74804157  0.49428313  1
  O  O255  1  0.63013835  0.74555035  0.99563463  1
  O  O256  1  0.49040724  0.24222479  0.12503810  1
  O  O257  1  0.49202202  0.24967901  0.62833107  1
  O  O258  1  0.49567498  0.74326823  0.13258769  1
  O  O259  1  0.49477859  0.74458886  0.62991855  1
  O  O260  1  0.99497169  0.25096174  0.13326299  1
  O  O261  1  0.99516305  0.24383763  0.62874921  1
  O  O262  1  0.99434226  0.74497844  0.12969175  1
  O  O263  1  0.99022627  0.74426269  0.62283940  1
  O  O264  1  0.00771505  0.25036480  0.36838096  1
  O  O265  1  0.00874799  0.24876888  0.86922025  1
  O  O266  1  0.00681977  0.75427268  0.36970828  1
  O  O267  1  -0.00197197  0.76109002  0.87476232  1
  O  O268  1  0.50900586  0.25297380  0.37336673  1
  O  O269  1  0.50697054  0.25763177  0.87693963  1
  O  O270  1  0.50525047  0.75467029  0.37087497  1
  O  O271  1  0.50777604  0.74950296  0.86660963  1
  O  O272  1  0.24950259  0.13314262  0.49302388  1
  O  O273  1  0.24673072  0.13627434  0.99494422  1
  O  O274  1  0.24539913  0.63140083  0.49564860  1
  O  O275  1  0.24511308  0.63170642  0.99438473  1
  O  O276  1  0.74498953  0.13097684  0.49461484  1
  O  O277  1  0.74829176  0.13251437  0.99202138  1
  O  O278  1  0.74987509  0.63614987  0.49304983  1
  O  O279  1  0.74312783  0.63319118  0.99918410  1
  O  O280  1  0.25321522  0.36112478  0.00256594  1
  O  O281  1  0.25558882  0.37050289  0.50532304  1
  O  O282  1  0.24901149  0.86028301  0.00222486  1
  O  O283  1  0.25670223  0.86977535  0.50578873  1
  O  O284  1  0.75491068  0.36930366  0.00448039  1
  O  O285  1  0.75655269  0.36958851  0.50529813  1
  O  O286  1  0.75422226  0.86997439  0.00614450  1
  O  O287  1  0.75317866  0.86077131  0.50101741  1
  O  O288  1  0.13065369  0.50236677  0.24050815  1
  O  O289  1  0.13164882  0.49941220  0.74296009  1
  O  O290  1  0.12251537  0.99391947  0.24226500  1
  O  O291  1  0.13255906  0.99823294  0.74347382  1
  O  O292  1  0.62719463  0.49333006  0.24262701  1
  O  O293  1  0.63159036  0.49788044  0.74260277  1
  O  O294  1  0.63098204  0.99381318  0.24583629  1
  O  O295  1  0.62456861  0.99237239  0.74091870  1
  O  O296  1  0.37389048  0.00552463  0.25808947  1
  O  O297  1  0.36885499  0.01172139  0.74616292  1
  O  O298  1  0.37075621  0.50606055  0.25477126  1
  O  O299  1  0.36965009  0.50627100  0.75587670  1
  O  O300  1  0.86831538  0.00091712  0.25674564  1
  O  O301  1  0.87217059  0.00610615  0.75589977  1
  O  O302  1  0.87497275  0.50715727  0.25558268  1
  O  O303  1  0.86998589  0.50386536  0.75469178  1
  O  O304  1  0.12352587  0.36272877  0.37277855  1
  O  O305  1  0.12449558  0.36200384  0.87365559  1
  O  O306  1  0.12040465  0.86944909  0.37034837  1
  O  O307  1  0.11195012  0.87336842  0.87612815  1
  O  O308  1  0.62623994  0.36938044  0.36763703  1
  O  O309  1  0.61663728  0.36720585  0.87407350  1
  O  O310  1  0.61984525  0.86886271  0.37029865  1
  O  O311  1  0.62434943  0.86940846  0.86424213  1
  O  O312  1  0.38085508  0.13186762  0.13142950  1
  O  O313  1  0.37501083  0.13213791  0.63335063  1
  O  O314  1  0.38183878  0.62956735  0.13207337  1
  O  O315  1  0.38006305  0.63058677  0.63075147  1
  O  O316  1  0.87587047  0.13511717  0.12814214  1
  O  O317  1  0.88016100  0.13000567  0.62963798  1
  O  O318  1  0.87991065  0.63043941  0.12919441  1
  O  O319  1  0.88053483  0.63176519  0.62794321  1
  O  O320  1  0.25671542  0.24734569  0.11845221  1
  O  O321  1  0.25400611  0.25611849  0.61875336  1
  O  O322  1  0.25558570  0.74678880  0.11568479  1
  O  O323  1  0.25646964  0.75523508  0.62011527  1
  O  O324  1  0.75383790  0.25640497  0.11879935  1
  O  O325  1  0.75620376  0.25446871  0.61912413  1
  O  O326  1  0.75510481  0.75661352  0.12052365  1
  O  O327  1  0.75905131  0.74709633  0.61581390  1
  O  O328  1  0.24276501  0.24570551  0.37868123  1
  O  O329  1  0.24294385  0.24540801  0.88217684  1
  O  O330  1  0.24593405  0.74500812  0.38161719  1
  O  O331  1  0.25013111  0.74198416  0.88454617  1
  O  O332  1  0.74530324  0.24492663  0.38121166  1
  O  O333  1  0.74175338  0.24650748  0.87880130  1
  O  O334  1  0.74687618  0.74546791  0.38121137  1
  O  O335  1  0.74384972  0.74837143  0.88196224  1
  O  O336  1  0.00094284  0.11584847  0.00249258  1
  O  O337  1  0.00147399  0.11787111  0.50700978  1
  O  O338  1  0.00575451  0.62258604  0.00632039  1
  O  O339  1  0.00633899  0.61988440  0.50482116  1
  O  O340  1  0.50063130  0.12445011  0.01496831  1
  O  O341  1  0.50836151  0.11830521  0.50152252  1
  O  O342  1  0.50638598  0.62062138  0.00628847  1
  O  O343  1  0.49998495  0.61857551  0.50746123  1
  O  O344  1  0.49199430  0.38279442  0.49820880  1
  O  O345  1  0.49938941  0.38100963  0.98976934  1
  O  O346  1  0.49554456  0.87992542  0.49472344  1
  O  O347  1  0.49523191  0.87709497  0.99907632  1
  O  O348  1  0.99336249  0.38211881  0.49904188  1
  O  O349  1  0.99073876  0.37897155  0.99506192  1
  O  O350  1  1.00001602  0.88165979  0.49286079  1
  O  O351  1  0.99282404  0.87930787  0.99301304  1
  O  O352  1  0.49273316  0.49995931  0.38176154  1
  O  O353  1  0.49690625  0.49326456  0.87990724  1
  O  O354  1  0.49596110  0.99416045  0.38011444  1
  O  O355  1  0.49594962  0.99769468  0.87952241  1
  O  O356  1  0.99497322  0.49959944  0.38114142  1
  O  O357  1  0.98705729  0.49794384  0.87393223  1
  O  O358  1  0.99590912  0.99592041  0.37953873  1
  O  O359  1  0.99367840  0.99257249  0.88085412  1
  O  O360  1  0.00704584  -0.00087336  0.12017420  1
  O  O361  1  0.00497834  0.00413511  0.62030807  1
  O  O362  1  0.00923736  0.50618990  0.12430346  1
  O  O363  1  0.00537735  0.50576234  0.61873214  1
  O  O364  1  0.50595432  0.00981835  0.12894082  1
  O  O365  1  0.51208313  0.00162271  0.61826403  1
  O  O366  1  0.50550450  0.50503880  0.11923315  1
  O  O367  1  0.50416561  0.50433782  0.62050458  1
  O  O368  1  0.24683707  0.38475348  0.24640067  1
  O  O369  1  0.24907640  0.38280369  0.74354316  1
  O  O370  1  0.24089943  0.87658461  0.24854778  1
  O  O371  1  0.25115856  0.88163499  0.74293505  1
  O  O372  1  0.74255303  0.37698997  0.24191259  1
  O  O373  1  0.74932906  0.38096533  0.74100922  1
  O  O374  1  0.74460828  0.88000985  0.24544992  1
  O  O375  1  0.73703867  0.87569242  0.74728924  1
  O  O376  1  0.25693089  0.12168907  0.25823471  1
  O  O377  1  0.25796367  0.12016596  0.75437782  1
  O  O378  1  0.25608200  0.62038475  0.25646296  1
  O  O379  1  0.25642196  0.61943828  0.75476909  1
  O  O380  1  0.74999175  0.11841202  0.25764864  1
  O  O381  1  0.75716668  0.12417566  0.75676627  1
  O  O382  1  0.75783731  0.62501118  0.25545382  1
  O  O383  1  0.75756405  0.61729965  0.75001338  1
  O  O384  1  0.37134215  0.12012963  0.37117898  1
  O  O385  1  0.36792117  0.12659576  0.86450669  1
  O  O386  1  0.36948173  0.62054632  0.37025565  1
  O  O387  1  0.37071069  0.61892191  0.86923101  1
  O  O388  1  0.86770459  0.11803441  0.37390848  1
  O  O389  1  0.86976232  0.12006542  0.86917843  1
  O  O390  1  0.87122370  0.62051369  0.36895661  1
  O  O391  1  0.87294985  0.61564215  0.86852386  1
  O  O392  1  0.12700907  0.38819492  0.12585756  1
  O  O393  1  0.13184389  0.38235253  0.62509762  1
  O  O394  1  0.12387995  0.88346397  0.13110821  1
  O  O395  1  0.13265227  0.88164348  0.62658723  1
  O  O396  1  0.62935649  0.37982949  0.12861149  1
  O  O397  1  0.63176290  0.38079729  0.62598976  1
  O  O398  1  0.63087399  0.87958172  0.13244388  1
  O  O399  1  0.62673377  0.88250865  0.63156262  1
  O  O400  1  0.11763957  0.25079943  0.25729893  1
  O  O401  1  0.12091966  0.24981514  0.75961049  1
  O  O402  1  0.12003396  0.75322777  0.25534087  1
  O  O403  1  0.12077154  0.75408588  0.75465915  1
  O  O404  1  0.62476414  0.25780210  0.25610010  1
  O  O405  1  0.62267169  0.25223331  0.76185431  1
  O  O406  1  0.62015860  0.75538652  0.25546776  1
  O  O407  1  0.62142405  0.75620672  0.75311423  1
  O  O408  1  0.37457901  0.24412101  0.24071661  1
  O  O409  1  0.37271078  0.24096109  0.74443988  1
  O  O410  1  0.38096019  0.74360727  0.24664287  1
  O  O411  1  0.38040517  0.74425641  0.74406086  1
  O  O412  1  0.88257364  0.25137100  0.24442264  1
  O  O413  1  0.88036880  0.24376670  0.74345694  1
  O  O414  1  0.88134580  0.74520277  0.24430236  1
  O  O415  1  0.87415999  0.74383595  0.73898050  1
  O  O416  1  0.37891322  0.49557770  0.49523283  1
  O  O417  1  0.38228750  0.49939500  0.99432843  1
  O  O418  1  0.38148350  0.99489548  0.49558274  1
  O  O419  1  0.37586584  0.99782951  1.00007735  1
  O  O420  1  0.88108600  0.49603844  0.49436514  1
  O  O421  1  0.87406840  0.49534610  0.98912041  1
  O  O422  1  0.88138960  0.99686781  0.49425414  1
  O  O423  1  0.87870070  0.99358075  0.99520270  1
  O  O424  1  0.11857822  -0.00050656  0.01002160  1
  O  O425  1  0.11893838  0.00267956  0.50691428  1
  O  O426  1  0.12524090  0.50530746  0.00853363  1
  O  O427  1  0.12086898  0.50638021  0.50429759  1
  O  O428  1  0.62306921  0.00301963  0.01060127  1
  O  O429  1  0.62204170  0.00362071  0.50661695  1
  O  O430  1  0.62004913  0.50558273  0.00488815  1
  O  O431  1  0.61845720  0.50165822  0.50599348  1
  O  O432  1  0.37425284  0.36264182  0.12361732  1
  O  O433  1  0.36840590  0.37103731  0.61947296  1
  O  O434  1  0.37088397  0.86457449  0.12573010  1
  O  O435  1  0.37131271  0.87023523  0.61956162  1
  O  O436  1  0.86886361  0.37088756  0.11811364  1
  O  O437  1  0.86989475  0.36878096  0.61839411  1
  O  O438  1  0.86923859  0.86928973  0.12044937  1
  O  O439  1  0.87353437  0.86325819  0.62400906  1
  O  O440  1  0.13051402  0.13637714  0.37568234  1
  O  O441  1  0.13019031  0.13583625  0.87661001  1
  O  O442  1  0.13115541  0.63134681  0.38053032  1
  O  O443  1  0.13134552  0.62411567  0.88153183  1
  O  O444  1  0.63125705  0.12990353  0.38085096  1
  O  O445  1  0.62916677  0.13485094  0.87482448  1
  O  O446  1  0.63183933  0.63143584  0.37528217  1
  O  O447  1  0.62729505  0.63097509  0.88169251  1
