# generated using pymatgen
data_V3Zn3O8
_symmetry_space_group_name_H-M   'P 1'
_cell_length_a   17.08713778
_cell_length_b   17.08670624
_cell_length_c   17.08642141
_cell_angle_alpha   89.98031476
_cell_angle_beta   89.99384634
_cell_angle_gamma   90.00950443
_symmetry_Int_Tables_number   1
_chemical_formula_structural   V3Zn3O8
_chemical_formula_sum   'V96 Zn96 O256'
_cell_volume   4988.60081761
_cell_formula_units_Z   32
loop_
 _symmetry_equiv_pos_site_id
 _symmetry_equiv_pos_as_xyz
  1  'x, y, z'
loop_
 _atom_site_type_symbol
 _atom_site_label
 _atom_site_symmetry_multiplicity
 _atom_site_fract_x
 _atom_site_fract_y
 _atom_site_fract_z
 _atom_site_occupancy
  V  V0  1  0.37557368  0.87395208  0.50131325  1
  V  V1  1  0.62536903  0.12480301  0.49862748  1
  V  V2  1  0.50070642  0.12438856  0.62475974  1
  V  V3  1  0.12482775  0.37490516  0.25059301  1
  V  V4  1  0.62755986  0.87427806  0.75004167  1
  V  V5  1  0.87585998  0.37546698  -0.00109224  1
  V  V6  1  0.87493906  0.24956025  0.12457214  1
  V  V7  1  0.75014342  0.25104687  0.49982295  1
  V  V8  1  0.87599690  0.74929425  0.12525618  1
  V  V9  1  0.12449194  0.12559142  0.49948258  1
  V  V10  1  0.62555971  0.37457082  0.74938708  1
  V  V11  1  0.12579900  0.24925818  0.87592455  1
  V  V12  1  0.12487896  0.75027480  0.37477140  1
  V  V13  1  0.37458191  0.49910955  0.87632619  1
  V  V14  1  -0.00069208  0.37552414  0.87515133  1
  V  V15  1  0.49934853  0.49995727  0.00064299  1
  V  V16  1  0.37567891  0.87521645  -0.00037755  1
  V  V17  1  0.87470068  0.12568066  0.75115234  1
  V  V18  1  0.62506845  0.49867033  0.62561798  1
  V  V19  1  0.00052024  0.37524010  0.37461308  1
  V  V20  1  0.87532209  0.62476624  0.24922132  1
  V  V21  1  0.87441034  0.49977089  0.37452344  1
  V  V22  1  0.24964232  0.62527515  0.37580950  1
  V  V23  1  0.25006554  0.00067674  0.25068564  1
  V  V24  1  0.37516774  0.12376259  0.75072110  1
  V  V25  1  0.37538973  0.75027260  0.62538928  1
  V  V26  1  0.12514143  0.87493685  0.25100461  1
  V  V27  1  0.87448413  0.12560582  0.24859903  1
  V  V28  1  0.50093347  0.24848306  0.74975478  1
  V  V29  1  0.62611575  0.24773938  0.87579429  1
  V  V30  1  0.75037105  0.74845031  0.00032051  1
  V  V31  1  0.62493448  0.87479558  0.24802967  1
  V  V32  1  0.50037762  0.87494674  0.37397418  1
  V  V33  1  0.25014676  0.24925738  0.00061040  1
  V  V34  1  0.24992009  0.37544025  0.12623697  1
  V  V35  1  0.24986618  0.50097296  0.25147465  1
  V  V36  1  0.12618121  0.12512083  0.00002293  1
  V  V37  1  0.12454659  0.50109995  0.62538921  1
  V  V38  1  0.12461288  0.50088882  0.12417510  1
  V  V39  1  0.74924997  0.62456468  0.37370030  1
  V  V40  1  0.25083232  0.87520635  0.12457479  1
  V  V41  1  -0.00220779  0.00006672  0.49798004  1
  V  V42  1  0.74952055  0.24952533  -0.00059516  1
  V  V43  1  0.75093049  0.62363648  0.87438855  1
  V  V44  1  0.25022543  0.37355774  0.62559085  1
  V  V45  1  0.49909055  0.62438466  0.12554963  1
  V  V46  1  0.87564330  0.49993853  0.87444284  1
  V  V47  1  0.50122480  0.74886583  0.75041958  1
  V  V48  1  0.12491698  0.62634603  0.49968906  1
  V  V49  1  -0.00082623  0.12502495  0.12509715  1
  V  V50  1  0.24965803  0.49987917  0.75095044  1
  V  V51  1  -0.00127490  0.12697735  0.62571837  1
  V  V52  1  0.37558137  0.25055045  0.12654947  1
  V  V53  1  -0.00174048  0.62694902  0.62440151  1
  V  V54  1  0.00379995  0.87311892  0.87188560  1
  V  V55  1  0.74897405  0.12510450  0.37412615  1
  V  V56  1  0.12604639  -0.00175866  0.62669219  1
  V  V57  1  0.62498869  0.74826540  0.37400055  1
  V  V58  1  0.49991666  0.62380011  0.62557054  1
  V  V59  1  0.49672121  0.49878690  0.50014669  1
  V  V60  1  0.87397924  0.37520954  0.50018562  1
  V  V61  1  0.37451362  0.62496509  0.25160702  1
  V  V62  1  0.50091656  0.87409660  0.87606557  1
  V  V63  1  0.49894260  0.74882960  0.24959820  1
  V  V64  1  0.24864306  0.62593623  0.87517111  1
  V  V65  1  0.37616215  0.00000338  0.87533590  1
  V  V66  1  0.87585713  0.62773585  0.74862037  1
  V  V67  1  0.62532410  0.74846210  0.87505494  1
  V  V68  1  0.00030552  -0.00071629  0.00017583  1
  V  V69  1  0.87567263  0.87427337  0.00014982  1
  V  V70  1  0.75091028  0.75078615  0.50027109  1
  V  V71  1  0.24773689  0.74964858  -0.00183360  1
  V  V72  1  0.37539939  0.37544528  0.00079110  1
  V  V73  1  0.50165322  -0.00024956  0.49890275  1
  V  V74  1  0.00076818  0.75064412  0.25023047  1
  V  V75  1  0.74984981  0.37594516  0.12559930  1
  V  V76  1  0.00203672  0.62418710  0.12399852  1
  V  V77  1  -0.00050099  0.24985150  0.74998044  1
  V  V78  1  0.12521046  0.00032986  0.12503134  1
  V  V79  1  0.74965315  0.87453783  0.12527562  1
  V  V80  1  0.12455129  0.37468416  0.75090758  1
  V  V81  1  0.62436560  0.62281288  0.00029037  1
  V  V82  1  0.12433230  0.25105373  0.37471298  1
  V  V83  1  0.37470752  0.12590139  0.25052812  1
  V  V84  1  0.62733377  -0.00140231  0.62546352  1
  V  V85  1  0.24989563  0.12526627  0.37466097  1
  V  V86  1  0.74951240  0.49850734  0.24856896  1
  V  V87  1  0.50224005  0.12505057  0.12445223  1
  V  V88  1  0.75082046  -0.00030056  0.75019481  1
  V  V89  1  0.24944505  0.25069130  0.50191993  1
  V  V90  1  0.87457893  0.00013834  0.87487398  1
  V  V91  1  0.49909627  0.37398509  0.37432121  1
  V  V92  1  0.74921772  -0.00067829  0.24886614  1
  V  V93  1  0.87501818  0.00058487  0.37516836  1
  V  V94  1  0.37483592  0.62454517  0.75086657  1
  V  V95  1  -0.00084877  0.50072101  0.49977312  1
  Zn  Zn96  1  0.00279681  0.75354684  0.74486544  1
  Zn  Zn97  1  0.12961517  0.87355611  0.74895023  1
  Zn  Zn98  1  0.87528566  0.75383484  0.62362528  1
  Zn  Zn99  1  0.75165956  0.37543640  0.62402527  1
  Zn  Zn100  1  0.62323267  0.25074575  0.37310839  1
  Zn  Zn101  1  -0.00167559  0.87489446  0.37438129  1
  Zn  Zn102  1  0.25016294  0.87420188  0.62639418  1
  Zn  Zn103  1  0.00222776  0.50134826  -0.00084652  1
  Zn  Zn104  1  0.37419883  0.24927430  0.62573268  1
  Zn  Zn105  1  0.75111215  0.49936535  0.74819989  1
  Zn  Zn106  1  0.37421066  0.75030062  0.12535879  1
  Zn  Zn107  1  0.62450973  0.49815398  0.12602705  1
  Zn  Zn108  1  0.24895715  0.75105195  0.50173040  1
  Zn  Zn109  1  0.62438965  0.62439044  0.49917528  1
  Zn  Zn110  1  0.87464108  0.25275847  0.62654181  1
  Zn  Zn111  1  0.12337473  0.62382719  -0.00303613  1
  Zn  Zn112  1  0.37453755  0.37130175  0.50254806  1
  Zn  Zn113  1  0.50230277  0.25145240  0.25153601  1
  Zn  Zn114  1  0.37534680  0.00058090  0.37498829  1
  Zn  Zn115  1  0.25030144  0.12417202  0.87490241  1
  Zn  Zn116  1  0.50341981  -0.00064815  0.00147059  1
  Zn  Zn117  1  0.75018155  0.12327425  0.87695241  1
  Zn  Zn118  1  0.25002974  -0.00126416  0.74893480  1
  Zn  Zn119  1  0.62669661  0.12198104  0.00080978  1
  Zn  Zn120  1  0.49936371  0.37408558  0.87674540  1
  Zn  Zn121  1  0.12442804  0.74841414  0.86899436  1
  Zn  Zn122  1  -0.00029708  0.25037776  0.24965568  1
  Zn  Zn123  1  0.62409444  0.37462422  0.24910550  1
  Zn  Zn124  1  0.37261715  0.49879890  0.37738042  1
  Zn  Zn125  1  0.87357795  0.87564419  0.50048959  1
  Zn  Zn126  1  0.62503247  0.00057009  0.12233034  1
  Zn  Zn127  1  0.75292423  0.87436818  0.62472690  1
  Zn  Zn128  1  0.18734935  0.18819582  0.18788493  1
  Zn  Zn129  1  0.18767139  0.18520487  0.68813528  1
  Zn  Zn130  1  0.18774257  0.68785395  0.18669789  1
  Zn  Zn131  1  0.18718317  0.69065508  0.68725913  1
  Zn  Zn132  1  0.68520239  0.19150942  0.18937616  1
  Zn  Zn133  1  0.68912180  0.18547986  0.68636957  1
  Zn  Zn134  1  0.68621413  0.68599274  0.18652565  1
  Zn  Zn135  1  0.68843262  0.68594270  0.68636715  1
  Zn  Zn136  1  0.31452919  0.31285883  0.31462444  1
  Zn  Zn137  1  0.31200627  0.31201002  0.81378320  1
  Zn  Zn138  1  0.31242186  0.81154756  0.31384783  1
  Zn  Zn139  1  0.31113313  0.81463584  0.81001161  1
  Zn  Zn140  1  0.81270523  0.31235372  0.31210030  1
  Zn  Zn141  1  0.81118844  0.31240895  0.81260094  1
  Zn  Zn142  1  0.81335286  0.81381100  0.31419005  1
  Zn  Zn143  1  0.81362715  0.81242192  0.81366355  1
  Zn  Zn144  1  0.18726191  0.43801449  0.43886856  1
  Zn  Zn145  1  0.18759815  0.43727848  0.93895509  1
  Zn  Zn146  1  0.18839360  0.93683326  0.43804165  1
  Zn  Zn147  1  0.18937044  0.93818332  0.93700153  1
  Zn  Zn148  1  0.68493729  0.43702606  0.43607024  1
  Zn  Zn149  1  0.68847807  0.43727707  0.93732531  1
  Zn  Zn150  1  0.68718657  0.93619786  0.43567327  1
  Zn  Zn151  1  0.68723240  0.93784963  0.93853034  1
  Zn  Zn152  1  0.31464958  0.06283283  0.06261515  1
  Zn  Zn153  1  0.31297932  0.06227851  0.56154025  1
  Zn  Zn154  1  0.31234238  0.56397582  0.06401207  1
  Zn  Zn155  1  0.31142947  0.56320970  0.56370390  1
  Zn  Zn156  1  0.81115312  0.06254996  0.06157338  1
  Zn  Zn157  1  0.81275711  0.06463946  0.56454826  1
  Zn  Zn158  1  0.81422901  0.56091933  0.06188320  1
  Zn  Zn159  1  0.81099477  0.56417015  0.56165373  1
  Zn  Zn160  1  0.43636927  0.43994336  0.18897787  1
  Zn  Zn161  1  0.43662114  0.43492340  0.68845192  1
  Zn  Zn162  1  0.43656049  0.93937786  0.18723559  1
  Zn  Zn163  1  0.44132603  0.93684931  0.68759755  1
  Zn  Zn164  1  0.93790302  0.43723430  0.18661798  1
  Zn  Zn165  1  0.93709496  0.43876014  0.68668165  1
  Zn  Zn166  1  0.93716024  0.93735717  0.18817483  1
  Zn  Zn167  1  0.93539414  0.93768638  0.68564069  1
  Zn  Zn168  1  0.06240708  0.06381771  0.31180635  1
  Zn  Zn169  1  0.06141381  0.06231389  0.81287580  1
  Zn  Zn170  1  0.06312901  0.56291783  0.31195072  1
  Zn  Zn171  1  0.06139354  0.56368182  0.81227252  1
  Zn  Zn172  1  0.56281668  0.06225320  0.31109366  1
  Zn  Zn173  1  0.56273115  0.06128369  0.81241348  1
  Zn  Zn174  1  0.56364100  0.56038007  0.31214039  1
  Zn  Zn175  1  0.56118139  0.56100532  0.81405241  1
  Zn  Zn176  1  0.43511935  0.18869625  0.43829043  1
  Zn  Zn177  1  0.43977386  0.18840218  0.93883561  1
  Zn  Zn178  1  0.43748813  0.68648391  0.43739634  1
  Zn  Zn179  1  0.43568873  0.68720473  0.93827119  1
  Zn  Zn180  1  0.93631919  0.18806843  0.43640533  1
  Zn  Zn181  1  0.93767735  0.18742690  0.93722563  1
  Zn  Zn182  1  0.93676943  0.68760002  0.43615249  1
  Zn  Zn183  1  0.93899309  0.68749630  0.93734396  1
  Zn  Zn184  1  0.06155834  0.31282093  0.06259578  1
  Zn  Zn185  1  0.06252120  0.31333029  0.56287540  1
  Zn  Zn186  1  0.06404258  0.81214236  0.06213569  1
  Zn  Zn187  1  0.06026936  0.81323926  0.56064571  1
  Zn  Zn188  1  0.56303887  0.31269462  0.06370267  1
  Zn  Zn189  1  0.56190699  0.31095146  0.56189803  1
  Zn  Zn190  1  0.56212930  0.81033564  0.06286266  1
  Zn  Zn191  1  0.56469420  0.81219148  0.56278464  1
  O  O192  1  0.11945040  0.11966097  0.11993921  1
  O  O193  1  0.11825142  0.11793258  0.61931016  1
  O  O194  1  0.11936524  0.61850084  0.12454548  1
  O  O195  1  0.11910149  0.61951825  0.61962693  1
  O  O196  1  0.61365512  0.12606853  0.12470248  1
  O  O197  1  0.62001132  0.11822128  0.61899795  1
  O  O198  1  0.61798871  0.62332842  0.11713079  1
  O  O199  1  0.61759661  0.61366503  0.62611675  1
  O  O200  1  0.38401879  0.37883449  0.38047405  1
  O  O201  1  0.37572298  0.38117768  0.88215362  1
  O  O202  1  0.38158914  0.87548939  0.38500750  1
  O  O203  1  0.38136184  0.88254786  0.87831509  1
  O  O204  1  0.88086671  0.38108209  0.38028651  1
  O  O205  1  0.87973111  0.38003711  0.87861631  1
  O  O206  1  0.87828813  0.88534321  0.37740995  1
  O  O207  1  0.88319108  0.87991711  0.88133529  1
  O  O208  1  0.24997928  0.00764037  0.36859019  1
  O  O209  1  0.26452394  0.00177397  0.87360636  1
  O  O210  1  0.24932980  0.50689150  0.36935619  1
  O  O211  1  0.25517835  0.50475118  0.86981701  1
  O  O212  1  0.75483922  0.00582235  0.36905115  1
  O  O213  1  0.75735318  0.00023009  0.86887821  1
  O  O214  1  0.75570505  0.50469020  0.37025030  1
  O  O215  1  0.75666547  0.50641914  0.87202376  1
  O  O216  1  0.24496847  0.49447373  0.13151542  1
  O  O217  1  0.24375104  0.49529362  0.63190516  1
  O  O218  1  0.24416377  0.99525460  0.12992496  1
  O  O219  1  0.23648433  1.00077066  0.62298322  1
  O  O220  1  0.75124049  0.49367787  0.13095123  1
  O  O221  1  0.73594564  0.49897023  0.62463596  1
  O  O222  1  0.75026965  0.99188123  0.13129959  1
  O  O223  1  0.74335900  0.99976934  0.63152951  1
  O  O224  1  0.00660063  0.37442292  0.25707167  1
  O  O225  1  0.00553240  0.37005978  0.75506841  1
  O  O226  1  0.00733850  0.86901574  0.25025713  1
  O  O227  1  -0.00040316  0.87654185  0.76215796  1
  O  O228  1  0.49884368  0.37656122  0.26195979  1
  O  O229  1  0.51066390  0.36838992  0.75164012  1
  O  O230  1  0.50429556  0.86934200  0.25432207  1
  O  O231  1  0.50738726  0.86793459  0.75635201  1
  O  O232  1  0.49314109  0.12640403  0.24185658  1
  O  O233  1  0.49368037  0.12849403  0.74469521  1
  O  O234  1  0.49472609  0.62907874  0.24603845  1
  O  O235  1  0.49422554  0.62932156  0.74579559  1
  O  O236  1  0.99310853  0.12583473  0.24246869  1
  O  O237  1  0.99437899  0.13105740  0.74573455  1
  O  O238  1  0.99437655  0.63077842  0.24466890  1
  O  O239  1  0.99012960  0.62556846  0.74359110  1
  O  O240  1  0.36968495  0.25569341  0.00568889  1
  O  O241  1  0.36441533  0.24957130  0.50563081  1
  O  O242  1  0.36382000  0.75625175  0.00006344  1
  O  O243  1  0.37743266  0.75927230  0.50626224  1
  O  O244  1  0.86973386  0.25547797  0.00418424  1
  O  O245  1  0.86609486  0.25582043  0.50039058  1
  O  O246  1  0.86959271  0.75442641  0.00578205  1
  O  O247  1  0.86281703  0.75076729  0.49791887  1
  O  O248  1  0.12894679  0.24468640  0.49443110  1
  O  O249  1  0.13017805  0.24489917  0.99573747  1
  O  O250  1  0.12522259  0.74381167  0.49322078  1
  O  O251  1  0.13868082  0.75047455  0.99696937  1
  O  O252  1  0.63419676  0.24353507  0.49837903  1
  O  O253  1  0.63014597  0.25160248  0.98894081  1
  O  O254  1  0.63274211  0.74743000  0.49268819  1
  O  O255  1  0.63081705  0.74300679  0.99399177  1
  O  O256  1  0.49284375  0.24243092  0.12669821  1
  O  O257  1  0.49916774  0.24159320  0.63173966  1
  O  O258  1  0.49745770  0.74262529  0.13190505  1
  O  O259  1  0.49683414  0.74323798  0.63135974  1
  O  O260  1  0.99301500  0.24291510  0.12577529  1
  O  O261  1  1.00000203  0.24450731  0.63200424  1
  O  O262  1  0.99534449  0.74538296  0.13047078  1
  O  O263  1  0.99527868  0.74165880  0.62368918  1
  O  O264  1  0.00639358  0.25713135  0.37422259  1
  O  O265  1  0.00627918  0.25565085  0.86969137  1
  O  O266  1  0.00634907  0.75085370  0.36765348  1
  O  O267  1  0.00127097  0.76271227  0.87499541  1
  O  O268  1  0.49996681  0.26136911  0.37651743  1
  O  O269  1  0.51018855  0.25185659  0.86918616  1
  O  O270  1  0.50582209  0.75443960  0.36928527  1
  O  O271  1  0.50569946  0.75329027  0.86972455  1
  O  O272  1  0.24349240  0.12988454  0.49460171  1
  O  O273  1  0.24402799  0.13158254  0.99996400  1
  O  O274  1  0.24274399  0.62566616  0.49447403  1
  O  O275  1  0.25061096  0.63484850  0.99435151  1
  O  O276  1  0.74575744  0.13228324  0.49419989  1
  O  O277  1  0.74782134  0.13396580  0.99719767  1
  O  O278  1  0.74738171  0.63305998  0.49179978  1
  O  O279  1  0.74571744  0.62975650  0.99458767  1
  O  O280  1  0.25564021  0.36927067  0.00706567  1
  O  O281  1  0.24926413  0.36935931  0.50775911  1
  O  O282  1  0.25559514  0.86829978  0.00407871  1
  O  O283  1  0.26331116  0.87380314  0.50236275  1
  O  O284  1  0.75683689  0.36930401  0.00458195  1
  O  O285  1  0.75435181  0.36643215  0.49870578  1
  O  O286  1  0.75625464  0.86746045  0.00468996  1
  O  O287  1  0.74970386  0.86296342  0.49923774  1
  O  O288  1  0.13062675  0.49433878  0.24473680  1
  O  O289  1  0.12997600  0.49461159  0.74496938  1
  O  O290  1  0.13007728  0.99558543  0.24408379  1
  O  O291  1  0.12497169  1.00133641  0.73765832  1
  O  O292  1  0.63492478  0.49739443  0.24716898  1
  O  O293  1  0.62323105  0.49101331  0.74243583  1
  O  O294  1  0.63239162  0.99205086  0.24786111  1
  O  O295  1  0.63050708  0.99432023  0.74581478  1
  O  O296  1  0.36672387  0.00686126  0.25190242  1
  O  O297  1  0.37906671  0.00804144  0.75822625  1
  O  O298  1  0.36642107  0.50755245  0.25270063  1
  O  O299  1  0.36960650  0.50464108  0.75586369  1
  O  O300  1  0.86917708  0.00586168  0.25442509  1
  O  O301  1  0.87043830  0.00603928  0.75561436  1
  O  O302  1  0.87034015  0.50567738  0.25555911  1
  O  O303  1  0.87345391  0.51002880  0.75493220  1
  O  O304  1  0.11967683  0.37078758  0.37023088  1
  O  O305  1  0.12015304  0.36948309  0.86983236  1
  O  O306  1  0.12338226  0.86896558  0.36848668  1
  O  O307  1  0.11355696  0.87741958  0.87467716  1
  O  O308  1  0.61129930  0.37473737  0.37430022  1
  O  O309  1  0.62410484  0.36651833  0.86555678  1
  O  O310  1  0.61938284  0.86850187  0.36754056  1
  O  O311  1  0.62063943  0.86731289  0.87008219  1
  O  O312  1  0.38176764  0.13084616  0.13036508  1
  O  O313  1  0.38180383  0.12280650  0.63591412  1
  O  O314  1  0.38090256  0.62718138  0.13324515  1
  O  O315  1  0.38060730  0.62932545  0.63189650  1
  O  O316  1  0.88009570  0.12973556  0.12908895  1
  O  O317  1  0.88209519  0.12778202  0.63307124  1
  O  O318  1  0.88087518  0.63066089  0.13018301  1
  O  O319  1  0.87936957  0.62439760  0.63394456  1
  O  O320  1  0.25494118  0.25599679  0.12005660  1
  O  O321  1  0.24778729  0.25586173  0.61961613  1
  O  O322  1  0.25078455  0.75667470  0.11567526  1
  O  O323  1  0.26049774  0.75169291  0.62188075  1
  O  O324  1  0.75654514  0.25564309  0.11914099  1
  O  O325  1  0.75103840  0.25057138  0.61106428  1
  O  O326  1  0.75657414  0.75399037  0.11980666  1
  O  O327  1  0.74979919  0.74913669  0.61194215  1
  O  O328  1  0.24313467  0.24525367  0.38116576  1
  O  O329  1  0.24340826  0.24837765  0.88275954  1
  O  O330  1  0.24228603  0.74291687  0.37671560  1
  O  O331  1  0.25055549  0.74536896  0.88292734  1
  O  O332  1  0.75035574  0.24444523  0.38563452  1
  O  O333  1  0.74057519  0.24938353  0.88001454  1
  O  O334  1  0.74487928  0.74422989  0.38021195  1
  O  O335  1  0.74513078  0.74366929  0.88128915  1
  O  O336  1  0.00560581  0.11876167  0.00547067  1
  O  O337  1  0.00453996  0.11843618  0.50419233  1
  O  O338  1  0.00272539  0.62373870  0.00821715  1
  O  O339  1  0.00440937  0.61879511  0.50375656  1
  O  O340  1  0.50090644  0.12424005  0.01271129  1
  O  O341  1  0.50514857  0.11941931  0.50457368  1
  O  O342  1  0.50406573  0.62015976  0.00487126  1
  O  O343  1  0.50180360  0.61555530  0.50640107  1
  O  O344  1  0.49828724  0.38312294  0.49482408  1
  O  O345  1  0.49239938  0.38145661  1.00008371  1
  O  O346  1  0.49456925  0.87933720  0.49449496  1
  O  O347  1  0.49344195  0.87335727  0.99323409  1
  O  O348  1  0.99510442  0.38163249  0.49458865  1
  O  O349  1  0.99303260  0.37507435  0.99244302  1
  O  O350  1  0.99859686  0.89041550  0.49689823  1
  O  O351  1  0.99511408  0.88002214  0.99396059  1
  O  O352  1  0.49910903  0.49397302  0.38597067  1
  O  O353  1  0.49201911  0.49831898  0.88225617  1
  O  O354  1  0.49930896  0.99282683  0.38120840  1
  O  O355  1  0.49138135  0.99320876  0.87577115  1
  O  O356  1  0.99439185  0.49555793  0.38037604  1
  O  O357  1  0.99379922  0.49272199  0.87557084  1
  O  O358  1  0.99469872  1.00335879  0.38422548  1
  O  O359  1  0.99466288  0.99267522  0.88160755  1
  O  O360  1  0.00515825  0.00450743  0.11914337  1
  O  O361  1  0.00594782  0.00734209  0.61641470  1
  O  O362  1  0.00654731  0.50636209  0.12445081  1
  O  O363  1  0.00559853  0.50611597  0.61884904  1
  O  O364  1  0.50093727  0.01172717  0.12409226  1
  O  O365  1  0.50824834  0.00505836  0.61927227  1
  O  O366  1  0.50062447  0.50689944  0.11813544  1
  O  O367  1  0.50679702  0.50283277  0.61966522  1
  O  O368  1  0.24473226  0.38059462  0.24555296  1
  O  O369  1  0.24340101  0.38028524  0.74647842  1
  O  O370  1  0.24485283  0.88027891  0.24491550  1
  O  O371  1  0.24846764  0.88196509  0.74348260  1
  O  O372  1  0.75205695  0.38209300  0.24351346  1
  O  O373  1  0.73736009  0.37612237  0.74633899  1
  O  O374  1  0.74517720  0.87890453  0.24453237  1
  O  O375  1  0.74410989  0.88074646  0.75042857  1
  O  O376  1  0.25400285  0.12003458  0.25465487  1
  O  O377  1  0.26322927  0.12210303  0.75223982  1
  O  O378  1  0.25404179  0.62028663  0.25580644  1
  O  O379  1  0.25605223  0.61892843  0.75465012  1
  O  O380  1  0.75511009  0.11955376  0.25425055  1
  O  O381  1  0.75668430  0.11822710  0.75256623  1
  O  O382  1  0.75667547  0.61980298  0.25371553  1
  O  O383  1  0.75889433  0.62357818  0.75585125  1
  O  O384  1  0.36738349  0.12361907  0.36909160  1
  O  O385  1  0.37816255  0.11639946  0.86744433  1
  O  O386  1  0.36797720  0.62278936  0.36985920  1
  O  O387  1  0.36910041  0.61889675  0.86937102  1
  O  O388  1  0.86878527  0.12001968  0.36822916  1
  O  O389  1  0.87557486  0.11759459  0.86902260  1
  O  O390  1  0.86979996  0.61860116  0.36788105  1
  O  O391  1  0.87127650  0.62051877  0.86752619  1
  O  O392  1  0.13064443  0.37945475  0.13074367  1
  O  O393  1  0.12908100  0.38184422  0.63177871  1
  O  O394  1  0.13086320  0.88140610  0.13040700  1
  O  O395  1  0.12325160  0.88863641  0.62289108  1
  O  O396  1  0.63487713  0.37770560  0.12583717  1
  O  O397  1  0.62395812  0.38267912  0.63303137  1
  O  O398  1  0.63233637  0.87324007  0.13108847  1
  O  O399  1  0.62672384  0.88101813  0.63294116  1
  O  O400  1  0.12373164  0.25709571  0.25651368  1
  O  O401  1  0.11990992  0.25459248  0.75629991  1
  O  O402  1  0.11996937  0.75541540  0.25455204  1
  O  O403  1  0.12017485  0.75582830  0.75147803  1
  O  O404  1  0.62098550  0.25651613  0.25618315  1
  O  O405  1  0.62207210  0.25602750  0.75547387  1
  O  O406  1  0.61928997  0.75462738  0.25485070  1
  O  O407  1  0.62066796  0.75313681  0.75577022  1
  O  O408  1  0.37524379  0.24353376  0.24332047  1
  O  O409  1  0.38135541  0.23854608  0.75247851  1
  O  O410  1  0.38151640  0.74357301  0.24948622  1
  O  O411  1  0.38209444  0.74422797  0.74585410  1
  O  O412  1  0.87609748  0.24296590  0.24310851  1
  O  O413  1  0.88137125  0.24493800  0.74962501  1
  O  O414  1  0.88020609  0.74469672  0.24476408  1
  O  O415  1  0.87654993  0.73730936  0.74962358  1
  O  O416  1  0.38729115  0.49816633  0.50264481  1
  O  O417  1  0.37869552  0.49504636  0.99564504  1
  O  O418  1  0.38292506  0.99063105  0.49971161  1
  O  O419  1  0.37727144  0.99453847  0.99016093  1
  O  O420  1  0.87929703  0.49590926  0.49385666  1
  O  O421  1  0.87758004  0.49296385  0.99223603  1
  O  O422  1  0.88393087  1.00439431  0.49432102  1
  O  O423  1  0.88053104  0.99356243  0.99547800  1
  O  O424  1  0.12061687  0.00518822  0.00582597  1
  O  O425  1  0.11637189  0.00632599  0.50502953  1
  O  O426  1  0.12382661  0.50149280  0.00897749  1
  O  O427  1  0.11842583  0.50596861  0.50589249  1
  O  O428  1  0.62148114  0.00360499  0.00335553  1
  O  O429  1  0.62108621  0.00476337  0.50482118  1
  O  O430  1  0.61819681  0.50610559  -0.00028986  1
  O  O431  1  0.61480373  0.49981853  0.50980663  1
  O  O432  1  0.36873574  0.37067984  0.12062233  1
  O  O433  1  0.36576138  0.37023643  0.62616778  1
  O  O434  1  0.36798602  0.87431736  0.11813237  1
  O  O435  1  0.37977221  0.86959183  0.61535280  1
  O  O436  1  0.87067070  0.36902102  0.11896555  1
  O  O437  1  0.87189303  0.37422344  0.61684993  1
  O  O438  1  0.87028873  0.86854934  0.11983143  1
  O  O439  1  0.87054141  0.87188909  0.61946431  1
  O  O440  1  0.12999171  0.13123374  0.37970956  1
  O  O441  1  0.12636232  0.13051871  0.88209178  1
  O  O442  1  0.12950396  0.63037322  0.38014115  1
  O  O443  1  0.13308712  0.62698292  0.87668372  1
  O  O444  1  0.63182214  0.12519272  0.38164531  1
  O  O445  1  0.62614092  0.13791807  0.87409497  1
  O  O446  1  0.63182487  0.63084929  0.37510975  1
  O  O447  1  0.63035497  0.62944854  0.87971539  1
