# generated using pymatgen
data_V3Zn3O8
_symmetry_space_group_name_H-M   'P 1'
_cell_length_a   17.09166104
_cell_length_b   17.09151448
_cell_length_c   17.09033107
_cell_angle_alpha   90.00671313
_cell_angle_beta   89.99424537
_cell_angle_gamma   90.02112379
_symmetry_Int_Tables_number   1
_chemical_formula_structural   V3Zn3O8
_chemical_formula_sum   'V96 Zn96 O256'
_cell_volume   4992.46765614
_cell_formula_units_Z   32
loop_
 _symmetry_equiv_pos_site_id
 _symmetry_equiv_pos_as_xyz
  1  'x, y, z'
loop_
 _atom_site_type_symbol
 _atom_site_label
 _atom_site_symmetry_multiplicity
 _atom_site_fract_x
 _atom_site_fract_y
 _atom_site_fract_z
 _atom_site_occupancy
  V  V0  1  -0.00063604  0.74921051  0.74997770  1
  V  V1  1  0.50041174  -0.00005106  -0.00003152  1
  V  V2  1  0.12524795  -0.00071062  0.12577070  1
  V  V3  1  0.24955332  0.12508627  0.37550537  1
  V  V4  1  0.12511677  -0.00011977  0.62620632  1
  V  V5  1  0.37574014  0.12528038  0.25074851  1
  V  V6  1  0.37432464  0.62450802  0.75046835  1
  V  V7  1  0.50019201  0.75098114  0.75033187  1
  V  V8  1  0.62409422  0.00164886  0.62433268  1
  V  V9  1  0.37436835  0.00018658  0.37512670  1
  V  V10  1  0.87547846  0.12433465  0.74943881  1
  V  V11  1  0.62462312  0.75029987  0.87409354  1
  V  V12  1  0.62450653  0.87613722  0.24965419  1
  V  V13  1  0.12364324  0.62535076  0.49938591  1
  V  V14  1  0.75078646  0.12483143  0.87454648  1
  V  V15  1  0.62516656  0.37526705  0.75010780  1
  V  V16  1  0.00049289  0.12391656  0.12632821  1
  V  V17  1  0.24904002  0.75053919  0.50071961  1
  V  V18  1  0.00013629  -0.00194242  0.00012047  1
  V  V19  1  -0.00038896  0.62348871  0.12346534  1
  V  V20  1  0.49936421  0.87592369  0.37428078  1
  V  V21  1  0.49852308  0.75049717  0.24958170  1
  V  V22  1  0.50013275  0.25105997  0.25131268  1
  V  V23  1  0.62619796  0.24981096  0.87477913  1
  V  V24  1  -0.00065101  0.50028860  0.50019624  1
  V  V25  1  0.74990223  0.12476412  0.37450579  1
  V  V26  1  0.37587068  0.12493074  0.75030536  1
  V  V27  1  0.87598346  0.25007972  0.12388534  1
  V  V28  1  0.62389705  0.62693118  0.49959297  1
  V  V29  1  -0.00183306  0.87524443  0.37519387  1
  V  V30  1  0.00073868  0.24950213  0.24958303  1
  V  V31  1  0.75040975  0.50121967  0.75063714  1
  V  V32  1  0.74974638  0.37601016  0.62475977  1
  V  V33  1  -0.00139919  0.62552791  0.62462660  1
  V  V34  1  0.25210661  0.12402106  0.87482179  1
  V  V35  1  0.50008773  0.62438279  0.12476784  1
  V  V36  1  -0.00080972  0.74848630  0.24853104  1
  V  V37  1  0.37462737  0.37566234  0.50047821  1
  V  V38  1  0.49903783  0.50085927  0.50040884  1
  V  V39  1  -0.00013295  0.12487276  0.62441469  1
  V  V40  1  0.12348626  0.74940473  0.37467149  1
  V  V41  1  0.62451469  0.50114837  0.62574932  1
  V  V42  1  0.74978834  -0.00040257  0.74896443  1
  V  V43  1  0.37633905  0.25046173  0.12525608  1
  V  V44  1  0.62459932  0.25210254  0.37504479  1
  V  V45  1  0.87495665  0.25033992  0.62574310  1
  V  V46  1  0.12602404  0.49855404  0.12397064  1
  V  V47  1  0.12458775  0.12515429  0.50077296  1
  V  V48  1  0.74960524  0.62512307  0.37335983  1
  V  V49  1  0.62530768  0.00043970  0.12435740  1
  V  V50  1  0.12533748  0.25005124  0.87450419  1
  V  V51  1  0.62501412  0.87540957  0.74963628  1
  V  V52  1  0.24947982  0.62481471  0.37427483  1
  V  V53  1  0.87637020  -0.00080306  0.87535030  1
  V  V54  1  0.62588171  0.12383186  0.00007362  1
  V  V55  1  0.24865848  0.37663747  0.62592141  1
  V  V56  1  0.50017867  0.37548852  0.37505178  1
  V  V57  1  0.75139124  0.87433775  0.12500442  1
  V  V58  1  0.12578115  0.87566127  0.74979323  1
  V  V59  1  0.25146921  0.24933296  0.00155059  1
  V  V60  1  0.87641028  0.49874718  0.87445173  1
  V  V61  1  0.50126879  0.50054073  0.00064372  1
  V  V62  1  0.75077768  0.74935677  -0.00089205  1
  V  V63  1  -0.00082455  0.37498296  0.37524887  1
  V  V64  1  0.37379921  0.75071157  0.62507296  1
  V  V65  1  0.25020636  0.25042846  0.50051707  1
  V  V66  1  0.12405277  0.74783031  0.87580469  1
  V  V67  1  0.87339489  0.75260905  0.62323059  1
  V  V68  1  0.37512416  -0.00019585  0.87534037  1
  V  V69  1  0.49984692  0.24995648  0.75006100  1
  V  V70  1  0.24958665  -0.00059906  0.24955430  1
  V  V71  1  0.37393509  0.49981554  0.87491657  1
  V  V72  1  0.37423744  0.62524052  0.25063343  1
  V  V73  1  0.50108857  0.37538701  0.87635713  1
  V  V74  1  0.12575665  0.37528593  0.24999392  1
  V  V75  1  0.49934892  0.00154754  0.50055323  1
  V  V76  1  0.37580018  0.87500756  -0.00044712  1
  V  V77  1  0.74942958  0.25082882  0.49961222  1
  V  V78  1  0.37521784  0.25040569  0.62607066  1
  V  V79  1  0.12494400  0.49951299  0.62577442  1
  V  V80  1  0.75205789  0.24938533  0.00011299  1
  V  V81  1  0.75009941  0.37622155  0.12535458  1
  V  V82  1  0.87360186  0.50095263  0.37385982  1
  V  V83  1  0.62401327  0.75058654  0.37551558  1
  V  V84  1  0.37331729  0.87495491  0.50036064  1
  V  V85  1  0.00185414  0.24944278  0.75114564  1
  V  V86  1  0.87472306  0.37592494  0.50071053  1
  V  V87  1  0.12493893  0.87476438  0.25005640  1
  V  V88  1  0.12467508  0.25032299  0.37549996  1
  V  V89  1  0.62444541  0.62542403  0.00046426  1
  V  V90  1  0.37425932  0.75024014  0.12421681  1
  V  V91  1  0.87453969  0.12477685  0.25126805  1
  V  V92  1  -0.00127228  -0.00083048  0.49830024  1
  V  V93  1  0.24951296  0.74860089  -0.00062191  1
  V  V94  1  0.49942488  0.62589603  0.62519429  1
  V  V95  1  0.37440433  0.50143604  0.37504092  1
  Zn  Zn96  1  0.75092163  0.62462665  0.87411741  1
  Zn  Zn97  1  0.25006457  0.87631455  0.62506986  1
  Zn  Zn98  1  0.87330230  -0.00234153  0.37474558  1
  Zn  Zn99  1  0.12531020  0.62119326  -0.00206792  1
  Zn  Zn100  1  0.87324903  0.62399983  0.24764320  1
  Zn  Zn101  1  0.75059016  -0.00020684  0.25058878  1
  Zn  Zn102  1  0.87260867  0.62626563  0.75036538  1
  Zn  Zn103  1  0.49922334  0.12704111  0.62333574  1
  Zn  Zn104  1  0.24761647  0.49957551  0.75126571  1
  Zn  Zn105  1  0.25008030  0.87505613  0.12553554  1
  Zn  Zn106  1  0.74863083  0.49978051  0.24791788  1
  Zn  Zn107  1  0.25079886  0.49882416  0.24940118  1
  Zn  Zn108  1  -0.00184102  0.87318004  0.87684911  1
  Zn  Zn109  1  0.62573041  0.49943387  0.12611667  1
  Zn  Zn110  1  0.24879810  0.62233771  0.87347468  1
  Zn  Zn111  1  0.87591207  0.74800540  0.12420701  1
  Zn  Zn112  1  0.62498065  0.37768587  0.24940531  1
  Zn  Zn113  1  0.49964360  0.87538041  0.87439336  1
  Zn  Zn114  1  0.12517648  0.37671445  0.75056282  1
  Zn  Zn115  1  0.87580081  0.87256080  -0.00099133  1
  Zn  Zn116  1  0.87886739  0.37408970  -0.00148580  1
  Zn  Zn117  1  0.12636666  0.12318636  0.00111399  1
  Zn  Zn118  1  0.00046813  0.37506621  0.87529817  1
  Zn  Zn119  1  0.25109096  0.37585449  0.12724264  1
  Zn  Zn120  1  0.75098842  0.87596168  0.62137962  1
  Zn  Zn121  1  0.50293834  0.12549351  0.12624523  1
  Zn  Zn122  1  0.00158941  0.49639218  -0.00309942  1
  Zn  Zn123  1  0.62287632  0.12676267  0.50007406  1
  Zn  Zn124  1  0.25163355  -0.00060880  0.74946564  1
  Zn  Zn125  1  0.87160342  0.87714434  0.49736795  1
  Zn  Zn126  1  0.37707567  0.37550388  0.00178230  1
  Zn  Zn127  1  0.74960542  0.75424231  0.49962087  1
  Zn  Zn128  1  0.18740557  0.18615456  0.18760909  1
  Zn  Zn129  1  0.18951884  0.18708475  0.68877973  1
  Zn  Zn130  1  0.18673368  0.68602988  0.18695678  1
  Zn  Zn131  1  0.18871088  0.68546826  0.68804315  1
  Zn  Zn132  1  0.68706236  0.19006866  0.18840923  1
  Zn  Zn133  1  0.68766792  0.18673683  0.68744083  1
  Zn  Zn134  1  0.68543522  0.68801030  0.18774144  1
  Zn  Zn135  1  0.68900186  0.68761277  0.68798266  1
  Zn  Zn136  1  0.31207297  0.31375753  0.31232165  1
  Zn  Zn137  1  0.31176301  0.31420065  0.81183839  1
  Zn  Zn138  1  0.31097125  0.81246092  0.31310668  1
  Zn  Zn139  1  0.31171498  0.81279143  0.81348551  1
  Zn  Zn140  1  0.81291956  0.31236712  0.31052072  1
  Zn  Zn141  1  0.81331617  0.31382134  0.81193913  1
  Zn  Zn142  1  0.81429942  0.80983478  0.31049221  1
  Zn  Zn143  1  0.81264969  0.81488899  0.81146711  1
  Zn  Zn144  1  0.18741186  0.43838894  0.43809887  1
  Zn  Zn145  1  0.18975604  0.43361201  0.94050678  1
  Zn  Zn146  1  0.18573633  0.93701507  0.43756942  1
  Zn  Zn147  1  0.18808538  0.93568642  0.93748565  1
  Zn  Zn148  1  0.68644437  0.43915654  0.43762379  1
  Zn  Zn149  1  0.69001143  0.43781497  0.93945000  1
  Zn  Zn150  1  0.68740632  0.93779379  0.43929895  1
  Zn  Zn151  1  0.68709956  0.93637963  0.93620486  1
  Zn  Zn152  1  0.31367618  0.06335227  0.06331649  1
  Zn  Zn153  1  0.31135222  0.06243807  0.56496102  1
  Zn  Zn154  1  0.31212271  0.56328779  0.06170424  1
  Zn  Zn155  1  0.31092280  0.56345726  0.56279714  1
  Zn  Zn156  1  0.81384812  0.06182121  0.06278434  1
  Zn  Zn157  1  0.81223265  0.06218729  0.56040006  1
  Zn  Zn158  1  0.81445606  0.56088408  0.05927181  1
  Zn  Zn159  1  0.81175174  0.56562930  0.56150257  1
  Zn  Zn160  1  0.43797613  0.43769672  0.18848101  1
  Zn  Zn161  1  0.43712542  0.43705337  0.68887500  1
  Zn  Zn162  1  0.43735792  0.93785113  0.18540809  1
  Zn  Zn163  1  0.43827296  0.93751310  0.68780273  1
  Zn  Zn164  1  0.93620837  0.43813999  0.18812044  1
  Zn  Zn165  1  0.93932765  0.43640233  0.69089825  1
  Zn  Zn166  1  0.93553091  0.93766755  0.18948452  1
  Zn  Zn167  1  0.93933144  0.93603280  0.68733939  1
  Zn  Zn168  1  0.06217152  0.06147334  0.31297733  1
  Zn  Zn169  1  0.06359250  0.06349227  0.81394059  1
  Zn  Zn170  1  0.06166945  0.56158313  0.30998839  1
  Zn  Zn171  1  0.06044161  0.56295198  0.80958946  1
  Zn  Zn172  1  0.56377985  0.06348025  0.31202712  1
  Zn  Zn173  1  0.56089579  0.06254895  0.81269303  1
  Zn  Zn174  1  0.56391449  0.56077434  0.30985166  1
  Zn  Zn175  1  0.56258510  0.56423520  0.81399364  1
  Zn  Zn176  1  0.43777182  0.18739737  0.43816275  1
  Zn  Zn177  1  0.43940134  0.18585943  0.93791499  1
  Zn  Zn178  1  0.43699830  0.68856678  0.43766059  1
  Zn  Zn179  1  0.43829409  0.68693465  0.93645613  1
  Zn  Zn180  1  0.93618197  0.18769309  0.43795762  1
  Zn  Zn181  1  0.93898479  0.18470242  0.93869301  1
  Zn  Zn182  1  0.93579644  0.68873303  0.43774699  1
  Zn  Zn183  1  0.93705343  0.68262228  0.93815624  1
  Zn  Zn184  1  0.06220231  0.31422441  0.06018694  1
  Zn  Zn185  1  0.06226300  0.31314937  0.56343612  1
  Zn  Zn186  1  0.06376294  0.81274829  0.06409595  1
  Zn  Zn187  1  0.06036148  0.81366015  0.56257309  1
  Zn  Zn188  1  0.56407503  0.31251883  0.06223273  1
  Zn  Zn189  1  0.56235774  0.31320657  0.56197468  1
  Zn  Zn190  1  0.56251849  0.81296849  0.06177046  1
  Zn  Zn191  1  0.56139338  0.81471538  0.56253537  1
  O  O192  1  0.11799832  0.11744412  0.12487484  1
  O  O193  1  0.11963205  0.12103975  0.61994660  1
  O  O194  1  0.11747198  0.61508217  0.12492902  1
  O  O195  1  0.11873369  0.62053802  0.61820010  1
  O  O196  1  0.62630635  0.11908134  0.11824081  1
  O  O197  1  0.62300258  0.11364691  0.62425986  1
  O  O198  1  0.61691720  0.62540023  0.11825155  1
  O  O199  1  0.61847057  0.62035352  0.61997301  1
  O  O200  1  0.37982501  0.38078718  0.38153696  1
  O  O201  1  0.38219223  0.38407800  0.87567504  1
  O  O202  1  0.37987998  0.88066672  0.37988252  1
  O  O203  1  0.37620033  0.88145303  0.88161997  1
  O  O204  1  0.87992105  0.37938174  0.38127067  1
  O  O205  1  0.87611712  0.38509887  0.87485077  1
  O  O206  1  0.88313194  0.87632778  0.37503036  1
  O  O207  1  0.87831365  0.88363425  0.87768780  1
  O  O208  1  0.25462717  0.00583991  0.37015899  1
  O  O209  1  0.25654539  0.00652881  0.87516104  1
  O  O210  1  0.25654114  0.50741335  0.37541134  1
  O  O211  1  0.26196588  0.49967851  0.87608269  1
  O  O212  1  0.74939837  0.01348296  0.37392555  1
  O  O213  1  0.75535681  0.00593590  0.86945768  1
  O  O214  1  0.75454328  0.51004757  0.37600574  1
  O  O215  1  0.75789629  0.50008860  0.86858905  1
  O  O216  1  0.23992207  0.49884585  0.12653389  1
  O  O217  1  0.24292593  0.49409534  0.62365817  1
  O  O218  1  0.24434642  0.99949462  0.13181705  1
  O  O219  1  0.24091517  0.99718122  0.62830604  1
  O  O220  1  0.75068511  0.48819434  0.12341720  1
  O  O221  1  0.74394272  0.49529513  0.62886078  1
  O  O222  1  0.74404374  0.98958286  0.12407626  1
  O  O223  1  0.74035575  1.00154075  0.63049017  1
  O  O224  1  0.00520123  0.36845210  0.25629543  1
  O  O225  1  0.00449370  0.36399444  0.75314120  1
  O  O226  1  0.00601221  0.86893077  0.25428817  1
  O  O227  1  0.01159665  0.86881388  0.75233611  1
  O  O228  1  0.49956620  0.36828685  0.25826394  1
  O  O229  1  0.50648021  0.36981430  0.75594162  1
  O  O230  1  0.50396827  0.87014032  0.25502282  1
  O  O231  1  0.50671341  0.86789387  0.75120622  1
  O  O232  1  0.49306353  0.13239049  0.25005471  1
  O  O233  1  0.49375801  0.13321022  0.74886283  1
  O  O234  1  0.49383154  0.63171992  0.24547088  1
  O  O235  1  0.49503444  0.63089719  0.74356677  1
  O  O236  1  0.99541202  0.13069477  0.24607762  1
  O  O237  1  0.99465917  0.12911973  0.74352303  1
  O  O238  1  1.00038501  0.63048503  0.24008312  1
  O  O239  1  0.99780637  0.63311366  0.74106190  1
  O  O240  1  0.36907726  0.24840631  0.00866692  1
  O  O241  1  0.36942576  0.25607382  0.50510877  1
  O  O242  1  0.36789474  0.75384434  0.00358139  1
  O  O243  1  0.36959339  0.75530450  0.50488831  1
  O  O244  1  0.86894686  0.24755520  0.00645302  1
  O  O245  1  0.87002139  0.25664721  0.50641685  1
  O  O246  1  0.86331187  0.75071183  0.00169111  1
  O  O247  1  0.87470614  0.75237234  0.51171209  1
  O  O248  1  0.12997538  0.24478785  0.49497115  1
  O  O249  1  0.13507117  0.24657720  0.99343187  1
  O  O250  1  0.12847446  0.74446315  0.49436597  1
  O  O251  1  0.13292617  0.75149965  0.99145492  1
  O  O252  1  0.63167101  0.24949156  0.49444297  1
  O  O253  1  0.63143389  0.24354610  0.99345449  1
  O  O254  1  0.62273628  0.74411262  0.49312753  1
  O  O255  1  0.63202063  0.74595756  0.99470545  1
  O  O256  1  0.49140436  0.24894004  0.13043391  1
  O  O257  1  0.49338363  0.25115942  0.63183339  1
  O  O258  1  0.49400715  0.74499480  0.13013483  1
  O  O259  1  0.49397055  0.74474987  0.62990762  1
  O  O260  1  0.99658120  0.24381525  0.13040844  1
  O  O261  1  0.99441768  0.24403452  0.62957022  1
  O  O262  1  1.00181898  0.73977903  0.12924342  1
  O  O263  1  0.99306798  0.74507393  0.62953584  1
  O  O264  1  0.00522686  0.25527418  0.37047671  1
  O  O265  1  0.01107154  0.24506431  0.87011971  1
  O  O266  1  0.00560676  0.75385472  0.36924335  1
  O  O267  1  0.00884852  0.75007097  0.87108877  1
  O  O268  1  0.50387555  0.25634103  0.37145537  1
  O  O269  1  0.50666012  0.25532362  0.87025834  1
  O  O270  1  0.50366593  0.75626671  0.36912076  1
  O  O271  1  0.50641436  0.75121731  0.86780040  1
  O  O272  1  0.24442265  0.13083273  0.49485624  1
  O  O273  1  0.25044347  0.13491215  0.99453062  1
  O  O274  1  0.24351968  0.63120032  0.49412506  1
  O  O275  1  0.24805899  0.63777513  0.99686229  1
  O  O276  1  0.74932362  0.13273779  0.49027268  1
  O  O277  1  0.74552362  0.12920426  0.99371826  1
  O  O278  1  0.74203367  0.62740108  0.48944686  1
  O  O279  1  0.74375227  0.63608894  1.00102501  1
  O  O280  1  0.25524779  0.35980423  0.00382726  1
  O  O281  1  0.25567029  0.36925017  0.50451452  1
  O  O282  1  0.25603991  0.86368447  0.00141908  1
  O  O283  1  0.25556241  0.86804174  0.49971814  1
  O  O284  1  0.75276316  0.36663276  0.00852123  1
  O  O285  1  0.75536524  0.37104633  0.50570923  1
  O  O286  1  0.74808814  0.86582716  0.00864272  1
  O  O287  1  0.75334269  0.87172177  0.50325137  1
  O  O288  1  0.12623511  0.49359532  0.24119665  1
  O  O289  1  0.12692086  0.49800652  0.74152317  1
  O  O290  1  0.13021916  0.99471998  0.24571886  1
  O  O291  1  0.12452473  0.99092332  0.74605620  1
  O  O292  1  0.62930594  0.49551931  0.24451747  1
  O  O293  1  0.62874764  0.49460008  0.74488777  1
  O  O294  1  0.62699007  0.99354560  0.24333307  1
  O  O295  1  0.62909726  0.99653626  0.74286445  1
  O  O296  1  0.37010514  0.00483775  0.25570949  1
  O  O297  1  0.37452652  0.00592265  0.75676106  1
  O  O298  1  0.37411832  0.50747206  0.25720156  1
  O  O299  1  0.37637581  0.50528586  0.76018616  1
  O  O300  1  0.87096945  0.00929048  0.25323069  1
  O  O301  1  0.87095208  0.00559469  0.75412234  1
  O  O302  1  0.87146599  0.50290664  0.25937110  1
  O  O303  1  0.86836430  0.50033822  0.75668732  1
  O  O304  1  0.11855928  0.36965228  0.37165412  1
  O  O305  1  0.12730734  0.35952867  0.87406662  1
  O  O306  1  0.11889436  0.86854912  0.36928794  1
  O  O307  1  0.12342708  0.86486737  0.86708788  1
  O  O308  1  0.61757114  0.36962192  0.37579930  1
  O  O309  1  0.62134091  0.36930332  0.86941601  1
  O  O310  1  0.61836662  0.87103667  0.36933721  1
  O  O311  1  0.62320072  0.86857103  0.86735680  1
  O  O312  1  0.37717875  0.13526020  0.13202726  1
  O  O313  1  0.37559409  0.13295191  0.63158521  1
  O  O314  1  0.38022474  0.63111292  0.13060162  1
  O  O315  1  0.38081711  0.63050294  0.62944167  1
  O  O316  1  0.88032198  0.13022225  0.13147210  1
  O  O317  1  0.87988767  0.13098494  0.62990788  1
  O  O318  1  0.88738035  0.62376498  0.12570081  1
  O  O319  1  0.88082881  0.63456227  0.62526342  1
  O  O320  1  0.25861768  0.24770807  0.11793447  1
  O  O321  1  0.25532924  0.25552725  0.61890027  1
  O  O322  1  0.25487218  0.75008397  0.11538957  1
  O  O323  1  0.25600120  0.75091453  0.61779709  1
  O  O324  1  0.75623415  0.25595197  0.11963142  1
  O  O325  1  0.75520510  0.25587642  0.62051498  1
  O  O326  1  0.74782531  0.75817308  0.11625529  1
  O  O327  1  0.76070786  0.75120829  0.62374107  1
  O  O328  1  0.24467559  0.24480458  0.38107436  1
  O  O329  1  0.24587837  0.24475360  0.88284756  1
  O  O330  1  0.24341421  0.74428234  0.38071338  1
  O  O331  1  0.24164132  0.74881192  0.88319673  1
  O  O332  1  0.74557432  0.24443755  0.38006834  1
  O  O333  1  0.74547972  0.24419039  0.87883996  1
  O  O334  1  0.74266684  0.74070115  0.37500375  1
  O  O335  1  0.74440001  0.75059832  0.88458907  1
  O  O336  1  0.00196769  0.11338513  0.00753150  1
  O  O337  1  0.00574502  0.12128774  0.50510115  1
  O  O338  1  0.00476003  0.62154874  0.01150514  1
  O  O339  1  0.00507738  0.61940081  0.50408648  1
  O  O340  1  0.50862259  0.11854650  0.00186341  1
  O  O341  1  0.50191090  0.11746297  0.50221066  1
  O  O342  1  0.50471776  0.62091068  0.00587778  1
  O  O343  1  0.50380854  0.62008714  0.50548990  1
  O  O344  1  0.49362935  0.38160435  0.49550274  1
  O  O345  1  0.49956669  0.38103368  0.99331026  1
  O  O346  1  0.49298707  0.88119127  0.49319332  1
  O  O347  1  0.49368739  0.88129044  0.99836016  1
  O  O348  1  0.99394815  0.37994152  0.49487563  1
  O  O349  1  0.99642989  0.37750610  0.99373727  1
  O  O350  1  1.00042512  0.88213145  0.49223761  1
  O  O351  1  0.99836137  0.88654677  1.00079593  1
  O  O352  1  0.49399487  0.49616956  0.38145753  1
  O  O353  1  0.49295409  0.49538249  0.88019550  1
  O  O354  1  0.49399061  0.99505836  0.37935513  1
  O  O355  1  0.49343731  0.99870765  0.88230256  1
  O  O356  1  0.99480140  0.49447946  0.38082458  1
  O  O357  1  0.99028731  0.49850372  0.87351421  1
  O  O358  1  0.99996578  0.99357930  0.38099293  1
  O  O359  1  0.99600090  1.00079174  0.88514871  1
  O  O360  1  0.00453212  0.00396069  0.11882347  1
  O  O361  1  0.00560074  0.00660991  0.61950882  1
  O  O362  1  0.00950823  0.50671875  0.12565143  1
  O  O363  1  0.00394625  0.50483777  0.61881798  1
  O  O364  1  0.50718431  0.00210455  0.11843557  1
  O  O365  1  0.50873424  0.00171798  0.61972915  1
  O  O366  1  0.49889631  0.50684561  0.11789467  1
  O  O367  1  0.50469646  0.50550812  0.62022680  1
  O  O368  1  0.24164379  0.37723894  0.24843040  1
  O  O369  1  0.24728942  0.37763605  0.74094972  1
  O  O370  1  0.24329464  0.88164381  0.25010440  1
  O  O371  1  0.23687470  0.87554947  0.74867855  1
  O  O372  1  0.74914334  0.37417914  0.23768583  1
  O  O373  1  0.74359690  0.37997291  0.74309721  1
  O  O374  1  0.74307712  0.87388563  0.24030289  1
  O  O375  1  0.74262591  0.88314261  0.74643066  1
  O  O376  1  0.25542083  0.11955607  0.25688229  1
  O  O377  1  0.25837975  0.12387842  0.75736852  1
  O  O378  1  0.25669319  0.62470682  0.25714734  1
  O  O379  1  0.25893359  0.62117079  0.75287998  1
  O  O380  1  0.75537499  0.12735133  0.25985707  1
  O  O381  1  0.75616734  0.11990796  0.75530552  1
  O  O382  1  0.74979956  0.62448412  0.26202702  1
  O  O383  1  0.75107931  0.61597166  0.75239511  1
  O  O384  1  0.36854202  0.11983515  0.37056473  1
  O  O385  1  0.37102246  0.12000120  0.87005777  1
  O  O386  1  0.36983305  0.62112458  0.37057180  1
  O  O387  1  0.37616855  0.61453412  0.86948099  1
  O  O388  1  0.86476041  0.12760333  0.36961904  1
  O  O389  1  0.86996150  0.11939612  0.86852394  1
  O  O390  1  0.86441476  0.62016970  0.37594866  1
  O  O391  1  0.87190948  0.61392279  0.87123224  1
  O  O392  1  0.12536950  0.38316634  0.13133843  1
  O  O393  1  0.13117545  0.38154895  0.62376127  1
  O  O394  1  0.12751564  0.88136408  0.13290604  1
  O  O395  1  0.12463324  0.88000513  0.63465745  1
  O  O396  1  0.63763171  0.37459572  0.12534836  1
  O  O397  1  0.62992925  0.38163128  0.63001370  1
  O  O398  1  0.63258895  0.87936186  0.12971438  1
  O  O399  1  0.62447253  0.88697417  0.63039801  1
  O  O400  1  0.11988882  0.25420089  0.25626903  1
  O  O401  1  0.12072292  0.24834145  0.75954457  1
  O  O402  1  0.12006159  0.75475491  0.25566070  1
  O  O403  1  0.12096607  0.75610603  0.75691700  1
  O  O404  1  0.61727950  0.25296399  0.25726168  1
  O  O405  1  0.62094429  0.25559641  0.75511393  1
  O  O406  1  0.61709037  0.75628416  0.25556141  1
  O  O407  1  0.61981068  0.75508503  0.75357886  1
  O  O408  1  0.37895174  0.24496223  0.24390392  1
  O  O409  1  0.38069338  0.24585234  0.74574660  1
  O  O410  1  0.37944232  0.74562949  0.24514785  1
  O  O411  1  0.37989563  0.74527530  0.74516874  1
  O  O412  1  0.88258729  0.24469725  0.24423896  1
  O  O413  1  0.88007683  0.24350739  0.74468836  1
  O  O414  1  0.88386285  0.74503418  0.24468281  1
  O  O415  1  0.88104192  0.75014983  0.74138059  1
  O  O416  1  0.38034062  0.49574148  0.49532336  1
  O  O417  1  0.38127329  0.49931773  0.99100341  1
  O  O418  1  0.37828008  0.99512266  0.49431059  1
  O  O419  1  0.38015998  0.99530476  0.99594451  1
  O  O420  1  0.88019357  0.49467268  0.49527521  1
  O  O421  1  0.87658167  0.49761923  0.98627287  1
  O  O422  1  0.88407738  0.99932631  0.49674862  1
  O  O423  1  0.88461836  0.99957417  0.99464663  1
  O  O424  1  0.11684519  0.00001710  0.00556153  1
  O  O425  1  0.11957402  0.00658129  0.50539916  1
  O  O426  1  0.12533430  0.50004293  0.01044287  1
  O  O427  1  0.11802357  0.50601867  0.50440754  1
  O  O428  1  0.62068387  0.00466544  0.00415469  1
  O  O429  1  0.61832091  0.00135797  0.50941594  1
  O  O430  1  0.61869325  0.50752811  0.00086831  1
  O  O431  1  0.61814589  0.50631672  0.50629849  1
  O  O432  1  0.37334609  0.36199601  0.12486775  1
  O  O433  1  0.36981784  0.37057605  0.61930721  1
  O  O434  1  0.37266599  0.86767076  0.11850999  1
  O  O435  1  0.37357147  0.86869355  0.61831663  1
  O  O436  1  0.86747060  0.36771360  0.12379592  1
  O  O437  1  0.86942891  0.36994535  0.62023756  1
  O  O438  1  0.86220160  0.87325561  0.12309818  1
  O  O439  1  0.87542643  0.86435167  0.62369866  1
  O  O440  1  0.13016960  0.13091837  0.38060618  1
  O  O441  1  0.13280643  0.13452415  0.87703555  1
  O  O442  1  0.12878894  0.62968655  0.37997245  1
  O  O443  1  0.12635494  0.63680214  0.87537706  1
  O  O444  1  0.63457443  0.13248536  0.37585888  1
  O  O445  1  0.63180169  0.13019872  0.87925242  1
  O  O446  1  0.63047702  0.63016412  0.37965302  1
  O  O447  1  0.62690098  0.63249628  0.88238080  1
