# generated using pymatgen
data_V3Zn3O8
_symmetry_space_group_name_H-M   'P 1'
_cell_length_a   17.08990212
_cell_length_b   17.08980488
_cell_length_c   17.08971838
_cell_angle_alpha   89.99926660
_cell_angle_beta   89.98588212
_cell_angle_gamma   90.00948010
_symmetry_Int_Tables_number   1
_chemical_formula_structural   V3Zn3O8
_chemical_formula_sum   'V96 Zn96 O256'
_cell_volume   4991.27578089
_cell_formula_units_Z   32
loop_
 _symmetry_equiv_pos_site_id
 _symmetry_equiv_pos_as_xyz
  1  'x, y, z'
loop_
 _atom_site_type_symbol
 _atom_site_label
 _atom_site_symmetry_multiplicity
 _atom_site_fract_x
 _atom_site_fract_y
 _atom_site_fract_z
 _atom_site_occupancy
  V  V0  1  0.75067729  0.24868067  0.00066559  1
  V  V1  1  -0.00028158  0.37563174  0.37539337  1
  V  V2  1  0.37390070  0.00034275  0.37408630  1
  V  V3  1  0.00074434  0.00075999  0.00058554  1
  V  V4  1  0.87478043  -0.00033530  0.37551306  1
  V  V5  1  0.74899164  0.75020617  0.50032587  1
  V  V6  1  0.62475483  0.25118607  0.37502783  1
  V  V7  1  0.87596632  0.24909444  0.12610206  1
  V  V8  1  0.87620413  0.37378187  0.00042615  1
  V  V9  1  0.12329549  0.00095591  0.62397940  1
  V  V10  1  0.50030543  0.62441993  0.12583978  1
  V  V11  1  0.00015957  0.25049982  0.74999369  1
  V  V12  1  -0.00063110  0.62559665  0.62469736  1
  V  V13  1  0.24919504  0.00113246  0.74860261  1
  V  V14  1  0.25186749  0.24958000  -0.00023373  1
  V  V15  1  0.62521835  0.50147169  0.62741973  1
  V  V16  1  0.12604272  0.25035439  0.87473772  1
  V  V17  1  0.62618016  0.37474963  0.25030560  1
  V  V18  1  0.24908719  0.00023032  0.25009470  1
  V  V19  1  -0.00026529  0.49969401  0.49921685  1
  V  V20  1  0.87546743  0.37580983  0.49980975  1
  V  V21  1  0.87453614  0.25072501  0.62555473  1
  V  V22  1  0.62498210  -0.00133743  0.12553947  1
  V  V23  1  0.49863600  0.87463851  0.37412482  1
  V  V24  1  0.74902285  0.37585444  0.62601685  1
  V  V25  1  0.00005916  0.87531415  0.87497901  1
  V  V26  1  0.62393755  0.75111789  0.87241141  1
  V  V27  1  -0.00022668  0.24992149  0.25026399  1
  V  V28  1  -0.00034279  0.12533874  0.62469343  1
  V  V29  1  0.24990904  0.62447586  0.37295806  1
  V  V30  1  0.75119183  0.74941190  0.00154950  1
  V  V31  1  0.12482432  0.12376918  -0.00006012  1
  V  V32  1  0.49934142  0.00138571  0.49936174  1
  V  V33  1  0.37600274  0.37675006  0.49980599  1
  V  V34  1  0.50269792  0.49884178  0.00003066  1
  V  V35  1  0.37521825  0.25077845  0.62513181  1
  V  V36  1  0.12601241  0.50036655  0.62521746  1
  V  V37  1  -0.00141147  0.00062917  0.50006291  1
  V  V38  1  0.87443831  0.87587575  0.50030639  1
  V  V39  1  0.37576713  0.37341764  -0.00022681  1
  V  V40  1  0.74929594  -0.00109773  0.25002140  1
  V  V41  1  0.87440555  0.74932841  0.62562243  1
  V  V42  1  0.37446223  0.87291127  -0.00029653  1
  V  V43  1  0.25241061  0.50010060  0.24959396  1
  V  V44  1  -0.00038719  0.74982609  0.24955182  1
  V  V45  1  0.24806224  0.75086282  0.49841125  1
  V  V46  1  0.50108785  0.24959035  0.75069976  1
  V  V47  1  0.12604131  0.37456570  0.24943671  1
  V  V48  1  0.50119681  0.00036239  0.00059186  1
  V  V49  1  0.75043808  0.50012531  0.25074609  1
  V  V50  1  0.87468256  0.49942711  0.87456517  1
  V  V51  1  0.24925594  0.87446845  0.12436767  1
  V  V52  1  0.62452444  0.75045729  0.37583773  1
  V  V53  1  0.49889289  0.74885477  0.24939165  1
  V  V54  1  0.12420231  0.62579600  0.49986837  1
  V  V55  1  0.75069283  0.12424295  0.87652072  1
  V  V56  1  0.62469663  0.87534319  0.25000483  1
  V  V57  1  0.74965694  0.12517573  0.37580873  1
  V  V58  1  0.12334210  0.87525717  0.74962921  1
  V  V59  1  0.37321021  0.87608046  0.49846741  1
  V  V60  1  0.87467960  -0.00055341  0.87541790  1
  V  V61  1  0.87494747  0.87391061  0.00030981  1
  V  V62  1  0.25000676  0.37633467  0.62551870  1
  V  V63  1  0.74878007  -0.00145079  0.74991546  1
  V  V64  1  0.24940573  0.12630843  0.37488051  1
  V  V65  1  0.74938793  0.25029743  0.50074826  1
  V  V66  1  0.49984737  0.50178510  0.50070127  1
  V  V67  1  0.25009444  0.12529331  0.87424684  1
  V  V68  1  0.37483045  0.12464886  0.74901521  1
  V  V69  1  0.37492604  -0.00098808  0.87442360  1
  V  V70  1  0.12423325  0.87537612  0.24975829  1
  V  V71  1  0.62398948  0.12526386  0.50072328  1
  V  V72  1  0.00115582  0.49914115  0.00038596  1
  V  V73  1  0.87538088  0.12507209  0.25022018  1
  V  V74  1  0.62468979  0.24934205  0.87538707  1
  V  V75  1  0.75107825  0.37538859  0.12648167  1
  V  V76  1  0.74872570  0.87577235  0.62667568  1
  V  V77  1  0.37438388  0.50180712  0.87279063  1
  V  V78  1  0.12637773  0.37629948  0.74949037  1
  V  V79  1  0.75101373  0.62352326  0.87555890  1
  V  V80  1  0.12579605  0.25007437  0.37534943  1
  V  V81  1  0.12732346  0.62477537  -0.00144928  1
  V  V82  1  0.00069412  0.37456051  0.87557270  1
  V  V83  1  0.12381207  0.75062086  0.37413166  1
  V  V84  1  0.87457157  0.12522448  0.75071357  1
  V  V85  1  0.87546728  0.62382742  0.75005712  1
  V  V86  1  0.25016566  0.25076688  0.49947175  1
  V  V87  1  0.25089542  0.37341991  0.12456372  1
  V  V88  1  0.37561452  0.12626556  0.24917045  1
  V  V89  1  0.12555742  0.74998548  0.87501194  1
  V  V90  1  0.37547494  0.74915873  0.62624812  1
  V  V91  1  0.75045779  0.62453881  0.37527361  1
  V  V92  1  -0.00110506  0.62563484  0.12567100  1
  V  V93  1  0.49970124  0.12441983  0.62384350  1
  V  V94  1  0.24789424  0.87633396  0.62297651  1
  V  V95  1  0.49987248  0.25036460  0.24953182  1
  Zn  Zn96  1  0.74836315  0.49839186  0.75176825  1
  Zn  Zn97  1  0.49857609  0.75165476  0.75017006  1
  Zn  Zn98  1  0.62575575  0.12357694  0.00303973  1
  Zn  Zn99  1  0.50071048  0.62813578  0.62788068  1
  Zn  Zn100  1  0.62089480  0.87656240  0.74856778  1
  Zn  Zn101  1  0.50127902  0.37522145  0.87374423  1
  Zn  Zn102  1  0.00186280  0.12375019  0.12599519  1
  Zn  Zn103  1  0.62294484  0.62718019  0.50244622  1
  Zn  Zn104  1  0.62371508  -0.00113717  0.62674067  1
  Zn  Zn105  1  0.37502411  0.62596993  0.25059262  1
  Zn  Zn106  1  0.87483603  0.62530031  0.25014138  1
  Zn  Zn107  1  -0.00126142  0.87508971  0.37373990  1
  Zn  Zn108  1  0.62679848  0.49976538  0.12466373  1
  Zn  Zn109  1  0.87357923  0.75125345  0.12767414  1
  Zn  Zn110  1  0.37759153  0.50123063  0.37484169  1
  Zn  Zn111  1  0.37752523  0.24777447  0.12341200  1
  Zn  Zn112  1  0.37444847  0.62727417  0.75096493  1
  Zn  Zn113  1  0.25207964  0.74779933  0.00031315  1
  Zn  Zn114  1  0.25147071  0.62583875  0.87274164  1
  Zn  Zn115  1  0.75117607  0.87312334  0.12650436  1
  Zn  Zn116  1  0.12302776  0.00169157  0.12552976  1
  Zn  Zn117  1  0.87588377  0.50104748  0.37418427  1
  Zn  Zn118  1  0.50062326  0.87428483  0.87201525  1
  Zn  Zn119  1  0.12603505  0.49902950  0.12391844  1
  Zn  Zn120  1  -0.00058111  0.74998453  0.74929529  1
  Zn  Zn121  1  0.62673030  0.62358005  -0.00026420  1
  Zn  Zn122  1  0.49950870  0.37748315  0.37422765  1
  Zn  Zn123  1  0.62512725  0.37575280  0.75144284  1
  Zn  Zn124  1  0.12452418  0.12576476  0.49983439  1
  Zn  Zn125  1  0.25148397  0.50347293  0.74973459  1
  Zn  Zn126  1  0.37441843  0.74785776  0.12540393  1
  Zn  Zn127  1  0.50043485  0.12534420  0.12557992  1
  Zn  Zn128  1  0.18814806  0.18745164  0.18581834  1
  Zn  Zn129  1  0.18714031  0.18840898  0.68638915  1
  Zn  Zn130  1  0.18618437  0.68811670  0.18635021  1
  Zn  Zn131  1  0.19033567  0.68648132  0.68939970  1
  Zn  Zn132  1  0.68650897  0.18566827  0.18670008  1
  Zn  Zn133  1  0.68683375  0.18555804  0.68828158  1
  Zn  Zn134  1  0.68447113  0.68576960  0.18810728  1
  Zn  Zn135  1  0.68905889  0.68566572  0.68978676  1
  Zn  Zn136  1  0.31521596  0.31440350  0.31355401  1
  Zn  Zn137  1  0.31417380  0.31503781  0.81245698  1
  Zn  Zn138  1  0.31250268  0.81091392  0.31040185  1
  Zn  Zn139  1  0.30906066  0.81440304  0.81180970  1
  Zn  Zn140  1  0.81295327  0.31290638  0.31357950  1
  Zn  Zn141  1  0.81086616  0.31339682  0.81187891  1
  Zn  Zn142  1  0.81369365  0.81159362  0.31227966  1
  Zn  Zn143  1  0.81142488  0.81149707  0.81204943  1
  Zn  Zn144  1  0.18795561  0.43780554  0.43693136  1
  Zn  Zn145  1  0.18963933  0.43762024  0.93710865  1
  Zn  Zn146  1  0.18453572  0.93852976  0.43613682  1
  Zn  Zn147  1  0.18756581  0.93816940  0.93734327  1
  Zn  Zn148  1  0.68597807  0.43824641  0.43840953  1
  Zn  Zn149  1  0.68802331  0.43515815  0.93799131  1
  Zn  Zn150  1  0.68651431  0.93740004  0.43861231  1
  Zn  Zn151  1  0.68760241  0.93458565  0.93715422  1
  Zn  Zn152  1  0.31311488  0.06233301  0.06382069  1
  Zn  Zn153  1  0.31180293  0.06380015  0.56109039  1
  Zn  Zn154  1  0.31486833  0.56001236  0.06283985  1
  Zn  Zn155  1  0.31178464  0.56381383  0.56133293  1
  Zn  Zn156  1  0.81292969  0.06137621  0.06430786  1
  Zn  Zn157  1  0.81159638  0.06237613  0.56371855  1
  Zn  Zn158  1  0.81371088  0.56150491  0.06235233  1
  Zn  Zn159  1  0.81164069  0.56235071  0.56172937  1
  Zn  Zn160  1  0.43750165  0.43541491  0.18565261  1
  Zn  Zn161  1  0.44054991  0.43640675  0.68850579  1
  Zn  Zn162  1  0.43695626  0.93747076  0.18631504  1
  Zn  Zn163  1  0.43848125  0.93497290  0.68750223  1
  Zn  Zn164  1  0.93685235  0.43963583  0.18867742  1
  Zn  Zn165  1  0.93787666  0.43846029  0.68745339  1
  Zn  Zn166  1  0.93716575  0.93665649  0.18539621  1
  Zn  Zn167  1  0.93625851  0.93713215  0.68795098  1
  Zn  Zn168  1  0.06251240  0.06256191  0.31335745  1
  Zn  Zn169  1  0.06183248  0.06265903  0.81274252  1
  Zn  Zn170  1  0.06516231  0.56134987  0.31185972  1
  Zn  Zn171  1  0.06115863  0.56221284  0.81117193  1
  Zn  Zn172  1  0.56212036  0.06352094  0.31264569  1
  Zn  Zn173  1  0.56324076  0.06245615  0.81336475  1
  Zn  Zn174  1  0.56523709  0.56227672  0.31260047  1
  Zn  Zn175  1  0.55941360  0.56929830  0.81009607  1
  Zn  Zn176  1  0.43703030  0.18926418  0.43583465  1
  Zn  Zn177  1  0.43801751  0.18533880  0.93657404  1
  Zn  Zn178  1  0.43555439  0.68562730  0.43820464  1
  Zn  Zn179  1  0.43982846  0.68544607  0.93860001  1
  Zn  Zn180  1  0.93746542  0.18785636  0.43761895  1
  Zn  Zn181  1  0.93836587  0.18661855  0.93803752  1
  Zn  Zn182  1  0.93636286  0.68879909  0.43752175  1
  Zn  Zn183  1  0.93847064  0.68696673  0.93760136  1
  Zn  Zn184  1  0.06424017  0.31054746  0.06398886  1
  Zn  Zn185  1  0.06308019  0.31303006  0.56202429  1
  Zn  Zn186  1  0.06238221  0.81221110  0.06261079  1
  Zn  Zn187  1  0.06003411  0.81307497  0.56144500  1
  Zn  Zn188  1  0.56411064  0.31260970  0.06410775  1
  Zn  Zn189  1  0.56218506  0.31500149  0.56330114  1
  Zn  Zn190  1  0.56404892  0.81181439  0.06227480  1
  Zn  Zn191  1  0.56227579  0.81545939  0.56189894  1
  O  O192  1  0.12353995  0.12287291  0.11594797  1
  O  O193  1  0.11783115  0.11918531  0.62416979  1
  O  O194  1  0.11603108  0.62472652  0.11467537  1
  O  O195  1  0.11994755  0.62092018  0.61893994  1
  O  O196  1  0.62208461  0.11494580  0.12253996  1
  O  O197  1  0.61762583  0.12385471  0.61780629  1
  O  O198  1  0.61306738  0.62107313  0.12221851  1
  O  O199  1  0.62506052  0.61464372  0.62298233  1
  O  O200  1  0.37791527  0.37996779  0.38446458  1
  O  O201  1  0.37836313  0.38363488  0.88189519  1
  O  O202  1  0.37859453  0.88053111  0.37930295  1
  O  O203  1  0.37247784  0.88083148  0.88509286  1
  O  O204  1  0.88199763  0.37567022  0.38259075  1
  O  O205  1  0.88127567  0.37837586  0.88083492  1
  O  O206  1  0.87518978  0.88197436  0.38247162  1
  O  O207  1  0.88046731  0.88015518  0.87978750  1
  O  O208  1  0.25487007  0.00559258  0.36986657  1
  O  O209  1  0.25460856  0.00566467  0.86802533  1
  O  O210  1  0.24916799  0.50579093  0.36517044  1
  O  O211  1  0.26230286  0.50079260  0.87481460  1
  O  O212  1  0.75466459  0.00614090  0.37045877  1
  O  O213  1  0.75613596  0.00470542  0.87111336  1
  O  O214  1  0.74960449  0.50947983  0.37117313  1
  O  O215  1  0.75719682  0.50493176  0.87639770  1
  O  O216  1  0.24861117  0.49341607  0.13316655  1
  O  O217  1  0.24311859  0.49345600  0.62438013  1
  O  O218  1  0.24894549  0.98938656  0.13115344  1
  O  O219  1  0.24399288  0.99607782  0.62890840  1
  O  O220  1  0.75021288  0.49344190  0.13116297  1
  O  O221  1  0.74065216  0.49453629  0.62431476  1
  O  O222  1  0.74343886  0.99760749  0.13252562  1
  O  O223  1  0.74964941  0.99417660  0.63192174  1
  O  O224  1  0.00549831  0.37003251  0.25532868  1
  O  O225  1  0.00563046  0.36944950  0.75568666  1
  O  O226  1  0.00654884  0.86837982  0.25054601  1
  O  O227  1  0.00586478  0.87397126  0.75674710  1
  O  O228  1  0.50673085  0.36789905  0.25102084  1
  O  O229  1  0.50415050  0.36430278  0.75302494  1
  O  O230  1  0.50437393  0.87002704  0.25559309  1
  O  O231  1  0.50224082  0.86999577  0.75434117  1
  O  O232  1  0.49379984  0.13327959  0.25106133  1
  O  O233  1  0.49331689  0.12883976  0.74411097  1
  O  O234  1  0.50017157  0.62874408  0.24178775  1
  O  O235  1  0.49171351  0.63426273  0.74482056  1
  O  O236  1  0.99308457  0.13231766  0.25053778  1
  O  O237  1  0.99412414  0.13096913  0.74516232  1
  O  O238  1  1.00278816  0.62923499  0.24006770  1
  O  O239  1  0.99384670  0.62663612  0.74218231  1
  O  O240  1  0.36946444  0.25508678  -0.00150073  1
  O  O241  1  0.37020851  0.25576688  0.50592611  1
  O  O242  1  0.37378062  0.76172766  0.00087847  1
  O  O243  1  0.36721189  0.75723721  0.50509400  1
  O  O244  1  0.87088301  0.25503427  0.00504711  1
  O  O245  1  0.86927124  0.25533561  0.50625253  1
  O  O246  1  0.86580685  0.75477580  -0.00148560  1
  O  O247  1  0.86871737  0.75593403  0.50576396  1
  O  O248  1  0.13199618  0.24978038  0.49359803  1
  O  O249  1  0.13129243  0.24469244  0.99286887  1
  O  O250  1  0.12919495  0.74549661  0.49480122  1
  O  O251  1  0.12481589  0.74175888  0.99126336  1
  O  O252  1  0.62998568  0.24520676  0.49561562  1
  O  O253  1  0.63142644  0.24786858  0.99211859  1
  O  O254  1  0.63106928  0.75007773  0.49327340  1
  O  O255  1  0.63568369  0.74947014  0.99184218  1
  O  O256  1  0.49934554  0.24736053  0.13538346  1
  O  O257  1  0.49434722  0.24400323  0.62966623  1
  O  O258  1  0.50068255  0.74053485  0.12964287  1
  O  O259  1  0.48596122  0.75247096  0.62112550  1
  O  O260  1  0.99341958  0.24890722  0.13248283  1
  O  O261  1  0.99446128  0.24590965  0.63058606  1
  O  O262  1  1.00025310  0.74039751  0.12992402  1
  O  O263  1  0.99266435  0.74318846  0.62514318  1
  O  O264  1  0.00526909  0.25594955  0.37024081  1
  O  O265  1  0.00586232  0.25523431  0.86947332  1
  O  O266  1  0.00657607  0.75067396  0.36854268  1
  O  O267  1  0.01058075  0.75596806  0.87452676  1
  O  O268  1  0.50692722  0.25211913  0.36693653  1
  O  O269  1  0.50949470  0.24792738  0.87032694  1
  O  O270  1  0.50425380  0.75508633  0.37079616  1
  O  O271  1  0.51275544  0.75102329  0.87848185  1
  O  O272  1  0.24908110  0.13280302  0.49294022  1
  O  O273  1  0.24619127  0.12900269  0.99279807  1
  O  O274  1  0.24247372  0.63114740  0.49364467  1
  O  O275  1  0.23774051  0.62555989  1.00066678  1
  O  O276  1  0.74482470  0.13109234  0.49555968  1
  O  O277  1  0.75077740  0.13106542  0.99375696  1
  O  O278  1  0.74833356  0.63148546  0.49115622  1
  O  O279  1  0.75061805  0.63302874  0.99450158  1
  O  O280  1  0.25509834  0.36879247  0.00451027  1
  O  O281  1  0.25524952  0.37015042  0.50591822  1
  O  O282  1  0.25801805  0.87685846  0.00807599  1
  O  O283  1  0.25344017  0.87108962  0.50350960  1
  O  O284  1  0.75735421  0.36854158  0.00597520  1
  O  O285  1  0.75526061  0.36907452  0.50551122  1
  O  O286  1  0.75666978  0.86435974  0.00014789  1
  O  O287  1  0.75535815  0.87020872  0.50568352  1
  O  O288  1  0.13626047  0.49301169  0.24807789  1
  O  O289  1  0.12525153  0.49322825  0.74330671  1
  O  O290  1  0.13176872  0.99389192  0.24955539  1
  O  O291  1  0.12958831  0.99547353  0.74424936  1
  O  O292  1  0.63261636  0.49222516  0.24859874  1
  O  O293  1  0.62448066  0.49899666  0.73936541  1
  O  O294  1  0.62940750  0.99460302  0.24660106  1
  O  O295  1  0.63380357  0.99928425  0.74847077  1
  O  O296  1  0.36930857  0.00451614  0.25594812  1
  O  O297  1  0.36842359  0.00506874  0.75385010  1
  O  O298  1  0.36259532  0.49982370  0.25079965  1
  O  O299  1  0.37694406  0.49910243  0.76240877  1
  O  O300  1  0.86943481  0.00473936  0.25571306  1
  O  O301  1  0.87000552  0.00616144  0.75632160  1
  O  O302  1  0.86697036  0.50394382  0.25419636  1
  O  O303  1  0.87490879  0.50554741  0.75731913  1
  O  O304  1  0.11989084  0.36932217  0.36944185  1
  O  O305  1  0.12009936  0.36959154  0.87017130  1
  O  O306  1  0.12352012  0.86823234  0.36775736  1
  O  O307  1  0.12049824  0.86831494  0.87036076  1
  O  O308  1  0.62489755  0.36761102  0.36873403  1
  O  O309  1  0.62437385  0.36134007  0.87384129  1
  O  O310  1  0.61787468  0.87018017  0.37014095  1
  O  O311  1  0.62477963  0.86341745  0.87296792  1
  O  O312  1  0.37760688  0.12657376  0.13390610  1
  O  O313  1  0.37919362  0.13113749  0.62980876  1
  O  O314  1  0.38723479  0.62631948  0.12591207  1
  O  O315  1  0.37236427  0.64018601  0.62237660  1
  O  O316  1  0.87623692  0.13171130  0.13283981  1
  O  O317  1  0.87963674  0.13154601  0.63125743  1
  O  O318  1  0.88917264  0.62667091  0.12377020  1
  O  O319  1  0.87964418  0.62950681  0.62935149  1
  O  O320  1  0.25276993  0.25587123  0.11719189  1
  O  O321  1  0.25572755  0.25566329  0.61982953  1
  O  O322  1  0.25164756  0.76241905  0.12301283  1
  O  O323  1  0.25416398  0.75750069  0.61741970  1
  O  O324  1  0.75639015  0.25504165  0.12066347  1
  O  O325  1  0.75530448  0.25422865  0.62009819  1
  O  O326  1  0.74988116  0.74834412  0.11315870  1
  O  O327  1  0.75549270  0.75465783  0.61969648  1
  O  O328  1  0.24524713  0.24610097  0.37981665  1
  O  O329  1  0.24526335  0.24478610  0.87908570  1
  O  O330  1  0.24348910  0.74509511  0.37908975  1
  O  O331  1  0.23637942  0.75011479  0.87841717  1
  O  O332  1  0.74506809  0.24431581  0.38131572  1
  O  O333  1  0.74415906  0.24448989  0.88032206  1
  O  O334  1  0.74449710  0.74327683  0.37985371  1
  O  O335  1  0.74477747  0.74415617  0.88343549  1
  O  O336  1  0.00682478  0.11886843  -0.00034163  1
  O  O337  1  0.00008704  0.11948987  0.50743006  1
  O  O338  1  0.00820625  0.62021538  0.00624207  1
  O  O339  1  0.00498786  0.62001862  0.50475194  1
  O  O340  1  0.49979992  0.11066067  0.00170700  1
  O  O341  1  0.50367032  0.12108356  0.50412743  1
  O  O342  1  0.50168242  0.61501934  0.00890787  1
  O  O343  1  0.50147111  0.61478154  0.50404195  1
  O  O344  1  0.49434038  0.38479763  0.50014291  1
  O  O345  1  0.49536962  0.38416002  1.00047119  1
  O  O346  1  0.49282588  0.88171260  0.49272286  1
  O  O347  1  0.49014513  0.88374436  1.00015882  1
  O  O348  1  0.99525005  0.37995568  0.49517262  1
  O  O349  1  0.99622790  0.37857272  0.99498454  1
  O  O350  1  0.99195511  0.88265849  0.49875803  1
  O  O351  1  0.99546700  0.88003512  0.99370922  1
  O  O352  1  0.50103813  0.49948079  0.38739330  1
  O  O353  1  0.49371087  0.50045001  0.88507154  1
  O  O354  1  0.49309038  0.99469247  0.37934854  1
  O  O355  1  0.49356632  0.99864643  0.88430545  1
  O  O356  1  1.00031852  0.49372051  0.38142868  1
  O  O357  1  0.99492594  0.49354115  0.88088010  1
  O  O358  1  0.99230744  0.99925767  0.38174459  1
  O  O359  1  0.99389857  0.99479694  0.87973024  1
  O  O360  1  0.00215005  0.00280592  0.11623228  1
  O  O361  1  0.00353482  0.00597871  0.62058230  1
  O  O362  1  0.00287962  0.50839486  0.11910963  1
  O  O363  1  0.00611209  0.50539514  0.61858017  1
  O  O364  1  0.50577901  -0.00067947  0.11620325  1
  O  O365  1  0.49853971  0.00697478  0.61684103  1
  O  O366  1  0.50011433  0.50652847  0.11634351  1
  O  O367  1  0.50836555  0.50040691  0.61723360  1
  O  O368  1  0.24585993  0.38136679  0.24560665  1
  O  O369  1  0.24361159  0.37652861  0.74289036  1
  O  O370  1  0.24553244  0.87977817  0.24230364  1
  O  O371  1  0.24248659  0.88282615  0.74300551  1
  O  O372  1  0.74630507  0.37964050  0.24563760  1
  O  O373  1  0.74737617  0.37800590  0.74195240  1
  O  O374  1  0.74257913  0.88100515  0.25067111  1
  O  O375  1  0.75081129  0.88202207  0.74365265  1
  O  O376  1  0.25514730  0.12019979  0.25569163  1
  O  O377  1  0.25519381  0.12053068  0.75423583  1
  O  O378  1  0.24856082  0.61560892  0.25291464  1
  O  O379  1  0.25552691  0.62077899  0.75456213  1
  O  O380  1  0.75530061  0.11939846  0.25686159  1
  O  O381  1  0.75672521  0.11972943  0.75606565  1
  O  O382  1  0.74917699  0.61997309  0.25926569  1
  O  O383  1  0.75849649  0.62098201  0.75798676  1
  O  O384  1  0.36874971  0.11968441  0.36963815  1
  O  O385  1  0.36890210  0.11896997  0.86822313  1
  O  O386  1  0.36523941  0.62163380  0.37197157  1
  O  O387  1  0.37284248  0.61421727  0.87819299  1
  O  O388  1  0.86854380  0.12030332  0.37031809  1
  O  O389  1  0.87039973  0.11980809  0.86958452  1
  O  O390  1  0.86169947  0.62457779  0.37450598  1
  O  O391  1  0.87207709  0.61859535  0.87066528  1
  O  O392  1  0.13223244  0.37593224  0.13146204  1
  O  O393  1  0.12967861  0.38042342  0.62998706  1
  O  O394  1  0.13464636  0.87651331  0.12950157  1
  O  O395  1  0.12861904  0.88079383  0.62945785  1
  O  O396  1  0.63443161  0.37576873  0.13221495  1
  O  O397  1  0.63127319  0.38409496  0.62603346  1
  O  O398  1  0.62682924  0.88074530  0.13276469  1
  O  O399  1  0.63371539  0.87821590  0.62648029  1
  O  O400  1  0.12025266  0.25526208  0.25586771  1
  O  O401  1  0.11964135  0.25577908  0.75512812  1
  O  O402  1  0.11975379  0.75557376  0.25497810  1
  O  O403  1  0.12352834  0.75623433  0.75865731  1
  O  O404  1  0.61976148  0.25435274  0.25553308  1
  O  O405  1  0.61998803  0.24754966  0.76017480  1
  O  O406  1  0.61874492  0.75585773  0.25649605  1
  O  O407  1  0.62714821  0.75117577  0.76219094  1
  O  O408  1  0.38352976  0.24499230  0.25029462  1
  O  O409  1  0.38012060  0.24396714  0.74506866  1
  O  O410  1  0.38352703  0.74771567  0.24642671  1
  O  O411  1  0.37082603  0.75434637  0.73616082  1
  O  O412  1  0.87993166  0.24494974  0.24602373  1
  O  O413  1  0.88077469  0.24516962  0.74544629  1
  O  O414  1  0.88273840  0.74578300  0.24738260  1
  O  O415  1  0.87647931  0.74247318  0.74373767  1
  O  O416  1  0.38462922  0.49508491  0.50214507  1
  O  O417  1  0.38375002  0.49413054  0.99303041  1
  O  O418  1  0.37887552  0.99556082  0.49332489  1
  O  O419  1  0.38130959  0.99222971  0.99535662  1
  O  O420  1  0.88222193  0.49321571  0.49915852  1
  O  O421  1  0.88159792  0.49279492  0.99446004  1
  O  O422  1  0.87874165  0.99582705  0.49517937  1
  O  O423  1  0.87979659  0.99447457  0.99365120  1
  O  O424  1  0.11871955  0.00645388  -0.00117581  1
  O  O425  1  0.11762836  0.00206782  0.50651568  1
  O  O426  1  0.11935959  0.50886124  -0.00101479  1
  O  O427  1  0.11956353  0.50571812  0.50535576  1
  O  O428  1  0.61585395  -0.00250878  0.00482658  1
  O  O429  1  0.61704058  0.00774973  0.49989870  1
  O  O430  1  0.61422642  0.49976497  0.00095567  1
  O  O431  1  0.61650921  0.50036019  0.50977660  1
  O  O432  1  0.36825387  0.37217625  0.11690755  1
  O  O433  1  0.36981085  0.36927917  0.62025486  1
  O  O434  1  0.36617986  0.87522008  0.11621331  1
  O  O435  1  0.36674643  0.86993272  0.61721272  1
  O  O436  1  0.87092580  0.36893421  0.11976909  1
  O  O437  1  0.87061524  0.36951313  0.61974053  1
  O  O438  1  0.87166344  0.87114065  0.11590368  1
  O  O439  1  0.86928803  0.86936896  0.61979311  1
  O  O440  1  0.13187093  0.13248137  0.37653741  1
  O  O441  1  0.13105553  0.13109785  0.87836984  1
  O  O442  1  0.13001164  0.63111969  0.38077893  1
  O  O443  1  0.12254486  0.63267411  0.88313598  1
  O  O444  1  0.63075560  0.13094561  0.38091015  1
  O  O445  1  0.63200816  0.13367199  0.87844605  1
  O  O446  1  0.63551048  0.63169374  0.37690892  1
  O  O447  1  0.63249990  0.63356117  0.87723098  1
