# generated using pymatgen
data_V3Zn3O8
_symmetry_space_group_name_H-M   'P 1'
_cell_length_a   17.08876850
_cell_length_b   17.08869879
_cell_length_c   17.08967758
_cell_angle_alpha   90.01638647
_cell_angle_beta   90.00259357
_cell_angle_gamma   89.98091018
_symmetry_Int_Tables_number   1
_chemical_formula_structural   V3Zn3O8
_chemical_formula_sum   'V96 Zn96 O256'
_cell_volume   4990.60949281
_cell_formula_units_Z   32
loop_
 _symmetry_equiv_pos_site_id
 _symmetry_equiv_pos_as_xyz
  1  'x, y, z'
loop_
 _atom_site_type_symbol
 _atom_site_label
 _atom_site_symmetry_multiplicity
 _atom_site_fract_x
 _atom_site_fract_y
 _atom_site_fract_z
 _atom_site_occupancy
  V  V0  1  0.00011844  0.50155258  0.49982815  1
  V  V1  1  0.87520666  0.62482828  0.75002408  1
  V  V2  1  0.49951527  0.74994948  0.25102485  1
  V  V3  1  0.37625483  0.37580420  0.49937178  1
  V  V4  1  0.24963195  0.62646877  0.37591440  1
  V  V5  1  0.62427377  0.25061536  0.37401302  1
  V  V6  1  0.37389454  0.62411923  0.25022030  1
  V  V7  1  0.50164779  0.49935031  0.50021233  1
  V  V8  1  0.62474639  0.87484432  0.75008790  1
  V  V9  1  0.75035492  0.87538563  0.62365059  1
  V  V10  1  0.87457778  0.37499988  0.50040610  1
  V  V11  1  0.62533388  0.12635385  0.49975568  1
  V  V12  1  0.74965535  0.00136131  0.74863104  1
  V  V13  1  0.12386746  0.49992135  0.12532676  1
  V  V14  1  0.62466702  0.50035186  0.12377895  1
  V  V15  1  0.12653569  0.37544309  0.75051772  1
  V  V16  1  0.24937257  0.37365161  0.12605060  1
  V  V17  1  0.37365492  0.24791397  0.12604641  1
  V  V18  1  0.37583451  0.87563862  -0.00247030  1
  V  V19  1  0.12569630  0.00017180  0.62538613  1
  V  V20  1  0.12514422  0.37477671  0.25045556  1
  V  V21  1  0.00011434  0.37604404  0.37518918  1
  V  V22  1  0.25052854  0.25102945  0.50073504  1
  V  V23  1  0.24981530  0.12498592  0.37553912  1
  V  V24  1  0.37427203  0.12400243  0.24972872  1
  V  V25  1  0.62737347  0.37681397  0.74954542  1
  V  V26  1  0.74739725  -0.00142223  0.24721554  1
  V  V27  1  0.75034083  0.75101445  -0.00037976  1
  V  V28  1  -0.00058463  0.12625646  0.62586930  1
  V  V29  1  0.12499909  0.25073716  0.87482290  1
  V  V30  1  0.74910040  0.50021479  0.24934391  1
  V  V31  1  0.50008970  0.62447125  0.12478812  1
  V  V32  1  0.87401557  0.62627413  0.24906808  1
  V  V33  1  0.00063708  0.62633883  0.62396520  1
  V  V34  1  0.12339947  -0.00003051  0.12422595  1
  V  V35  1  0.87564881  0.00014112  0.37590689  1
  V  V36  1  0.12610338  0.62711068  0.50004917  1
  V  V37  1  0.00029337  0.62479849  0.12472860  1
  V  V38  1  0.50076499  0.12515811  0.62536593  1
  V  V39  1  0.37487267  -0.00091688  0.37602029  1
  V  V40  1  0.25281905  0.49945427  0.75119455  1
  V  V41  1  0.12115087  0.87341637  0.25245917  1
  V  V42  1  0.62473374  0.62523677  -0.00003174  1
  V  V43  1  0.24982698  -0.00190745  0.74922846  1
  V  V44  1  0.87473305  0.50115626  0.37445238  1
  V  V45  1  0.62408986  0.37385935  0.24886073  1
  V  V46  1  0.12498446  0.25067067  0.37575843  1
  V  V47  1  0.62540865  0.75082083  0.87412045  1
  V  V48  1  0.87623861  0.12719284  0.74955041  1
  V  V49  1  0.49972571  0.24908394  0.25054122  1
  V  V50  1  0.24909113  0.12463057  0.87507365  1
  V  V51  1  0.12496798  0.74853379  0.87492512  1
  V  V52  1  0.75112599  0.62475910  0.87357206  1
  V  V53  1  0.37510989  0.12465128  0.75066163  1
  V  V54  1  -0.00016774  -0.00084973  -0.00032967  1
  V  V55  1  0.00071236  0.37557950  0.87428472  1
  V  V56  1  0.62470808  0.62404003  0.50047870  1
  V  V57  1  0.37440906  0.75017903  0.62389464  1
  V  V58  1  0.75048441  0.37471672  0.12348236  1
  V  V59  1  0.87501725  0.25152109  0.12446039  1
  V  V60  1  0.87588952  0.50016773  0.87387065  1
  V  V61  1  0.87500825  0.87444732  -0.00024041  1
  V  V62  1  0.87393581  0.75001933  0.12463307  1
  V  V63  1  0.25041561  0.49975197  0.25080936  1
  V  V64  1  0.37402518  0.74895307  0.12531001  1
  V  V65  1  -0.00005780  0.12487801  0.12381900  1
  V  V66  1  -0.00062366  0.00025469  0.49905756  1
  V  V67  1  0.37787449  0.37517548  -0.00079291  1
  V  V68  1  0.24884763  0.24819881  0.00009534  1
  V  V69  1  0.87528539  0.37554007  -0.00086279  1
  V  V70  1  0.24897404  -0.00039602  0.25037712  1
  V  V71  1  0.24849546  0.87379737  0.12510521  1
  V  V72  1  0.49881434  0.87456218  0.37489282  1
  V  V73  1  0.25089884  0.62406857  0.87549759  1
  V  V74  1  0.24860513  0.74778116  -0.00025950  1
  V  V75  1  0.74947062  0.12609500  0.87558289  1
  V  V76  1  0.74967535  0.12546180  0.37465285  1
  V  V77  1  0.00055937  0.87424656  0.87487263  1
  V  V78  1  0.62363999  0.75077846  0.37437824  1
  V  V79  1  0.87478083  0.12561815  0.24963848  1
  V  V80  1  0.87473601  0.75137140  0.62421997  1
  V  V81  1  0.62444825  0.12299222  0.00072803  1
  V  V82  1  0.74968058  0.75094469  0.49976949  1
  V  V83  1  0.25032818  0.37609170  0.62600427  1
  V  V84  1  0.00082850  0.75064654  0.75026361  1
  V  V85  1  0.50095310  0.74987310  0.75026953  1
  V  V86  1  0.62477048  0.00051055  0.62460511  1
  V  V87  1  -0.00035097  0.25024169  0.24995770  1
  V  V88  1  0.75107189  0.25202852  0.50022351  1
  V  V89  1  0.37656365  0.62461616  0.75141983  1
  V  V90  1  0.37560565  0.25051112  0.62524692  1
  V  V91  1  0.50219261  0.25138246  0.75325761  1
  V  V92  1  0.74973501  0.62613311  0.37459173  1
  V  V93  1  0.49909100  -0.00030380  0.49933225  1
  V  V94  1  0.12472022  0.12574838  0.50068739  1
  V  V95  1  0.49980697  0.12189172  0.12418822  1
  Zn  Zn96  1  0.00060150  0.25170155  0.74840800  1
  Zn  Zn97  1  0.62195748  -0.00432606  0.12423803  1
  Zn  Zn98  1  0.50271758  0.62380673  0.62668315  1
  Zn  Zn99  1  0.62871780  0.50069544  0.62541349  1
  Zn  Zn100  1  0.50067753  0.87751167  0.87501568  1
  Zn  Zn101  1  -0.00249086  0.75179294  0.25275405  1
  Zn  Zn102  1  0.87627743  0.87558795  0.49857051  1
  Zn  Zn103  1  0.87585866  0.25298020  0.62433303  1
  Zn  Zn104  1  0.50262953  0.37838641  0.87664573  1
  Zn  Zn105  1  0.37594860  0.49838239  0.37483379  1
  Zn  Zn106  1  0.75233415  0.37631723  0.62558310  1
  Zn  Zn107  1  0.87666190  -0.00032344  0.87515821  1
  Zn  Zn108  1  0.49859808  0.37508321  0.37370368  1
  Zn  Zn109  1  0.24907613  0.87386437  0.62255932  1
  Zn  Zn110  1  0.37250584  0.87373430  0.50036699  1
  Zn  Zn111  1  0.12554284  0.87369779  0.74853811  1
  Zn  Zn112  1  -0.00192283  0.87319384  0.37677771  1
  Zn  Zn113  1  0.74964099  0.24964839  0.00063039  1
  Zn  Zn114  1  0.00204509  0.49991315  -0.00118931  1
  Zn  Zn115  1  0.37622031  -0.00083162  0.87449991  1
  Zn  Zn116  1  0.12542300  0.62245894  -0.00031487  1
  Zn  Zn117  1  0.12633947  0.50050623  0.62574631  1
  Zn  Zn118  1  0.12159945  0.75182525  0.37577952  1
  Zn  Zn119  1  0.74744735  0.87483513  0.12415383  1
  Zn  Zn120  1  0.74996137  0.49931013  0.74716511  1
  Zn  Zn121  1  0.62532721  0.25211530  0.87776918  1
  Zn  Zn122  1  0.50054225  0.49965049  -0.00084980  1
  Zn  Zn123  1  0.49870159  -0.00090536  -0.00142948  1
  Zn  Zn124  1  0.12401817  0.12454644  -0.00112066  1
  Zn  Zn125  1  0.37782526  0.50010860  0.87627841  1
  Zn  Zn126  1  0.62369973  0.87472086  0.24690753  1
  Zn  Zn127  1  0.25009065  0.75272124  0.50052355  1
  Zn  Zn128  1  0.18601578  0.18655977  0.18723260  1
  Zn  Zn129  1  0.18734686  0.18772801  0.68859960  1
  Zn  Zn130  1  0.18593394  0.68803523  0.18808967  1
  Zn  Zn131  1  0.18899760  0.68635216  0.68864584  1
  Zn  Zn132  1  0.68720167  0.18636957  0.18548095  1
  Zn  Zn133  1  0.68881056  0.19092187  0.68576277  1
  Zn  Zn134  1  0.68668414  0.68869004  0.18684460  1
  Zn  Zn135  1  0.68768373  0.68681991  0.68639251  1
  Zn  Zn136  1  0.31356854  0.31260688  0.31399250  1
  Zn  Zn137  1  0.31276467  0.31196592  0.81427151  1
  Zn  Zn138  1  0.31137866  0.81221236  0.31297412  1
  Zn  Zn139  1  0.31209325  0.81078222  0.81182315  1
  Zn  Zn140  1  0.81179532  0.31361267  0.31288445  1
  Zn  Zn141  1  0.81225318  0.31189326  0.81398625  1
  Zn  Zn142  1  0.81273604  0.81467293  0.31281513  1
  Zn  Zn143  1  0.81326843  0.81268709  0.81219251  1
  Zn  Zn144  1  0.18796076  0.43986674  0.43852271  1
  Zn  Zn145  1  0.18903504  0.43819845  0.93827861  1
  Zn  Zn146  1  0.18822628  0.93678186  0.43960342  1
  Zn  Zn147  1  0.18664825  0.93609378  0.93610597  1
  Zn  Zn148  1  0.68708711  0.43663679  0.43629059  1
  Zn  Zn149  1  0.68847540  0.43831020  0.93528744  1
  Zn  Zn150  1  0.68650915  0.93672517  0.43561047  1
  Zn  Zn151  1  0.68881898  0.93858931  0.93642935  1
  Zn  Zn152  1  0.31018311  0.06053493  0.06226902  1
  Zn  Zn153  1  0.31352473  0.06321001  0.56360651  1
  Zn  Zn154  1  0.31166696  0.56081456  0.06323751  1
  Zn  Zn155  1  0.31519582  0.56247626  0.56426789  1
  Zn  Zn156  1  0.81370105  0.06165308  0.06222522  1
  Zn  Zn157  1  0.81306145  0.06404073  0.56250676  1
  Zn  Zn158  1  0.81270318  0.56172197  0.06008253  1
  Zn  Zn159  1  0.81126684  0.56165734  0.56396124  1
  Zn  Zn160  1  0.43759093  0.43754176  0.18616822  1
  Zn  Zn161  1  0.43955059  0.43808862  0.68625905  1
  Zn  Zn162  1  0.43720802  0.93658524  0.18645390  1
  Zn  Zn163  1  0.43722293  0.93551907  0.68715431  1
  Zn  Zn164  1  0.93723794  0.43875713  0.18726165  1
  Zn  Zn165  1  0.93885749  0.43889123  0.68665858  1
  Zn  Zn166  1  0.93514923  0.93776718  0.18610337  1
  Zn  Zn167  1  0.93767572  0.93849031  0.68740209  1
  Zn  Zn168  1  0.06169641  0.06156509  0.31272734  1
  Zn  Zn169  1  0.06308165  0.06229201  0.81345154  1
  Zn  Zn170  1  0.06244666  0.56343414  0.31176946  1
  Zn  Zn171  1  0.06404270  0.56163347  0.81158330  1
  Zn  Zn172  1  0.56223895  0.06262975  0.31278440  1
  Zn  Zn173  1  0.56138625  0.06041472  0.81555677  1
  Zn  Zn174  1  0.56187658  0.56211140  0.31364143  1
  Zn  Zn175  1  0.56038325  0.56070267  0.81521437  1
  Zn  Zn176  1  0.43788634  0.18736756  0.43710844  1
  Zn  Zn177  1  0.43664893  0.18640367  0.93733562  1
  Zn  Zn178  1  0.43737184  0.68534120  0.43853577  1
  Zn  Zn179  1  0.43871676  0.68925869  0.93673244  1
  Zn  Zn180  1  0.93703633  0.18735634  0.43786157  1
  Zn  Zn181  1  0.93812261  0.18906697  0.93715437  1
  Zn  Zn182  1  0.93796560  0.69056052  0.43641821  1
  Zn  Zn183  1  0.93804460  0.68743241  0.93840688  1
  Zn  Zn184  1  0.06184645  0.31296188  0.06037035  1
  Zn  Zn185  1  0.06194696  0.31303832  0.56453912  1
  Zn  Zn186  1  0.06160855  0.81061368  0.06250240  1
  Zn  Zn187  1  0.06290645  0.81526280  0.56301421  1
  Zn  Zn188  1  0.56267787  0.30824231  0.06434130  1
  Zn  Zn189  1  0.56387156  0.31445374  0.56421654  1
  Zn  Zn190  1  0.56277678  0.81243341  0.06380816  1
  Zn  Zn191  1  0.56059033  0.81263090  0.56254500  1
  O  O192  1  0.11765518  0.11821969  0.12453763  1
  O  O193  1  0.12002775  0.12094632  0.61947709  1
  O  O194  1  0.11558413  0.61925883  0.12669731  1
  O  O195  1  0.12014828  0.62418298  0.61569244  1
  O  O196  1  0.61893692  0.12319410  0.11609866  1
  O  O197  1  0.62031948  0.11997554  0.61927725  1
  O  O198  1  0.61991081  0.62013154  0.11981502  1
  O  O199  1  0.62319052  0.62347771  0.61554174  1
  O  O200  1  0.37714165  0.37707982  0.38325794  1
  O  O201  1  0.37591086  0.37340190  0.88888918  1
  O  O202  1  0.38045819  0.88169342  0.37567479  1
  O  O203  1  0.37401881  0.87335186  0.88737683  1
  O  O204  1  0.88127018  0.38168503  0.37868394  1
  O  O205  1  0.88038505  0.37980191  0.87898337  1
  O  O206  1  0.87640740  0.88539518  0.37761884  1
  O  O207  1  0.88207198  0.87593400  0.88144666  1
  O  O208  1  0.25481265  0.00678796  0.36991554  1
  O  O209  1  0.24998457  0.00556636  0.86460695  1
  O  O210  1  0.25048096  0.51043007  0.36908743  1
  O  O211  1  0.25433269  0.50586757  0.86932290  1
  O  O212  1  0.75460030  0.00685356  0.36766498  1
  O  O213  1  0.75202922  0.01127492  0.86755111  1
  O  O214  1  0.75502712  0.50631035  0.36875439  1
  O  O215  1  0.75790576  0.50801808  0.87163050  1
  O  O216  1  0.24395787  0.49355615  0.13240381  1
  O  O217  1  0.25015523  0.49312280  0.63205323  1
  O  O218  1  0.24349609  0.99395756  0.13158000  1
  O  O219  1  0.24452932  1.00312813  0.63473669  1
  O  O220  1  0.74474542  0.49514816  0.13040814  1
  O  O221  1  0.74718039  0.49539027  0.62923212  1
  O  O222  1  0.74990791  1.00062865  0.13730994  1
  O  O223  1  0.74352258  0.99625940  0.62902482  1
  O  O224  1  0.00507269  0.37013245  0.25571935  1
  O  O225  1  0.00772677  0.37446554  0.75623109  1
  O  O226  1  0.01093879  0.87687218  0.24978060  1
  O  O227  1  0.00027410  0.86828751  0.75644677  1
  O  O228  1  0.50597462  0.36712524  0.24929018  1
  O  O229  1  0.50674801  0.36527349  0.74974781  1
  O  O230  1  0.49910137  0.86744477  0.25658303  1
  O  O231  1  0.50812767  0.86853397  0.75055283  1
  O  O232  1  0.49326363  0.12927680  0.24505867  1
  O  O233  1  0.49644746  0.13257938  0.74455928  1
  O  O234  1  0.49369682  0.62990507  0.24525020  1
  O  O235  1  0.49469046  0.63203403  0.74956305  1
  O  O236  1  0.99461036  0.13091252  0.24468285  1
  O  O237  1  0.99042059  0.12480397  0.74579209  1
  O  O238  1  0.99316061  0.62489864  0.23999200  1
  O  O239  1  0.99537689  0.63114446  0.74382157  1
  O  O240  1  0.36896043  0.25546873  0.00694367  1
  O  O241  1  0.37000163  0.25419854  0.50564030  1
  O  O242  1  0.36864280  0.75684857  0.00632584  1
  O  O243  1  0.37446180  0.74831880  0.51178532  1
  O  O244  1  0.87382587  0.25694069  0.00729476  1
  O  O245  1  0.86869174  0.25710453  0.49773566  1
  O  O246  1  0.86946568  0.75462305  0.00486593  1
  O  O247  1  0.86737917  0.75135625  0.50655526  1
  O  O248  1  0.13083290  0.24577316  0.49460002  1
  O  O249  1  0.13202516  0.24940529  0.99370343  1
  O  O250  1  0.12640075  0.73725527  0.49933251  1
  O  O251  1  0.13163962  0.74727495  0.99415589  1
  O  O252  1  0.62969607  0.24526981  0.49411811  1
  O  O253  1  0.62757077  0.23673885  0.99891808  1
  O  O254  1  0.62947924  0.74460056  0.49382080  1
  O  O255  1  0.63065060  0.74464283  0.99415914  1
  O  O256  1  0.49292098  0.24165242  0.13209086  1
  O  O257  1  0.49546277  0.24466447  0.63367906  1
  O  O258  1  0.49359682  0.74352214  0.13155124  1
  O  O259  1  0.49151953  0.74824583  0.63161946  1
  O  O260  1  0.99527811  0.24578645  0.13135088  1
  O  O261  1  0.99759772  0.24144632  0.62790854  1
  O  O262  1  0.99336979  0.74009253  0.12732500  1
  O  O263  1  0.99470860  0.74543211  0.62973147  1
  O  O264  1  0.00578842  0.25563078  0.36966804  1
  O  O265  1  0.00694887  0.25732201  0.87249912  1
  O  O266  1  0.00352926  0.75472626  0.37003278  1
  O  O267  1  0.00513158  0.75375193  0.86992626  1
  O  O268  1  0.50655083  0.24978826  0.36794868  1
  O  O269  1  0.50029328  0.24972839  0.86175430  1
  O  O270  1  0.50361697  0.75408510  0.37027525  1
  O  O271  1  0.50821333  0.75322000  0.86821543  1
  O  O272  1  0.24494039  0.13149504  0.49521012  1
  O  O273  1  0.24827248  0.13080613  0.99403592  1
  O  O274  1  0.24231830  0.62312462  0.49215674  1
  O  O275  1  0.25016609  0.63097629  0.99463070  1
  O  O276  1  0.74416003  0.13057839  0.49398029  1
  O  O277  1  0.74356563  0.12437239  0.99197282  1
  O  O278  1  0.74519576  0.63102800  0.49310349  1
  O  O279  1  0.74485796  0.63112252  0.99374904  1
  O  O280  1  0.25786592  0.36814987  0.00707410  1
  O  O281  1  0.25494738  0.37008084  0.50529664  1
  O  O282  1  0.25579857  0.86800289  0.00580804  1
  O  O283  1  0.25413413  0.87063891  0.50343189  1
  O  O284  1  0.75628997  0.37280814  0.00605405  1
  O  O285  1  0.75730826  0.36890350  0.49712014  1
  O  O286  1  0.75704911  0.86874494  -0.00045359  1
  O  O287  1  0.74984236  0.86895669  0.50640378  1
  O  O288  1  0.13035385  0.49327693  0.24548794  1
  O  O289  1  0.13424689  0.49331325  0.74833889  1
  O  O290  1  0.12982791  0.99324327  0.24453047  1
  O  O291  1  0.13499852  1.00132541  0.74410643  1
  O  O292  1  0.63003226  0.49486694  0.24410206  1
  O  O293  1  0.62450901  0.48843079  0.74944786  1
  O  O294  1  0.63646923  1.00094659  0.24986570  1
  O  O295  1  0.62990623  0.99592182  0.74340263  1
  O  O296  1  0.36823257  0.00488020  0.25555736  1
  O  O297  1  0.36592304  0.00639588  0.74847094  1
  O  O298  1  0.36800787  0.50602899  0.25041477  1
  O  O299  1  0.37043741  0.50618953  0.75080410  1
  O  O300  1  0.86719395  0.00688039  0.25474208  1
  O  O301  1  0.86851354  0.01141858  0.75079743  1
  O  O302  1  0.86831033  0.50568887  0.25513722  1
  O  O303  1  0.87550540  0.50789870  0.75651729  1
  O  O304  1  0.12020345  0.37021451  0.37039867  1
  O  O305  1  0.12143013  0.37034586  0.87012295  1
  O  O306  1  0.12488534  0.87602575  0.36288306  1
  O  O307  1  0.11833247  0.86642679  0.87254052  1
  O  O308  1  0.62399755  0.36761507  0.36586929  1
  O  O309  1  0.62310794  0.37063126  0.86602775  1
  O  O310  1  0.61683066  0.86804641  0.37235535  1
  O  O311  1  0.62650665  0.86835713  0.86750087  1
  O  O312  1  0.37810440  0.12890878  0.13058396  1
  O  O313  1  0.38130285  0.13154439  0.63065172  1
  O  O314  1  0.37908492  0.62987038  0.13076867  1
  O  O315  1  0.37783086  0.63383082  0.63290012  1
  O  O316  1  0.88075531  0.13149186  0.13045601  1
  O  O317  1  0.88032625  0.12591371  0.63471588  1
  O  O318  1  0.88160960  0.62872542  0.12956373  1
  O  O319  1  0.88102314  0.63202976  0.62941770  1
  O  O320  1  0.25411785  0.25415740  0.12121072  1
  O  O321  1  0.25602498  0.25496752  0.61963478  1
  O  O322  1  0.25486019  0.75411569  0.12046756  1
  O  O323  1  0.26206132  0.75010238  0.62593013  1
  O  O324  1  0.75771290  0.25665856  0.12534220  1
  O  O325  1  0.75386550  0.25289462  0.61455755  1
  O  O326  1  0.75656617  0.74922216  0.11710053  1
  O  O327  1  0.75516815  0.75599347  0.61936401  1
  O  O328  1  0.24433281  0.24459480  0.38072762  1
  O  O329  1  0.24462041  0.24421850  0.88046356  1
  O  O330  1  0.24686423  0.73649821  0.37563047  1
  O  O331  1  0.24406564  0.74384917  0.87957587  1
  O  O332  1  0.74407109  0.24409602  0.37864171  1
  O  O333  1  0.74865881  0.23596729  0.87698730  1
  O  O334  1  0.74437931  0.74518075  0.37972522  1
  O  O335  1  0.74529164  0.74439187  0.88004725  1
  O  O336  1  0.00070811  0.11847694  0.00637030  1
  O  O337  1  0.00605784  0.12079917  0.50509487  1
  O  O338  1  0.00078611  0.62320821  0.01371768  1
  O  O339  1  0.00761188  0.62108338  0.50334685  1
  O  O340  1  0.50778801  0.12483193  0.00543201  1
  O  O341  1  0.50583966  0.12054627  0.50559234  1
  O  O342  1  0.50674070  0.62644018  0.00795469  1
  O  O343  1  0.50642916  0.61504047  0.49968421  1
  O  O344  1  0.49523368  0.38224455  0.49873345  1
  O  O345  1  0.48855525  0.37156080  1.00203423  1
  O  O346  1  0.49802751  0.88282299  0.49307229  1
  O  O347  1  0.48661161  0.87374050  1.00051710  1
  O  O348  1  0.99637197  0.38111570  0.49319512  1
  O  O349  1  0.99320197  0.37719750  0.99291748  1
  O  O350  1  0.99822855  0.88540551  0.49836638  1
  O  O351  1  0.99453716  0.87888449  0.99484352  1
  O  O352  1  0.49811027  0.49734408  0.38610394  1
  O  O353  1  0.49459821  0.49588779  0.88252816  1
  O  O354  1  0.49412807  0.99568353  0.37957493  1
  O  O355  1  0.49398861  0.99505751  0.87944080  1
  O  O356  1  0.99450868  0.49553207  0.37911136  1
  O  O357  1  0.99426004  0.49407631  0.87631680  1
  O  O358  1  0.99284553  1.00170423  0.38164822  1
  O  O359  1  0.99980507  0.99289117  0.88162988  1
  O  O360  1  0.00389534  0.00593854  0.11962089  1
  O  O361  1  0.00570689  0.00724789  0.61988867  1
  O  O362  1  0.00503607  0.50899190  0.12534172  1
  O  O363  1  0.00245981  0.50901421  0.61713746  1
  O  O364  1  0.50040293  0.00771495  0.12160391  1
  O  O365  1  0.50555561  0.00587100  0.62007151  1
  O  O366  1  0.50712136  0.50689872  0.12361293  1
  O  O367  1  0.50341833  0.50145182  0.61163889  1
  O  O368  1  0.24447842  0.37852834  0.24555912  1
  O  O369  1  0.24709713  0.37939225  0.74525973  1
  O  O370  1  0.24223019  0.88022622  0.24478405  1
  O  O371  1  0.24965826  0.88801897  0.74894057  1
  O  O372  1  0.74462062  0.38093234  0.24392333  1
  O  O373  1  0.73928930  0.37393379  0.75014835  1
  O  O374  1  0.74841493  0.88754456  0.24922530  1
  O  O375  1  0.74523403  0.88118093  0.74369170  1
  O  O376  1  0.25424140  0.11977001  0.25564192  1
  O  O377  1  0.25551421  0.11781348  0.75443234  1
  O  O378  1  0.25328305  0.62001834  0.25709005  1
  O  O379  1  0.25638629  0.61886145  0.75631230  1
  O  O380  1  0.75537791  0.11878353  0.25508051  1
  O  O381  1  0.75572194  0.12139509  0.75585250  1
  O  O382  1  0.75413884  0.61933857  0.25494077  1
  O  O383  1  0.75790248  0.62653440  0.75672461  1
  O  O384  1  0.36896378  0.11988683  0.36932256  1
  O  O385  1  0.36687567  0.12400878  0.86791047  1
  O  O386  1  0.36493356  0.62340216  0.36910437  1
  O  O387  1  0.36818111  0.62618700  0.86899328  1
  O  O388  1  0.86915362  0.12086460  0.36850142  1
  O  O389  1  0.86720450  0.12357157  0.86733827  1
  O  O390  1  0.86902420  0.62017954  0.36921913  1
  O  O391  1  0.87125507  0.62077925  0.86977259  1
  O  O392  1  0.12971022  0.37856834  0.13180849  1
  O  O393  1  0.13278680  0.37662962  0.63121192  1
  O  O394  1  0.12920512  0.88000524  0.13236602  1
  O  O395  1  0.12809252  0.88442280  0.62889241  1
  O  O396  1  0.63065680  0.37935993  0.12963861  1
  O  O397  1  0.62777332  0.37605171  0.63728258  1
  O  O398  1  0.62918721  0.87813234  0.12867142  1
  O  O399  1  0.63044160  0.88098109  0.63001455  1
  O  O400  1  0.11958567  0.25531914  0.25607006  1
  O  O401  1  0.12569458  0.25769791  0.75723129  1
  O  O402  1  0.12369489  0.76283807  0.25003989  1
  O  O403  1  0.11834644  0.75005948  0.75627518  1
  O  O404  1  0.61959083  0.25375488  0.25373648  1
  O  O405  1  0.61608817  0.25625711  0.75025194  1
  O  O406  1  0.61736548  0.74909115  0.25728078  1
  O  O407  1  0.62123981  0.75535300  0.75445431  1
  O  O408  1  0.37867032  0.24324373  0.24540451  1
  O  O409  1  0.38300990  0.24584610  0.74446913  1
  O  O410  1  0.37896214  0.74382501  0.24450384  1
  O  O411  1  0.38070128  0.74482999  0.74352563  1
  O  O412  1  0.88081905  0.24579771  0.24543649  1
  O  O413  1  0.87564174  0.23702933  0.74882787  1
  O  O414  1  0.87350535  0.74312531  0.24302633  1
  O  O415  1  0.88108817  0.74441982  0.74397320  1
  O  O416  1  0.38453668  0.49452061  0.49926957  1
  O  O417  1  0.37565553  0.48581003  1.00322663  1
  O  O418  1  0.38202609  1.00165253  0.49358473  1
  O  O419  1  0.37201524  0.98654317  0.99924862  1
  O  O420  1  0.88080794  0.49636752  0.49241493  1
  O  O421  1  0.87693992  0.49312830  0.99216231  1
  O  O422  1  0.88095443  1.00158772  0.49356047  1
  O  O423  1  0.88210121  0.99276499  0.99877834  1
  O  O424  1  0.11858352  -0.00021197  0.00725255  1
  O  O425  1  0.12042371  0.00816266  0.50503949  1
  O  O426  1  0.12348139  0.50184516  0.00992464  1
  O  O427  1  0.11888752  0.51094834  0.50073764  1
  O  O428  1  0.62441380  0.01228069  0.00103607  1
  O  O429  1  0.61938791  0.00686486  0.50449616  1
  O  O430  1  0.62554571  0.50726502  0.00711158  1
  O  O431  1  0.61713913  0.50496427  0.49844544  1
  O  O432  1  0.36867963  0.36736371  0.11960415  1
  O  O433  1  0.36980175  0.36867022  0.61939646  1
  O  O434  1  0.36767947  0.86842987  0.11860407  1
  O  O435  1  0.37371021  0.86292314  0.62386803  1
  O  O436  1  0.87011024  0.37116602  0.12040238  1
  O  O437  1  0.87565255  0.37340830  0.61549907  1
  O  O438  1  0.87312253  0.86751791  0.11768641  1
  O  O439  1  0.86774180  0.86938935  0.62394813  1
  O  O440  1  0.13024891  0.13101644  0.38017471  1
  O  O441  1  0.13127735  0.13247788  0.87632696  1
  O  O442  1  0.13284459  0.62501723  0.38255731  1
  O  O443  1  0.13205464  0.63059452  0.87687811  1
  O  O444  1  0.62987215  0.13108985  0.38059598  1
  O  O445  1  0.63343746  0.12574565  0.88224352  1
  O  O446  1  0.63099328  0.63092079  0.37976664  1
  O  O447  1  0.63124200  0.63113649  0.88015492  1
