# generated using pymatgen
data_V3Zn3O8
_symmetry_space_group_name_H-M   'P 1'
_cell_length_a   17.08704276
_cell_length_b   17.08603981
_cell_length_c   17.08770202
_cell_angle_alpha   90.02223045
_cell_angle_beta   89.99361132
_cell_angle_gamma   90.01054978
_symmetry_Int_Tables_number   1
_chemical_formula_structural   V3Zn3O8
_chemical_formula_sum   'V96 Zn96 O256'
_cell_volume   4988.75228388
_cell_formula_units_Z   32
loop_
 _symmetry_equiv_pos_site_id
 _symmetry_equiv_pos_as_xyz
  1  'x, y, z'
loop_
 _atom_site_type_symbol
 _atom_site_label
 _atom_site_symmetry_multiplicity
 _atom_site_fract_x
 _atom_site_fract_y
 _atom_site_fract_z
 _atom_site_occupancy
  V  V0  1  -0.00000467  0.62604170  0.12557972  1
  V  V1  1  0.62514283  0.24930780  0.37485657  1
  V  V2  1  0.87493470  0.87608575  -0.00126205  1
  V  V3  1  0.25067260  0.75138378  -0.00106100  1
  V  V4  1  0.49980362  0.00096988  0.00009235  1
  V  V5  1  0.87593441  0.74929191  0.62444335  1
  V  V6  1  0.62504662  0.24931819  0.87479032  1
  V  V7  1  0.37515203  0.75057029  0.12394215  1
  V  V8  1  0.62459964  0.49977579  0.62571015  1
  V  V9  1  0.00037631  -0.00098675  0.49875152  1
  V  V10  1  0.49857511  0.37402372  0.87543281  1
  V  V11  1  0.87475636  0.24909215  0.62388676  1
  V  V12  1  0.37312794  0.62427321  0.24965591  1
  V  V13  1  0.62719633  0.74702860  0.37657628  1
  V  V14  1  0.62492457  0.87392077  0.24906986  1
  V  V15  1  0.74986263  0.87589899  0.12386404  1
  V  V16  1  0.62358870  0.00023345  0.12397581  1
  V  V17  1  0.62416375  0.62395854  0.00041972  1
  V  V18  1  0.37485969  0.37495623  0.50013439  1
  V  V19  1  0.12399458  0.25061890  0.87544719  1
  V  V20  1  0.12576464  0.75128722  0.87538870  1
  V  V21  1  0.12500922  0.37451190  0.75015516  1
  V  V22  1  0.37341631  0.00065253  0.37285168  1
  V  V23  1  0.12747885  0.87649966  0.24957114  1
  V  V24  1  0.49890426  0.24986095  0.24941804  1
  V  V25  1  0.49998205  0.37509448  0.37507755  1
  V  V26  1  0.37464514  0.50101849  0.37416306  1
  V  V27  1  0.37418548  0.00156468  0.87427849  1
  V  V28  1  0.12584926  0.25126307  0.37577264  1
  V  V29  1  0.74987498  0.00007166  0.24972339  1
  V  V30  1  0.62418914  0.87326790  0.75046256  1
  V  V31  1  0.25032790  0.12481976  0.87455604  1
  V  V32  1  0.00045586  0.25068939  0.75014971  1
  V  V33  1  0.75104165  0.24917558  0.49996840  1
  V  V34  1  0.49984245  0.12460043  0.62477844  1
  V  V35  1  0.62564073  0.12369706  0.49951023  1
  V  V36  1  0.12591913  0.87611773  0.74967711  1
  V  V37  1  0.49969053  0.24856713  0.74929929  1
  V  V38  1  0.37515921  0.74931426  0.62499450  1
  V  V39  1  0.74990524  0.74963903  -0.00047512  1
  V  V40  1  0.87457677  0.62457175  0.75151601  1
  V  V41  1  0.00074918  0.12430399  0.62451210  1
  V  V42  1  0.87448902  0.50041043  0.37603011  1
  V  V43  1  0.87426725  0.24926969  0.12635766  1
  V  V44  1  0.75010875  0.49964095  0.75006869  1
  V  V45  1  0.12614524  0.12577578  0.49887162  1
  V  V46  1  0.62552811  0.37491040  0.74982572  1
  V  V47  1  0.24840767  0.25089933  0.00104414  1
  V  V48  1  0.49868171  0.12528669  0.12487277  1
  V  V49  1  0.87514218  -0.00056959  0.37428160  1
  V  V50  1  0.00006985  0.49988765  0.50244105  1
  V  V51  1  0.74935697  0.25032226  -0.00040659  1
  V  V52  1  0.00082444  0.87584953  0.37444126  1
  V  V53  1  0.62509966  0.37536998  0.25009965  1
  V  V54  1  0.37424914  0.25028867  0.12619505  1
  V  V55  1  0.24988379  0.62607006  0.87492984  1
  V  V56  1  0.62561296  -0.00176517  0.62361698  1
  V  V57  1  0.00109234  0.75137512  0.25011184  1
  V  V58  1  0.12634555  0.62539917  0.50048205  1
  V  V59  1  0.75106500  0.50025834  0.25137045  1
  V  V60  1  -0.00088480  0.25033087  0.25001156  1
  V  V61  1  0.37450308  0.87280620  0.50085597  1
  V  V62  1  -0.00046332  0.87648642  0.87572439  1
  V  V63  1  0.37521630  0.62465154  0.74985379  1
  V  V64  1  0.50138782  0.50018464  0.50061728  1
  V  V65  1  0.12469441  0.00213360  0.12453674  1
  V  V66  1  -0.00171817  0.50024334  -0.00044834  1
  V  V67  1  0.75043042  0.62424457  0.87550226  1
  V  V68  1  0.37564874  0.24943393  0.62397740  1
  V  V69  1  0.87473720  0.37456485  0.50034486  1
  V  V70  1  0.50004298  0.87366646  0.37469439  1
  V  V71  1  -0.00021860  0.74987651  0.75136934  1
  V  V72  1  0.62506391  0.50001989  0.12479505  1
  V  V73  1  0.87509567  0.12493580  0.74976312  1
  V  V74  1  0.37425551  0.37551961  -0.00024494  1
  V  V75  1  0.87562645  0.75126026  0.12507035  1
  V  V76  1  0.37530144  0.87487160  -0.00070507  1
  V  V77  1  0.12321204  0.12595795  0.00142136  1
  V  V78  1  0.37436436  0.49911462  0.87604578  1
  V  V79  1  0.49953052  0.74920839  0.24839100  1
  V  V80  1  0.12601312  -0.00047270  0.62473009  1
  V  V81  1  0.87483963  0.62522234  0.25143700  1
  V  V82  1  0.75006675  0.12299362  0.37420246  1
  V  V83  1  0.87493720  0.00058400  0.87459077  1
  V  V84  1  0.75020400  0.12576088  0.87397402  1
  V  V85  1  0.50052494  -0.00154368  0.49958701  1
  V  V86  1  0.25053291  0.37404177  0.62543122  1
  V  V87  1  0.74933550  0.37428549  0.12547706  1
  V  V88  1  0.24893406  0.49866551  0.75058249  1
  V  V89  1  0.87476574  0.37579843  0.00026769  1
  V  V90  1  0.50091201  0.87577914  0.87416484  1
  V  V91  1  0.49966778  0.62402445  0.62560860  1
  V  V92  1  0.75109061  0.87365696  0.62399849  1
  V  V93  1  0.25038199  0.87451371  0.62483610  1
  V  V94  1  0.24872016  0.37645964  0.12586744  1
  V  V95  1  0.12523190  0.50042927  0.12807468  1
  Zn  Zn96  1  0.62438661  0.12526510  -0.00127090  1
  Zn  Zn97  1  0.49998119  0.74830408  0.75130318  1
  Zn  Zn98  1  -0.00316912  0.12524754  0.12394909  1
  Zn  Zn99  1  0.24949046  0.74799460  0.49821878  1
  Zn  Zn100  1  0.25097509  0.00293143  0.24940482  1
  Zn  Zn101  1  0.75056272  0.62493905  0.37794962  1
  Zn  Zn102  1  0.12458156  0.50011467  0.62662079  1
  Zn  Zn103  1  0.24913676  0.62573574  0.37589048  1
  Zn  Zn104  1  0.37352800  0.12394185  0.74851839  1
  Zn  Zn105  1  0.25160315  0.12646856  0.37412660  1
  Zn  Zn106  1  0.00037278  0.37521220  0.37528477  1
  Zn  Zn107  1  -0.00098606  0.37573995  0.87438228  1
  Zn  Zn108  1  0.00168756  0.62437517  0.62790855  1
  Zn  Zn109  1  0.49899798  0.62292430  0.12288819  1
  Zn  Zn110  1  0.75101502  0.00066742  0.74958795  1
  Zn  Zn111  1  -0.00157353  0.00279101  0.00060510  1
  Zn  Zn112  1  0.74957291  0.37458724  0.62553126  1
  Zn  Zn113  1  0.87409783  0.12460909  0.24822206  1
  Zn  Zn114  1  0.12583837  0.37586948  0.25315916  1
  Zn  Zn115  1  0.12487124  0.62737748  0.00023942  1
  Zn  Zn116  1  0.62765687  0.62451303  0.50165110  1
  Zn  Zn117  1  0.25146977  0.00184236  0.74904297  1
  Zn  Zn118  1  0.25097038  0.24954161  0.49905518  1
  Zn  Zn119  1  0.25142013  0.87663552  0.12489683  1
  Zn  Zn120  1  0.49911820  0.49955831  0.00085678  1
  Zn  Zn121  1  0.37261444  0.12551337  0.25065460  1
  Zn  Zn122  1  0.87651153  0.87320240  0.49883780  1
  Zn  Zn123  1  0.12750575  0.74964759  0.37525022  1
  Zn  Zn124  1  0.87551690  0.49842642  0.87357697  1
  Zn  Zn125  1  0.62378188  0.74926759  0.87509046  1
  Zn  Zn126  1  0.24862949  0.50007766  0.25241515  1
  Zn  Zn127  1  0.75287328  0.74675313  0.49817946  1
  Zn  Zn128  1  0.18857482  0.18576275  0.19114312  1
  Zn  Zn129  1  0.18880337  0.18763741  0.68769651  1
  Zn  Zn130  1  0.18896133  0.68898470  0.18524764  1
  Zn  Zn131  1  0.18804546  0.68729144  0.68543229  1
  Zn  Zn132  1  0.68591531  0.18604978  0.18691798  1
  Zn  Zn133  1  0.68778582  0.18727192  0.68729778  1
  Zn  Zn134  1  0.68891424  0.68657079  0.18754784  1
  Zn  Zn135  1  0.68749371  0.68642546  0.68779729  1
  Zn  Zn136  1  0.31072743  0.31505380  0.31104455  1
  Zn  Zn137  1  0.31219483  0.31041599  0.81177066  1
  Zn  Zn138  1  0.30965038  0.81047595  0.31432698  1
  Zn  Zn139  1  0.31317010  0.81344338  0.81105901  1
  Zn  Zn140  1  0.81364874  0.31349187  0.31416626  1
  Zn  Zn141  1  0.81351767  0.31356021  0.81321961  1
  Zn  Zn142  1  0.81324386  0.81376583  0.31138402  1
  Zn  Zn143  1  0.81107961  0.81139396  0.81262089  1
  Zn  Zn144  1  0.18905749  0.43817869  0.43761174  1
  Zn  Zn145  1  0.18553882  0.43781389  0.93824887  1
  Zn  Zn146  1  0.18891985  0.93689285  0.43847080  1
  Zn  Zn147  1  0.18825371  0.93887717  0.93827057  1
  Zn  Zn148  1  0.68845207  0.43700587  0.43869084  1
  Zn  Zn149  1  0.68782599  0.43781816  0.93609592  1
  Zn  Zn150  1  0.68876245  0.93407008  0.43758444  1
  Zn  Zn151  1  0.68800479  0.93974491  0.93669404  1
  Zn  Zn152  1  0.31111463  0.06337450  0.06212131  1
  Zn  Zn153  1  0.31132816  0.06263936  0.55979688  1
  Zn  Zn154  1  0.31115622  0.56412491  0.06186112  1
  Zn  Zn155  1  0.31190427  0.56058372  0.56345114  1
  Zn  Zn156  1  0.81167772  0.06440072  0.06113961  1
  Zn  Zn157  1  0.81369042  0.06042050  0.56105938  1
  Zn  Zn158  1  0.81215004  0.56295687  0.06445723  1
  Zn  Zn159  1  0.81006998  0.56403494  0.56275708  1
  Zn  Zn160  1  0.43833708  0.43855861  0.18610939  1
  Zn  Zn161  1  0.43712347  0.43682649  0.68834214  1
  Zn  Zn162  1  0.43827798  0.93626861  0.18728085  1
  Zn  Zn163  1  0.43702923  0.93807030  0.68831177  1
  Zn  Zn164  1  0.93794159  0.43571432  0.18836257  1
  Zn  Zn165  1  0.93633880  0.43625111  0.68645618  1
  Zn  Zn166  1  0.93871470  0.93856603  0.18754471  1
  Zn  Zn167  1  0.93882957  0.93793721  0.68872970  1
  Zn  Zn168  1  0.06192034  0.06526404  0.31153646  1
  Zn  Zn169  1  0.06299923  0.06287065  0.81283868  1
  Zn  Zn170  1  0.06019454  0.56431856  0.31587186  1
  Zn  Zn171  1  0.06345852  0.56370969  0.81343969  1
  Zn  Zn172  1  0.56077374  0.06253651  0.31093595  1
  Zn  Zn173  1  0.56298086  0.06167733  0.81092414  1
  Zn  Zn174  1  0.56053640  0.56316310  0.31138305  1
  Zn  Zn175  1  0.56192302  0.56083896  0.81352570  1
  Zn  Zn176  1  0.43853914  0.18689286  0.43870896  1
  Zn  Zn177  1  0.43616610  0.18706835  0.93842210  1
  Zn  Zn178  1  0.43913829  0.68643581  0.43806193  1
  Zn  Zn179  1  0.43869327  0.68886736  0.93552271  1
  Zn  Zn180  1  0.93835961  0.18549494  0.43584301  1
  Zn  Zn181  1  0.93765325  0.18789930  0.93793587  1
  Zn  Zn182  1  0.94116741  0.68710022  0.43713265  1
  Zn  Zn183  1  0.93738432  0.68726165  0.93726519  1
  Zn  Zn184  1  0.06142972  0.31405243  0.06456182  1
  Zn  Zn185  1  0.06294532  0.31339616  0.56303281  1
  Zn  Zn186  1  0.06268886  0.81509010  0.06182552  1
  Zn  Zn187  1  0.06270830  0.81185506  0.56227288  1
  Zn  Zn188  1  0.56180568  0.31232677  0.06162680  1
  Zn  Zn189  1  0.56276535  0.31274589  0.56258407  1
  Zn  Zn190  1  0.56115832  0.81143289  0.06154601  1
  Zn  Zn191  1  0.56081603  0.80985088  0.56235771  1
  O  O192  1  0.12425732  0.11713366  0.11998033  1
  O  O193  1  0.11952241  0.12022975  0.61946103  1
  O  O194  1  0.11867994  0.61706723  0.12361789  1
  O  O195  1  0.12168499  0.62137730  0.61631074  1
  O  O196  1  0.61737311  0.11785152  0.12299270  1
  O  O197  1  0.62062739  0.11843903  0.61868643  1
  O  O198  1  0.62609971  0.61930348  0.11558712  1
  O  O199  1  0.61752665  0.61790998  0.62577134  1
  O  O200  1  0.38135738  0.38041038  0.37974283  1
  O  O201  1  0.37855960  0.37904949  0.88028337  1
  O  O202  1  0.38132587  0.88077291  0.38012614  1
  O  O203  1  0.38113868  0.88104887  0.87975255  1
  O  O204  1  0.87679817  0.38210382  0.38303577  1
  O  O205  1  0.87827651  0.37829365  0.88426936  1
  O  O206  1  0.88218238  0.88121025  0.37558967  1
  O  O207  1  0.87908904  0.87995910  0.87908914  1
  O  O208  1  0.26391359  -0.00081903  0.37540209  1
  O  O209  1  0.25630385  0.00722504  0.87494996  1
  O  O210  1  0.25908223  0.50345280  0.37192537  1
  O  O211  1  0.25453301  0.50537194  0.87056449  1
  O  O212  1  0.75414542  0.00278266  0.36972013  1
  O  O213  1  0.75693308  0.00718120  0.87244174  1
  O  O214  1  0.75614283  0.50046748  0.36823831  1
  O  O215  1  0.75211564  0.50650765  0.86822035  1
  O  O216  1  0.23910475  0.49633445  0.12429618  1
  O  O217  1  0.24987389  0.49147057  0.63385033  1
  O  O218  1  0.23781360  0.99787331  0.12619729  1
  O  O219  1  0.24340452  0.99324374  0.62516110  1
  O  O220  1  0.74544746  0.49348461  0.13176839  1
  O  O221  1  0.74282705  0.49828108  0.63254790  1
  O  O222  1  0.74379594  0.99466660  0.12921869  1
  O  O223  1  0.74503910  0.98969000  0.62540283  1
  O  O224  1  0.00204129  0.36308952  0.25279337  1
  O  O225  1  0.00618513  0.36836847  0.75050330  1
  O  O226  1  0.00850239  0.87105561  0.25416569  1
  O  O227  1  0.00571683  0.86926185  0.75617553  1
  O  O228  1  0.50602169  0.36994945  0.25541864  1
  O  O229  1  0.50520226  0.36856350  0.75600016  1
  O  O230  1  0.50633770  0.86863920  0.25506157  1
  O  O231  1  0.51024978  0.87499890  0.75443694  1
  O  O232  1  0.49782692  0.13242719  0.24329884  1
  O  O233  1  0.49990876  0.13107202  0.74176176  1
  O  O234  1  0.48926038  0.63073059  0.24718768  1
  O  O235  1  0.49272512  0.62428120  0.74451776  1
  O  O236  1  0.99656957  0.13835637  0.24772948  1
  O  O237  1  0.99510842  0.13098827  0.74386644  1
  O  O238  1  0.99422893  0.63135196  0.24451767  1
  O  O239  1  0.99361291  0.63196118  0.74992753  1
  O  O240  1  0.36792164  0.25618719  0.00618258  1
  O  O241  1  0.37602231  0.25752304  0.50558173  1
  O  O242  1  0.37079669  0.75528233  0.00384115  1
  O  O243  1  0.37574933  0.75587375  0.50684012  1
  O  O244  1  0.86901471  0.25620005  0.00589520  1
  O  O245  1  0.87074283  0.25343823  0.50401861  1
  O  O246  1  0.86954825  0.75573606  0.00578754  1
  O  O247  1  0.87669532  0.75195566  0.51228577  1
  O  O248  1  0.12313332  0.24454907  0.49075773  1
  O  O249  1  0.12958924  0.24669824  0.99619861  1
  O  O250  1  0.12380441  0.73765945  0.49962477  1
  O  O251  1  0.13130028  0.75088179  0.99330131  1
  O  O252  1  0.62993867  0.24379148  0.49419182  1
  O  O253  1  0.63176077  0.24990368  0.99267441  1
  O  O254  1  0.62500147  0.74956731  0.48715609  1
  O  O255  1  0.63173688  0.74005008  1.00069929  1
  O  O256  1  0.49435623  0.24609995  0.12996247  1
  O  O257  1  0.49608924  0.24408751  0.62940803  1
  O  O258  1  0.49347823  0.74781993  0.13102490  1
  O  O259  1  0.49336317  0.74239646  0.62757906  1
  O  O260  1  0.99349153  0.25066167  0.13403815  1
  O  O261  1  0.99476196  0.24328442  0.62990423  1
  O  O262  1  0.99450317  0.74632469  0.12958788  1
  O  O263  1  0.98968666  0.75166939  0.63288755  1
  O  O264  1  0.00757532  0.25092435  0.36771350  1
  O  O265  1  0.00650975  0.25114312  0.86783140  1
  O  O266  1  0.00285553  0.75737372  0.36702876  1
  O  O267  1  0.00515439  0.75627663  0.87060837  1
  O  O268  1  0.50609079  0.25537543  0.37018260  1
  O  O269  1  0.50464993  0.25442508  0.86956855  1
  O  O270  1  0.50777936  0.75502483  0.36860524  1
  O  O271  1  0.50390030  0.75969109  0.87184248  1
  O  O272  1  0.24142231  0.12881733  0.49586173  1
  O  O273  1  0.24329113  0.13257526  0.99492722  1
  O  O274  1  0.23839437  0.62338691  0.50067824  1
  O  O275  1  0.24866113  0.63301552  0.99207170  1
  O  O276  1  0.74436315  0.12862867  0.49402989  1
  O  O277  1  0.74761581  0.13302360  0.99218147  1
  O  O278  1  0.74516813  0.62962583  0.49572177  1
  O  O279  1  0.74315754  0.62945779  0.99651255  1
  O  O280  1  0.25445461  0.36988999  0.00565704  1
  O  O281  1  0.25783790  0.37399471  0.50731303  1
  O  O282  1  0.25794170  0.86852160  -0.00035141  1
  O  O283  1  0.25681643  0.87290290  0.50763632  1
  O  O284  1  0.75454803  0.37015888  0.00603168  1
  O  O285  1  0.75631247  0.36674845  0.50177926  1
  O  O286  1  0.75475568  0.86974069  0.00482566  1
  O  O287  1  0.75225533  0.87067922  0.51286628  1
  O  O288  1  0.12260673  0.50026788  0.23840456  1
  O  O289  1  0.13098861  0.49339767  0.75019450  1
  O  O290  1  0.12400307  0.99260744  0.24238353  1
  O  O291  1  0.12506598  0.99338429  0.74239080  1
  O  O292  1  0.63034242  0.49453449  0.24544645  1
  O  O293  1  0.62985923  0.49398425  0.74554076  1
  O  O294  1  0.62914608  0.99297743  0.24454980  1
  O  O295  1  0.62696836  0.98901650  0.74235040  1
  O  O296  1  0.37619781  -0.00129293  0.26178194  1
  O  O297  1  0.37340516  0.00294383  0.75834917  1
  O  O298  1  0.37624118  0.50948977  0.25444163  1
  O  O299  1  0.36858695  0.50416994  0.75677304  1
  O  O300  1  0.86756445  0.00070157  0.25558364  1
  O  O301  1  0.87437084  0.00736114  0.75591574  1
  O  O302  1  0.87110153  0.50469241  0.25515155  1
  O  O303  1  0.86906456  0.50648622  0.75022766  1
  O  O304  1  0.12190630  0.36487147  0.37464390  1
  O  O305  1  0.12343584  0.36790613  0.86884562  1
  O  O306  1  0.11918552  0.87708606  0.36436187  1
  O  O307  1  0.11971973  0.87083230  0.86974132  1
  O  O308  1  0.61996115  0.36896135  0.36954432  1
  O  O309  1  0.61905725  0.36911559  0.86954570  1
  O  O310  1  0.62004957  0.86726120  0.36894928  1
  O  O311  1  0.62110229  0.87611162  0.86513526  1
  O  O312  1  0.38093152  0.13267082  0.12542409  1
  O  O313  1  0.38272561  0.13041907  0.62339573  1
  O  O314  1  0.37650247  0.63084682  0.13270611  1
  O  O315  1  0.37997663  0.62861655  0.63074832  1
  O  O316  1  0.87518517  0.13366853  0.12761720  1
  O  O317  1  0.88120125  0.12891315  0.62915903  1
  O  O318  1  0.88018103  0.63180757  0.13137521  1
  O  O319  1  0.87503591  0.63616653  0.63226136  1
  O  O320  1  0.25392345  0.25614582  0.12022718  1
  O  O321  1  0.25758245  0.25642509  0.62347925  1
  O  O322  1  0.25732133  0.75302081  0.11681441  1
  O  O323  1  0.25766724  0.75677036  0.62289430  1
  O  O324  1  0.75332462  0.25558647  0.12032713  1
  O  O325  1  0.75660792  0.24911297  0.61709790  1
  O  O326  1  0.75614179  0.75647636  0.12032458  1
  O  O327  1  0.75915329  0.75787107  0.62638481  1
  O  O328  1  0.23796343  0.25056635  0.37616958  1
  O  O329  1  0.24396952  0.24546039  0.88172995  1
  O  O330  1  0.24526508  0.74468173  0.38023786  1
  O  O331  1  0.24542259  0.74568864  0.87914925  1
  O  O332  1  0.74412038  0.24357771  0.37990930  1
  O  O333  1  0.74473628  0.24552119  0.87985545  1
  O  O334  1  0.73918593  0.75096382  0.37425577  1
  O  O335  1  0.74752502  0.74322706  0.88232314  1
  O  O336  1  0.00794592  0.12371395  0.00297158  1
  O  O337  1  0.00564553  0.11861090  0.50566586  1
  O  O338  1  0.00003872  0.61672395  0.00719988  1
  O  O339  1  0.00707210  0.61563357  0.50270149  1
  O  O340  1  0.50148095  0.11894621  0.00659798  1
  O  O341  1  0.50752201  0.11857598  0.50513191  1
  O  O342  1  0.51245375  0.62341539  -0.00013292  1
  O  O343  1  0.50236130  0.61694033  0.50732505  1
  O  O344  1  0.49513598  0.38007981  0.49405991  1
  O  O345  1  0.49219665  0.37487866  0.99292337  1
  O  O346  1  0.49485932  0.87979651  0.49471390  1
  O  O347  1  0.49517323  0.88110798  0.99412812  1
  O  O348  1  0.99395658  0.38429686  0.50013381  1
  O  O349  1  0.99365741  0.38544418  1.00128103  1
  O  O350  1  1.00089845  0.88196211  0.49272734  1
  O  O351  1  0.99209446  0.87669369  0.99298191  1
  O  O352  1  0.49564056  0.49356599  0.37994439  1
  O  O353  1  0.49220926  0.49158483  0.87672850  1
  O  O354  1  0.49431889  0.99317147  0.37996456  1
  O  O355  1  0.49511499  0.99569233  0.88065051  1
  O  O356  1  0.99326050  0.49847687  0.38618795  1
  O  O357  1  0.99938831  0.49985589  0.88862496  1
  O  O358  1  0.99481596  0.99591764  0.37888735  1
  O  O359  1  0.99316328  0.99364552  0.87616551  1
  O  O360  1  0.01146648  0.00283666  0.12354713  1
  O  O361  1  0.00579249  0.00484391  0.61925127  1
  O  O362  1  0.00597292  0.50508013  0.11875530  1
  O  O363  1  -0.00000998  0.50188076  0.61350686  1
  O  O364  1  0.50438641  0.00466972  0.11978834  1
  O  O365  1  0.50596342  0.00376894  0.61828136  1
  O  O366  1  0.50929716  0.50183693  0.12100748  1
  O  O367  1  0.50437423  0.50418093  0.62048464  1
  O  O368  1  0.24669110  0.38024779  0.24071869  1
  O  O369  1  0.24487390  0.37925105  0.74575180  1
  O  O370  1  0.23793905  0.87758106  0.24810681  1
  O  O371  1  0.24298772  0.87723374  0.74324894  1
  O  O372  1  0.74421759  0.37994095  0.24527543  1
  O  O373  1  0.74320828  0.38069984  0.74912706  1
  O  O374  1  0.74442238  0.88057813  0.24274768  1
  O  O375  1  0.74203101  0.87594375  0.74049273  1
  O  O376  1  0.25536767  0.12056990  0.25642337  1
  O  O377  1  0.25203768  0.12310086  0.75876200  1
  O  O378  1  0.26300707  0.62402607  0.24977710  1
  O  O379  1  0.25536322  0.61907937  0.75548651  1
  O  O380  1  0.74858858  0.11742091  0.25707557  1
  O  O381  1  0.75724362  0.12403009  0.75547561  1
  O  O382  1  0.75757652  0.61778097  0.25107874  1
  O  O383  1  0.75449610  0.61978956  0.75611912  1
  O  O384  1  0.37759235  0.11217687  0.37558627  1
  O  O385  1  0.36808359  0.11945748  0.87494229  1
  O  O386  1  0.37708088  0.61956220  0.36496228  1
  O  O387  1  0.36972065  0.61933214  0.86987895  1
  O  O388  1  0.86713856  0.11738724  0.37322325  1
  O  O389  1  0.86985534  0.12109448  0.86927070  1
  O  O390  1  0.87513031  0.61917739  0.36803814  1
  O  O391  1  0.86816322  0.62357787  0.86927648  1
  O  O392  1  0.13006615  0.38551633  0.12612074  1
  O  O393  1  0.13237993  0.37555646  0.63230569  1
  O  O394  1  0.12460147  0.88431161  0.13330485  1
  O  O395  1  0.12985942  0.87985116  0.62991362  1
  O  O396  1  0.63049264  0.37931209  0.13058672  1
  O  O397  1  0.62538759  0.38100662  0.63253241  1
  O  O398  1  0.62999766  0.87968406  0.12949241  1
  O  O399  1  0.63182063  0.87751072  0.63086420  1
  O  O400  1  0.11613481  0.25072999  0.25862934  1
  O  O401  1  0.11958130  0.25475400  0.75552415  1
  O  O402  1  0.11927849  0.76083433  0.24720703  1
  O  O403  1  0.11984056  0.75595599  0.75540984  1
  O  O404  1  0.61959964  0.25602036  0.25532915  1
  O  O405  1  0.61950373  0.25517136  0.75471624  1
  O  O406  1  0.62051943  0.75472984  0.25591013  1
  O  O407  1  0.62390495  0.76245783  0.75099248  1
  O  O408  1  0.38223834  0.25127599  0.24382781  1
  O  O409  1  0.38274867  0.24829284  0.74251674  1
  O  O410  1  0.37978367  0.74351888  0.24503608  1
  O  O411  1  0.37625502  0.74238969  0.74342304  1
  O  O412  1  0.88220225  0.24990310  0.24556995  1
  O  O413  1  0.88036441  0.24447906  0.74415231  1
  O  O414  1  0.88088146  0.74634379  0.24379894  1
  O  O415  1  0.87966838  0.74522317  0.74356167  1
  O  O416  1  0.38210311  0.49443003  0.49470819  1
  O  O417  1  0.37464515  0.49346706  0.99376177  1
  O  O418  1  0.38194133  0.99313776  0.49254607  1
  O  O419  1  0.38055367  0.99451057  0.99490067  1
  O  O420  1  0.88157159  0.49609951  0.49669404  1
  O  O421  1  0.88430383  0.49520462  1.00267966  1
  O  O422  1  0.88257950  0.99682626  0.49310988  1
  O  O423  1  0.87513746  0.99347575  0.99339377  1
  O  O424  1  0.12334778  0.00574902  0.00900953  1
  O  O425  1  0.11941604  0.00552037  0.50481510  1
  O  O426  1  0.11525096  0.50157909  0.01021890  1
  O  O427  1  0.11551917  0.50597419  0.50125337  1
  O  O428  1  0.61798515  0.00080218  0.00655691  1
  O  O429  1  0.62019198  0.00339124  0.50369341  1
  O  O430  1  0.62649424  0.50912827  0.00569399  1
  O  O431  1  0.61820010  0.49904686  0.50700221  1
  O  O432  1  0.36925718  0.37036852  0.11938439  1
  O  O433  1  0.37124567  0.36922274  0.61981783  1
  O  O434  1  0.37457043  0.86914367  0.11745958  1
  O  O435  1  0.37109163  0.87016802  0.62014851  1
  O  O436  1  0.86767383  0.36959328  0.12029869  1
  O  O437  1  0.87262141  0.36594726  0.61836690  1
  O  O438  1  0.86957213  0.87081223  0.11950346  1
  O  O439  1  0.86714675  0.86663206  0.62749353  1
  O  O440  1  0.12448737  0.13474431  0.38119150  1
  O  O441  1  0.13005977  0.13103724  0.88118637  1
  O  O442  1  0.12548420  0.62603732  0.38667902  1
  O  O443  1  0.13199141  0.63340817  0.87682708  1
  O  O444  1  0.62936841  0.12920140  0.38045708  1
  O  O445  1  0.63135997  0.13171533  0.87462192  1
  O  O446  1  0.62502531  0.63677106  0.37377685  1
  O  O447  1  0.63103799  0.62488142  0.88475836  1
