# generated using pymatgen
data_V3Zn3O8
_symmetry_space_group_name_H-M   'P 1'
_cell_length_a   17.08685730
_cell_length_b   17.08638089
_cell_length_c   17.08658560
_cell_angle_alpha   90.00834270
_cell_angle_beta   89.99274614
_cell_angle_gamma   89.99211235
_symmetry_Int_Tables_number   1
_chemical_formula_structural   V3Zn3O8
_chemical_formula_sum   'V96 Zn96 O256'
_cell_volume   4988.47213037
_cell_formula_units_Z   32
loop_
 _symmetry_equiv_pos_site_id
 _symmetry_equiv_pos_as_xyz
  1  'x, y, z'
loop_
 _atom_site_type_symbol
 _atom_site_label
 _atom_site_symmetry_multiplicity
 _atom_site_fract_x
 _atom_site_fract_y
 _atom_site_fract_z
 _atom_site_occupancy
  V  V0  1  0.74953626  0.12325807  0.37443203  1
  V  V1  1  0.50019147  0.87555600  0.87482243  1
  V  V2  1  0.87319312  -0.00065967  0.37388176  1
  V  V3  1  0.25020608  0.74976963  0.49918331  1
  V  V4  1  0.62486405  0.37486601  0.25011106  1
  V  V5  1  0.50020741  0.74968164  0.75007838  1
  V  V6  1  0.74946387  0.37345610  0.62477560  1
  V  V7  1  0.00177145  0.00063154  0.00027343  1
  V  V8  1  0.00033713  0.49949137  0.50089003  1
  V  V9  1  0.25137268  0.62648870  0.87558445  1
  V  V10  1  0.62442744  -0.00163685  0.62440103  1
  V  V11  1  0.62520612  0.49929236  0.12625332  1
  V  V12  1  -0.00106670  0.24945300  0.24980392  1
  V  V13  1  0.87406686  0.49989116  0.37472644  1
  V  V14  1  0.75104488  0.75100195  0.00050976  1
  V  V15  1  0.87481621  0.75058318  0.12416944  1
  V  V16  1  0.37615758  0.62662542  0.24963259  1
  V  V17  1  0.87430865  0.49979913  0.87443020  1
  V  V18  1  0.49974446  0.50009448  0.00013203  1
  V  V19  1  0.49796188  0.25047089  0.24961099  1
  V  V20  1  -0.00076936  0.87425487  0.37479472  1
  V  V21  1  0.49951596  -0.00005701  0.50042188  1
  V  V22  1  0.75073001  0.49933383  0.75098201  1
  V  V23  1  0.37452949  0.62535210  0.75100084  1
  V  V24  1  0.50039643  0.62388757  0.62506722  1
  V  V25  1  0.25101001  0.12600682  0.87357035  1
  V  V26  1  0.12370043  0.62271801  0.50208606  1
  V  V27  1  0.25089046  0.00106585  0.75020878  1
  V  V28  1  0.50104246  0.62715829  0.12492492  1
  V  V29  1  0.74996399  0.37566518  0.12600404  1
  V  V30  1  0.37419352  0.25158598  0.12507488  1
  V  V31  1  0.87465885  0.37464409  0.00149212  1
  V  V32  1  0.87562500  0.62463398  0.25069738  1
  V  V33  1  0.24900044  0.87509603  0.62517624  1
  V  V34  1  0.24875861  0.49884280  0.74881687  1
  V  V35  1  0.00118092  0.87468727  0.87524957  1
  V  V36  1  0.50077539  0.00102196  -0.00170909  1
  V  V37  1  0.12579136  0.62538223  0.00068668  1
  V  V38  1  0.12656189  0.37677600  0.24880256  1
  V  V39  1  0.62699631  -0.00006379  0.12519770  1
  V  V40  1  0.50069409  0.87464176  0.37402988  1
  V  V41  1  0.62494219  0.37402221  0.75066919  1
  V  V42  1  0.62422621  0.75034290  0.37369788  1
  V  V43  1  0.87450796  0.25032398  0.12555572  1
  V  V44  1  0.37539920  0.74985052  0.62436101  1
  V  V45  1  0.12326868  0.12441398  0.50070395  1
  V  V46  1  0.87653597  -0.00076181  0.87661794  1
  V  V47  1  0.50056718  0.37601433  0.87584604  1
  V  V48  1  0.75011527  0.87241562  0.62488933  1
  V  V49  1  0.37521334  0.50034776  0.37467303  1
  V  V50  1  0.87472005  0.87282892  0.50062320  1
  V  V51  1  0.49991290  0.49989473  0.50078074  1
  V  V52  1  0.37313405  0.37430854  0.50013222  1
  V  V53  1  0.12506631  0.75136076  0.87530165  1
  V  V54  1  0.62495166  0.12569597  -0.00163823  1
  V  V55  1  0.62369089  0.24931303  0.37502759  1
  V  V56  1  0.12513876  0.87386114  0.75066133  1
  V  V57  1  0.12562715  0.12591906  0.00090612  1
  V  V58  1  -0.00055267  0.24948108  0.74925070  1
  V  V59  1  0.74919026  0.24932624  0.50043195  1
  V  V60  1  0.62563632  0.24930522  0.87506882  1
  V  V61  1  0.62397041  0.49911430  0.62512163  1
  V  V62  1  0.25232757  0.87675117  0.12459653  1
  V  V63  1  0.37450989  0.00084712  0.37484537  1
  V  V64  1  0.12392006  0.24902167  0.37654518  1
  V  V65  1  0.62602217  0.74944147  0.87524262  1
  V  V66  1  0.87486142  0.12273044  0.74960017  1
  V  V67  1  0.62547970  0.87463230  0.74882907  1
  V  V68  1  0.37419832  0.12657264  0.25052936  1
  V  V69  1  0.75015843  0.12418157  0.87539984  1
  V  V70  1  0.00096044  0.50083099  -0.00016176  1
  V  V71  1  0.87443816  0.12489602  0.25001977  1
  V  V72  1  -0.00053709  0.37455450  0.87515843  1
  V  V73  1  0.37422942  0.87540505  0.49921751  1
  V  V74  1  0.37614183  0.87732545  -0.00001416  1
  V  V75  1  0.49962514  0.24953224  0.74898670  1
  V  V76  1  -0.00146421  0.37430724  0.37565919  1
  V  V77  1  0.62412101  0.12341641  0.50050898  1
  V  V78  1  0.25037127  0.25223783  -0.00082470  1
  V  V79  1  0.37481112  0.37556385  0.00002376  1
  V  V80  1  0.87383395  0.37349370  0.49997201  1
  V  V81  1  0.12536408  0.00196879  0.12530903  1
  V  V82  1  0.75056584  0.62396783  0.87444359  1
  V  V83  1  0.49921779  0.37519289  0.37491683  1
  V  V84  1  0.37372826  0.25042554  0.62495927  1
  V  V85  1  0.12462979  0.25085911  0.87477716  1
  V  V86  1  0.12522634  0.74978187  0.37421179  1
  V  V87  1  0.00132156  0.62493273  0.12416356  1
  V  V88  1  0.25064067  0.00186869  0.25127579  1
  V  V89  1  0.25123358  0.62466211  0.37343071  1
  V  V90  1  0.75029058  0.62474245  0.37539669  1
  V  V91  1  -0.00078161  -0.00132053  0.50070108  1
  V  V92  1  0.12580093  0.87607429  0.25008734  1
  V  V93  1  0.75107183  0.74883613  0.50027435  1
  V  V94  1  0.00027223  0.75004309  0.24908293  1
  V  V95  1  0.25185506  0.75202817  0.00110156  1
  Zn  Zn96  1  0.62525399  0.62365888  0.49988417  1
  Zn  Zn97  1  0.87392052  0.24747080  0.62376632  1
  Zn  Zn98  1  0.25020671  0.12677174  0.37726030  1
  Zn  Zn99  1  0.49892556  0.12364332  0.62576988  1
  Zn  Zn100  1  0.75016621  0.25048260  0.00024271  1
  Zn  Zn101  1  0.24901989  0.37829123  0.12317092  1
  Zn  Zn102  1  0.12267239  -0.00073576  0.62506822  1
  Zn  Zn103  1  0.75017262  -0.00269323  0.75034443  1
  Zn  Zn104  1  -0.00183599  0.12189831  0.62544327  1
  Zn  Zn105  1  0.62604497  0.87783391  0.24946536  1
  Zn  Zn106  1  0.87638770  0.87664318  0.00152816  1
  Zn  Zn107  1  0.75126217  0.87479615  0.12750086  1
  Zn  Zn108  1  0.37737707  0.00343676  0.87423261  1
  Zn  Zn109  1  -0.00059316  0.12509606  0.12516146  1
  Zn  Zn110  1  0.87803925  0.62590679  0.74827197  1
  Zn  Zn111  1  0.12505864  0.37473413  0.74740731  1
  Zn  Zn112  1  0.62494833  0.62463720  0.00071978  1
  Zn  Zn113  1  0.12311837  0.49594541  0.62575374  1
  Zn  Zn114  1  0.37562137  0.50083642  0.87569797  1
  Zn  Zn115  1  0.74982341  0.50019874  0.25091330  1
  Zn  Zn116  1  0.24735749  0.25100801  0.50152050  1
  Zn  Zn117  1  0.24633726  0.37533346  0.62338971  1
  Zn  Zn118  1  0.12706129  0.50025026  0.12431721  1
  Zn  Zn119  1  0.24965386  0.50045066  0.24695275  1
  Zn  Zn120  1  0.37618446  0.12553322  0.74919309  1
  Zn  Zn121  1  -0.00100615  0.74695102  0.74803236  1
  Zn  Zn122  1  0.50195481  0.75435456  0.24778209  1
  Zn  Zn123  1  0.87714275  0.74639364  0.62775603  1
  Zn  Zn124  1  0.50031079  0.12651167  0.12351684  1
  Zn  Zn125  1  -0.00349513  0.62371343  0.62858799  1
  Zn  Zn126  1  0.75032839  -0.00203033  0.24832975  1
  Zn  Zn127  1  0.37780603  0.75335232  0.12586806  1
  Zn  Zn128  1  0.18884173  0.18945425  0.18708299  1
  Zn  Zn129  1  0.18670629  0.18653105  0.68512373  1
  Zn  Zn130  1  0.18914094  0.68914352  0.18562226  1
  Zn  Zn131  1  0.18701598  0.68777155  0.68813073  1
  Zn  Zn132  1  0.68826203  0.18682178  0.18676187  1
  Zn  Zn133  1  0.68742847  0.18543206  0.68717853  1
  Zn  Zn134  1  0.68872681  0.68680920  0.18910690  1
  Zn  Zn135  1  0.68891104  0.68567618  0.68768285  1
  Zn  Zn136  1  0.30935051  0.31105813  0.31481757  1
  Zn  Zn137  1  0.31395240  0.31417207  0.81274846  1
  Zn  Zn138  1  0.31314718  0.81257269  0.31192079  1
  Zn  Zn139  1  0.31340934  0.81434124  0.81375692  1
  Zn  Zn140  1  0.81064891  0.31160195  0.31234331  1
  Zn  Zn141  1  0.81262363  0.31149014  0.81369149  1
  Zn  Zn142  1  0.80974393  0.81351320  0.31043983  1
  Zn  Zn143  1  0.81503273  0.81180912  0.81189333  1
  Zn  Zn144  1  0.18927307  0.43752643  0.43515970  1
  Zn  Zn145  1  0.18696468  0.43859551  0.93406160  1
  Zn  Zn146  1  0.18713012  0.93896813  0.43706918  1
  Zn  Zn147  1  0.18842342  0.93915608  0.93667855  1
  Zn  Zn148  1  0.68729106  0.43767565  0.43782342  1
  Zn  Zn149  1  0.68711741  0.43748184  0.93991607  1
  Zn  Zn150  1  0.68809726  0.93594032  0.43830533  1
  Zn  Zn151  1  0.68838844  0.93748332  0.93732849  1
  Zn  Zn152  1  0.31367528  0.06457841  0.06266179  1
  Zn  Zn153  1  0.31019934  0.06440068  0.56364138  1
  Zn  Zn154  1  0.31198098  0.56072261  0.06392953  1
  Zn  Zn155  1  0.31224624  0.56221612  0.56329331  1
  Zn  Zn156  1  0.81256627  0.06451718  0.06161162  1
  Zn  Zn157  1  0.81085532  0.05937396  0.56290567  1
  Zn  Zn158  1  0.81268200  0.56306762  0.06266403  1
  Zn  Zn159  1  0.81249416  0.56207898  0.56290801  1
  Zn  Zn160  1  0.43725711  0.43872468  0.18647123  1
  Zn  Zn161  1  0.43528369  0.43661532  0.68830747  1
  Zn  Zn162  1  0.44062147  0.94036395  0.18722718  1
  Zn  Zn163  1  0.43703201  0.93667035  0.68689600  1
  Zn  Zn164  1  0.93875204  0.43852831  0.18726412  1
  Zn  Zn165  1  0.93649662  0.43802507  0.68539881  1
  Zn  Zn166  1  0.93702668  0.93757771  0.18591011  1
  Zn  Zn167  1  0.93844211  0.93435358  0.68691102  1
  Zn  Zn168  1  0.06020882  0.06277414  0.31393016  1
  Zn  Zn169  1  0.06422377  0.06205688  0.81411767  1
  Zn  Zn170  1  0.06140694  0.56142649  0.31381234  1
  Zn  Zn171  1  0.06362363  0.56353318  0.81317771  1
  Zn  Zn172  1  0.56028557  0.06323612  0.31122880  1
  Zn  Zn173  1  0.56265872  0.06284028  0.81011863  1
  Zn  Zn174  1  0.56269378  0.56290600  0.31196058  1
  Zn  Zn175  1  0.56417581  0.56278102  0.81308959  1
  Zn  Zn176  1  0.43702914  0.18678583  0.43883742  1
  Zn  Zn177  1  0.43722802  0.18785776  0.93630913  1
  Zn  Zn178  1  0.43925878  0.68718079  0.43774765  1
  Zn  Zn179  1  0.43657944  0.68924069  0.93883547  1
  Zn  Zn180  1  0.93723424  0.18618030  0.43703055  1
  Zn  Zn181  1  0.93755635  0.18680961  0.93802846  1
  Zn  Zn182  1  0.93755568  0.68729400  0.43830690  1
  Zn  Zn183  1  0.93722143  0.68733642  0.93536502  1
  Zn  Zn184  1  0.06114659  0.31212025  0.06359659  1
  Zn  Zn185  1  0.06185020  0.31241394  0.56563394  1
  Zn  Zn186  1  0.06388955  0.81376747  0.06223136  1
  Zn  Zn187  1  0.06148820  0.81060382  0.56497036  1
  Zn  Zn188  1  0.56200919  0.31228387  0.06247846  1
  Zn  Zn189  1  0.56075325  0.31215835  0.56262475  1
  Zn  Zn190  1  0.56461088  0.81432266  0.06095259  1
  Zn  Zn191  1  0.56312169  0.81171831  0.56054679  1
  O  O192  1  0.12439059  0.11949092  0.11877293  1
  O  O193  1  0.12050861  0.12252925  0.61336544  1
  O  O194  1  0.11840646  0.62592783  0.11855667  1
  O  O195  1  0.12768835  0.62390423  0.60873516  1
  O  O196  1  0.62399528  0.11785019  0.11694908  1
  O  O197  1  0.62412651  0.11711761  0.61770848  1
  O  O198  1  0.61510117  0.61911071  0.12690058  1
  O  O199  1  0.61767699  0.61689134  0.62417093  1
  O  O200  1  0.38057768  0.38019085  0.37915272  1
  O  O201  1  0.38373198  0.37623244  0.88239120  1
  O  O202  1  0.37983037  0.88019755  0.38063568  1
  O  O203  1  0.38272481  0.87762958  0.88160643  1
  O  O204  1  0.87898771  0.37931371  0.37991169  1
  O  O205  1  0.87954819  0.37962822  0.88182130  1
  O  O206  1  0.88031762  0.87925553  0.37997855  1
  O  O207  1  0.88278769  0.88264160  0.87726561  1
  O  O208  1  0.25718634  0.00052221  0.36835574  1
  O  O209  1  0.25124973  0.00654477  0.86530609  1
  O  O210  1  0.25810926  0.50757186  0.37127992  1
  O  O211  1  0.25245603  0.50856212  0.86613450  1
  O  O212  1  0.75600851  0.00646638  0.37541841  1
  O  O213  1  0.75748065  0.00604975  0.87318188  1
  O  O214  1  0.75612297  0.50610497  0.37433086  1
  O  O215  1  0.75411206  0.50347545  0.87095742  1
  O  O216  1  0.24483773  0.49605320  0.12961260  1
  O  O217  1  0.24922619  0.50038044  0.63673691  1
  O  O218  1  0.24497695  0.99579300  0.13118784  1
  O  O219  1  0.24824415  0.99340594  0.63376157  1
  O  O220  1  0.74360390  0.49436237  0.12743987  1
  O  O221  1  0.74308577  0.49240590  0.63007234  1
  O  O222  1  0.73873471  0.99915182  0.12278785  1
  O  O223  1  0.74195972  0.99050913  0.62601413  1
  O  O224  1  0.00683338  0.36965663  0.25614130  1
  O  O225  1  -0.00289676  0.36388581  0.75657826  1
  O  O226  1  0.00630359  0.86945574  0.25514340  1
  O  O227  1  0.00910279  0.87559030  0.75848987  1
  O  O228  1  0.50457535  0.37017810  0.25605301  1
  O  O229  1  0.50619436  0.37032895  0.75575672  1
  O  O230  1  0.50329863  0.87374013  0.25863358  1
  O  O231  1  0.50487339  0.86811627  0.75416404  1
  O  O232  1  0.49179337  0.13352523  0.24911934  1
  O  O233  1  0.49759619  0.13357808  0.74656354  1
  O  O234  1  0.49208419  0.62590555  0.24163584  1
  O  O235  1  0.49489452  0.63061297  0.74504077  1
  O  O236  1  0.99259817  0.13217291  0.24990264  1
  O  O237  1  0.99150177  0.13222834  0.75243634  1
  O  O238  1  0.99599445  0.63132295  0.24541249  1
  O  O239  1  0.99870323  0.62687158  0.74799765  1
  O  O240  1  0.37017238  0.25600135  0.00482688  1
  O  O241  1  0.37516907  0.25595342  0.50859772  1
  O  O242  1  0.36918670  0.75900948  0.00251736  1
  O  O243  1  0.36969131  0.75497589  0.50426089  1
  O  O244  1  0.87486054  0.25678677  0.00666815  1
  O  O245  1  0.86740934  0.25513780  0.50017410  1
  O  O246  1  0.86622723  0.74968983  0.00528703  1
  O  O247  1  0.86752660  0.75700950  0.49821459  1
  O  O248  1  0.12122532  0.24032540  0.49495735  1
  O  O249  1  0.12977747  0.24593501  0.99450208  1
  O  O250  1  0.13077423  0.74218950  0.49298568  1
  O  O251  1  0.13268425  0.74569265  0.99532611  1
  O  O252  1  0.62885780  0.24457547  0.49420538  1
  O  O253  1  0.62547693  0.24418176  0.99270692  1
  O  O254  1  0.63082692  0.74816441  0.48896866  1
  O  O255  1  0.63427600  0.74788281  0.99401729  1
  O  O256  1  0.49290824  0.24969563  0.13229696  1
  O  O257  1  0.49086056  0.24979196  0.63069492  1
  O  O258  1  0.50091122  0.73959100  0.12608627  1
  O  O259  1  0.49490302  0.74489916  0.62990123  1
  O  O260  1  0.99213573  0.24842258  0.13227402  1
  O  O261  1  0.99517986  0.24645367  0.63824392  1
  O  O262  1  0.99587992  0.74490647  0.12986114  1
  O  O263  1  0.99723253  0.74431445  0.62770315  1
  O  O264  1  0.00390426  0.25581009  0.36928766  1
  O  O265  1  0.00433684  0.25443041  0.86778534  1
  O  O266  1  0.00568306  0.75499897  0.36843475  1
  O  O267  1  0.00903615  0.75752277  0.87700177  1
  O  O268  1  0.50457644  0.25611125  0.37019853  1
  O  O269  1  0.50625628  0.25636554  0.86897034  1
  O  O270  1  0.50922490  0.75528221  0.37575622  1
  O  O271  1  0.50581625  0.75501042  0.86962093  1
  O  O272  1  0.23590792  0.12584905  0.49843322  1
  O  O273  1  0.24505582  0.13174931  0.99381673  1
  O  O274  1  0.24412774  0.62976926  0.49313977  1
  O  O275  1  0.24663784  0.63166578  0.99567564  1
  O  O276  1  0.74407000  0.12950370  0.49437033  1
  O  O277  1  0.74337652  0.12821012  0.99191397  1
  O  O278  1  0.74744500  0.63052435  0.49234195  1
  O  O279  1  0.74845521  0.63473909  0.99444862  1
  O  O280  1  0.25605861  0.36896400  -0.00210540  1
  O  O281  1  0.25879762  0.37353565  0.50145198  1
  O  O282  1  0.25568383  0.87237189  0.00527905  1
  O  O283  1  0.25471959  0.86937951  0.50430988  1
  O  O284  1  0.75699844  0.37375612  0.00772263  1
  O  O285  1  0.75389530  0.36860879  0.50459931  1
  O  O286  1  0.75195858  0.86094379  0.00028216  1
  O  O287  1  0.75553249  0.86831737  0.50485420  1
  O  O288  1  0.12417192  0.48815034  0.25061082  1
  O  O289  1  0.13728845  0.50018037  0.74931977  1
  O  O290  1  0.12984543  0.99513855  0.24630996  1
  O  O291  1  0.13599729  0.99433078  0.74968908  1
  O  O292  1  0.62532142  0.49211727  0.24449484  1
  O  O293  1  0.63003529  0.49273859  0.74482256  1
  O  O294  1  0.62562225  1.00293582  0.23738877  1
  O  O295  1  0.62574872  0.99194009  0.74263089  1
  O  O296  1  0.37039947  0.00633255  0.25523892  1
  O  O297  1  0.36257118  0.00052328  0.75033983  1
  O  O298  1  0.37599253  0.51125424  0.25610179  1
  O  O299  1  0.36700804  0.50754758  0.75195687  1
  O  O300  1  0.87488740  0.00675810  0.25624777  1
  O  O301  1  0.87599660  0.00927012  0.75693657  1
  O  O302  1  0.87548424  0.50684921  0.25732779  1
  O  O303  1  0.86678705  0.49717466  0.75822558  1
  O  O304  1  0.11794205  0.36959778  0.36823959  1
  O  O305  1  0.11677623  0.36786319  0.87175725  1
  O  O306  1  0.11976181  0.86933933  0.36944020  1
  O  O307  1  0.12156495  0.87044099  0.87040585  1
  O  O308  1  0.61909566  0.36888037  0.37055286  1
  O  O309  1  0.62047299  0.36945212  0.86988004  1
  O  O310  1  0.61892153  0.86584611  0.37633849  1
  O  O311  1  0.61981525  0.86897702  0.86901503  1
  O  O312  1  0.37660627  0.13340298  0.13198701  1
  O  O313  1  0.37700172  0.13712535  0.62565910  1
  O  O314  1  0.38466402  0.62601802  0.13334185  1
  O  O315  1  0.38072776  0.63154000  0.63044640  1
  O  O316  1  0.87614214  0.13209892  0.13185534  1
  O  O317  1  0.87489604  0.12495514  0.63718721  1
  O  O318  1  0.88176022  0.63046866  0.13063463  1
  O  O319  1  0.87646915  0.62666481  0.62808970  1
  O  O320  1  0.25617485  0.25381369  0.11669767  1
  O  O321  1  0.26123976  0.25234235  0.62400822  1
  O  O322  1  0.25272313  0.75936596  0.11862127  1
  O  O323  1  0.25637303  0.75470271  0.61879712  1
  O  O324  1  0.75660837  0.25794062  0.12400451  1
  O  O325  1  0.74987191  0.25605972  0.61836679  1
  O  O326  1  0.75512944  0.74783979  0.11561627  1
  O  O327  1  0.74780835  0.75586810  0.61670903  1
  O  O328  1  0.23930571  0.24677173  0.38019369  1
  O  O329  1  0.24410561  0.24572854  0.87885471  1
  O  O330  1  0.24503476  0.74515620  0.38012677  1
  O  O331  1  0.24547040  0.74660389  0.88149570  1
  O  O332  1  0.74276745  0.24398511  0.38077442  1
  O  O333  1  0.74297550  0.24320612  0.87618008  1
  O  O334  1  0.74235709  0.74508428  0.38027030  1
  O  O335  1  0.74562660  0.74461817  0.88269660  1
  O  O336  1  0.00843667  0.11867983  0.00048204  1
  O  O337  1  0.00637303  0.11772667  0.50047487  1
  O  O338  1  0.00598636  0.62048157  0.00447951  1
  O  O339  1  0.01122902  0.61827734  0.49599588  1
  O  O340  1  0.50731930  0.11905494  -0.00107254  1
  O  O341  1  0.50696484  0.11729205  0.50094788  1
  O  O342  1  0.49981191  0.62034929  0.01053511  1
  O  O343  1  0.50041457  0.61767893  0.50760174  1
  O  O344  1  0.49386687  0.38042446  0.49367733  1
  O  O345  1  0.49519571  0.38056378  0.99498565  1
  O  O346  1  0.49301432  0.87994797  0.49444987  1
  O  O347  1  0.49587789  0.88068667  0.99353713  1
  O  O348  1  0.99389514  0.37883943  0.49411697  1
  O  O349  1  0.99453748  0.38025254  0.99480725  1
  O  O350  1  0.99559870  0.87869159  0.49310617  1
  O  O351  1  1.00153370  0.88307698  0.99338034  1
  O  O352  1  0.49496796  0.49475605  0.38058488  1
  O  O353  1  0.50031757  0.49411943  0.88170579  1
  O  O354  1  0.49431121  0.99445585  0.38101927  1
  O  O355  1  0.50042338  0.99292194  0.87990291  1
  O  O356  1  0.99315753  0.49355270  0.38102594  1
  O  O357  1  0.99452388  0.49375911  0.88084245  1
  O  O358  1  0.99302531  0.99267224  0.38018595  1
  O  O359  1  0.99709725  0.99477910  0.88138395  1
  O  O360  1  0.00826562  0.00167897  0.11888275  1
  O  O361  1  0.00238115  0.00055515  0.61615079  1
  O  O362  1  0.00158332  0.50752636  0.11745832  1
  O  O363  1  0.00295869  0.50143771  0.61482874  1
  O  O364  1  0.51014197  0.00362775  0.11687760  1
  O  O365  1  0.50570162  -0.00101342  0.61768849  1
  O  O366  1  0.50536180  0.50819627  0.12019476  1
  O  O367  1  0.50427775  0.50411187  0.62097175  1
  O  O368  1  0.23683542  0.37554075  0.25046641  1
  O  O369  1  0.24991728  0.38777166  0.75081205  1
  O  O370  1  0.24535750  0.88114679  0.24526203  1
  O  O371  1  0.24577700  0.88240252  0.74577793  1
  O  O372  1  0.74240125  0.37643993  0.24454400  1
  O  O373  1  0.74407195  0.37886563  0.74546832  1
  O  O374  1  0.74446170  0.87997695  0.24579636  1
  O  O375  1  0.74220476  0.87491616  0.74379666  1
  O  O376  1  0.25581706  0.11909396  0.25267299  1
  O  O377  1  0.24934647  0.11587217  0.75449112  1
  O  O378  1  0.25993511  0.62619850  0.25493304  1
  O  O379  1  0.25527786  0.61959054  0.75529725  1
  O  O380  1  0.75667553  0.12387725  0.25772993  1
  O  O381  1  0.75991854  0.12316490  0.75602033  1
  O  O382  1  0.75834197  0.62342843  0.25735328  1
  O  O383  1  0.74904461  0.61543169  0.75792822  1
  O  O384  1  0.37348871  0.11848348  0.36955203  1
  O  O385  1  0.36615203  0.12403468  0.87066411  1
  O  O386  1  0.37194999  0.62083548  0.36786141  1
  O  O387  1  0.36904881  0.62607201  0.86828870  1
  O  O388  1  0.86887841  0.11914629  0.37002971  1
  O  O389  1  0.87083407  0.11965982  0.86773128  1
  O  O390  1  0.87058620  0.61975483  0.36992949  1
  O  O391  1  0.86746313  0.61577279  0.87526555  1
  O  O392  1  0.12404795  0.37546072  0.13758362  1
  O  O393  1  0.12899368  0.37755558  0.62995636  1
  O  O394  1  0.13195312  0.88174190  0.13122829  1
  O  O395  1  0.13320365  0.87546212  0.63134063  1
  O  O396  1  0.62950926  0.37961032  0.13091660  1
  O  O397  1  0.62940817  0.37926710  0.63093574  1
  O  O398  1  0.62618524  0.88773761  0.12485731  1
  O  O399  1  0.62955220  0.87864684  0.62913263  1
  O  O400  1  0.11906774  0.25716206  0.25569291  1
  O  O401  1  0.11386409  0.24744868  0.75622692  1
  O  O402  1  0.12051756  0.75608672  0.25476202  1
  O  O403  1  0.12776637  0.75727268  0.75864850  1
  O  O404  1  0.61855003  0.25482062  0.25587616  1
  O  O405  1  0.61995222  0.25522077  0.75479359  1
  O  O406  1  0.62429629  0.75098789  0.26344827  1
  O  O407  1  0.61898321  0.75487576  0.75497349  1
  O  O408  1  0.37876396  0.24673370  0.24585494  1
  O  O409  1  0.38109300  0.25146859  0.74045781  1
  O  O410  1  0.37866921  0.73843172  0.24931637  1
  O  O411  1  0.38024860  0.74599352  0.74403800  1
  O  O412  1  0.87977184  0.24533271  0.24601011  1
  O  O413  1  0.88327565  0.23943055  0.75223962  1
  O  O414  1  0.88138668  0.74427106  0.24518303  1
  O  O415  1  0.87892029  0.74579569  0.74792982  1
  O  O416  1  0.38075564  0.49529828  0.49446075  1
  O  O417  1  0.38225669  0.49396638  0.99869392  1
  O  O418  1  0.37872547  0.99463653  0.49547243  1
  O  O419  1  0.38227835  0.99512118  0.99857454  1
  O  O420  1  0.87978982  0.49263860  0.49320319  1
  O  O421  1  0.88100355  0.49420369  0.99501790  1
  O  O422  1  0.87954312  0.99341343  0.49338852  1
  O  O423  1  0.88327147  1.00075542  0.99404793  1
  O  O424  1  0.12223001  0.00645349  0.00567908  1
  O  O425  1  0.11771161  0.00791223  0.49890949  1
  O  O426  1  0.11814113  0.50763299  -0.00085868  1
  O  O427  1  0.11987448  0.50918268  0.49655985  1
  O  O428  1  0.62020535  0.00553155  0.00552850  1
  O  O429  1  0.61892395  0.00381153  0.50459873  1
  O  O430  1  0.61780905  0.50200590  0.00827317  1
  O  O431  1  0.61733542  0.49945941  0.50714985  1
  O  O432  1  0.37400872  0.36916893  0.11836163  1
  O  O433  1  0.37469658  0.36566807  0.61834628  1
  O  O434  1  0.37014363  0.87592325  0.11917581  1
  O  O435  1  0.36913801  0.86850629  0.61855761  1
  O  O436  1  0.87023780  0.37055873  0.12117019  1
  O  O437  1  0.86662676  0.37230934  0.61746312  1
  O  O438  1  0.87364559  0.86614095  0.12153573  1
  O  O439  1  0.86718724  0.87375941  0.61738981  1
  O  O440  1  0.12304009  0.13028155  0.38510577  1
  O  O441  1  0.13136053  0.13128787  0.88127950  1
  O  O442  1  0.13079247  0.63036708  0.38151536  1
  O  O443  1  0.13231887  0.63211843  0.88243805  1
  O  O444  1  0.62909063  0.12999235  0.38066972  1
  O  O445  1  0.63083926  0.12967183  0.87855490  1
  O  O446  1  0.62989098  0.63336342  0.37628282  1
  O  O447  1  0.63147167  0.63188690  0.87719763  1
