# generated using pymatgen
data_V3Zn3O8
_symmetry_space_group_name_H-M   'P 1'
_cell_length_a   17.09105880
_cell_length_b   17.09044430
_cell_length_c   17.09013682
_cell_angle_alpha   90.00747295
_cell_angle_beta   90.00305900
_cell_angle_gamma   90.01935955
_symmetry_Int_Tables_number   1
_chemical_formula_structural   V3Zn3O8
_chemical_formula_sum   'V96 Zn96 O256'
_cell_volume   4991.92247569
_cell_formula_units_Z   32
loop_
 _symmetry_equiv_pos_site_id
 _symmetry_equiv_pos_as_xyz
  1  'x, y, z'
loop_
 _atom_site_type_symbol
 _atom_site_label
 _atom_site_symmetry_multiplicity
 _atom_site_fract_x
 _atom_site_fract_y
 _atom_site_fract_z
 _atom_site_occupancy
  V  V0  1  0.87454127  0.25039561  0.62592169  1
  V  V1  1  0.50122304  0.49837501  -0.00045791  1
  V  V2  1  0.25178413  0.24833062  0.00054781  1
  V  V3  1  0.50029064  0.87407023  0.87536738  1
  V  V4  1  0.87456908  0.37613433  0.50014901  1
  V  V5  1  0.37541592  0.24884746  0.62604983  1
  V  V6  1  0.75120764  0.12536621  0.87465155  1
  V  V7  1  0.87402484  0.87624416  0.49926795  1
  V  V8  1  0.87450228  0.25066996  0.12433579  1
  V  V9  1  0.62442821  0.50083214  0.62486555  1
  V  V10  1  0.49980406  0.24885076  0.74991018  1
  V  V11  1  -0.00106765  0.12758769  0.62578563  1
  V  V12  1  0.37567970  -0.00085506  0.87314641  1
  V  V13  1  0.75099345  0.24997783  -0.00006848  1
  V  V14  1  0.87575699  0.37513518  0.00026564  1
  V  V15  1  0.37385633  0.12373081  0.25116602  1
  V  V16  1  0.62374882  0.12410652  0.50037788  1
  V  V17  1  0.12627758  -0.00041262  0.12532405  1
  V  V18  1  0.62426659  0.25010845  0.37558096  1
  V  V19  1  0.37416573  0.50013059  0.37509649  1
  V  V20  1  0.24886348  0.62513843  0.37501610  1
  V  V21  1  0.75019414  0.62544723  0.37456438  1
  V  V22  1  0.49920710  0.37517256  0.37544399  1
  V  V23  1  0.00006167  0.00030833  -0.00055181  1
  V  V24  1  0.62311736  0.75027171  0.37428066  1
  V  V25  1  0.37361655  -0.00032082  0.37530438  1
  V  V26  1  0.87543295  0.00074680  0.37543412  1
  V  V27  1  0.49945979  -0.00021063  0.49980284  1
  V  V28  1  0.62664530  0.62420148  -0.00005527  1
  V  V29  1  0.12432412  0.37432712  0.25070747  1
  V  V30  1  0.49944880  0.62431732  0.62484867  1
  V  V31  1  0.74986912  0.12583891  0.37463738  1
  V  V32  1  0.12513368  0.75000822  0.37750388  1
  V  V33  1  0.37264677  0.87360621  0.49962569  1
  V  V34  1  0.12591701  -0.00005739  0.62509720  1
  V  V35  1  0.62512486  0.25054289  0.87548486  1
  V  V36  1  -0.00048664  0.62574875  0.62453924  1
  V  V37  1  0.62649204  0.49924373  0.12517045  1
  V  V38  1  -0.00117318  0.75082619  0.74883621  1
  V  V39  1  0.25045058  0.49942531  0.75066533  1
  V  V40  1  -0.00001505  0.50122189  0.50113078  1
  V  V41  1  0.12751852  0.74858790  0.87679761  1
  V  V42  1  0.87636490  0.50101027  0.87469937  1
  V  V43  1  0.12564201  0.12452492  0.00017961  1
  V  V44  1  0.62605919  0.74896119  0.87504988  1
  V  V45  1  0.37561813  0.62522288  0.24807513  1
  V  V46  1  0.74971392  0.75117165  0.49990758  1
  V  V47  1  0.74886707  0.25082213  0.50031252  1
  V  V48  1  0.62376784  0.87507801  0.24907059  1
  V  V49  1  0.00057224  0.12518133  0.12531741  1
  V  V50  1  0.00036517  0.87587140  0.87479209  1
  V  V51  1  0.12488692  0.49928022  0.12435172  1
  V  V52  1  0.12502948  0.87636634  0.74902170  1
  V  V53  1  0.74989119  0.00015401  0.24924058  1
  V  V54  1  0.12459439  0.25123158  0.87285451  1
  V  V55  1  0.24973870  0.25012541  0.50049837  1
  V  V56  1  0.75139746  0.87477187  0.12464939  1
  V  V57  1  0.25190858  0.12277532  0.87494390  1
  V  V58  1  -0.00127827  0.75054717  0.24978930  1
  V  V59  1  0.37387096  0.75003316  0.62500182  1
  V  V60  1  0.25053838  0.37395747  0.12596984  1
  V  V61  1  0.25043963  0.87272805  0.12405057  1
  V  V62  1  -0.00030250  0.25111537  0.25056768  1
  V  V63  1  0.75098599  0.74990899  -0.00021976  1
  V  V64  1  0.00080415  0.49952772  -0.00031428  1
  V  V65  1  0.37544532  0.24860560  0.12534379  1
  V  V66  1  0.87473605  0.12603846  0.25014137  1
  V  V67  1  0.62559604  0.87492572  0.74882052  1
  V  V68  1  0.87521126  0.87459865  0.00015033  1
  V  V69  1  0.75044743  0.50128394  0.75026447  1
  V  V70  1  0.50046745  0.74900167  0.75046498  1
  V  V71  1  0.37686164  0.37436628  0.00019176  1
  V  V72  1  0.37423837  0.37495059  0.50043865  1
  V  V73  1  0.87427662  0.50141009  0.37494019  1
  V  V74  1  0.74976026  0.50041627  0.25063782  1
  V  V75  1  -0.00059786  0.87608754  0.37456935  1
  V  V76  1  0.00084214  0.62522379  0.12486987  1
  V  V77  1  0.87498461  0.00105650  0.87363395  1
  V  V78  1  0.62497822  -0.00008743  0.62453682  1
  V  V79  1  0.12538675  0.12617787  0.49995044  1
  V  V80  1  0.50210061  -0.00089539  0.00070086  1
  V  V81  1  0.49934047  0.62505559  0.12571989  1
  V  V82  1  0.24917378  0.12513395  0.37501277  1
  V  V83  1  0.50015384  0.12357420  0.12502344  1
  V  V84  1  0.62519567  0.37557908  0.25034563  1
  V  V85  1  0.74944868  0.37653312  0.62427122  1
  V  V86  1  0.24989448  0.49894415  0.25003644  1
  V  V87  1  0.37560536  0.49897880  0.87526006  1
  V  V88  1  0.12473355  0.50047447  0.62608813  1
  V  V89  1  0.49954092  0.50070971  0.50078789  1
  V  V90  1  0.37452518  0.62391206  0.75130505  1
  V  V91  1  0.49972548  0.24947607  0.25049890  1
  V  V92  1  0.74969164  0.00043601  0.74988315  1
  V  V93  1  -0.00023508  0.37592704  0.37481818  1
  V  V94  1  0.24920584  0.37549512  0.62615373  1
  V  V95  1  0.87462474  0.75152428  0.62464941  1
  Zn  Zn96  1  0.75096837  0.62587519  0.87527955  1
  Zn  Zn97  1  0.24912411  0.74818403  0.50221389  1
  Zn  Zn98  1  0.62424477  0.37541768  0.75000046  1
  Zn  Zn99  1  0.12646981  0.62462573  0.50110796  1
  Zn  Zn100  1  0.62383706  0.62666831  0.50014830  1
  Zn  Zn101  1  0.62604525  0.00115617  0.12438765  1
  Zn  Zn102  1  0.87574986  0.74933562  0.12419989  1
  Zn  Zn103  1  0.75041560  0.37524690  0.12556039  1
  Zn  Zn104  1  0.25338633  0.74579163  0.00075417  1
  Zn  Zn105  1  0.12367733  0.37523092  0.75042919  1
  Zn  Zn106  1  -0.00240586  0.25316979  0.75176442  1
  Zn  Zn107  1  0.49846113  0.12425035  0.62493653  1
  Zn  Zn108  1  0.25050861  0.62415329  0.87775256  1
  Zn  Zn109  1  0.37492485  0.86951393  0.00032274  1
  Zn  Zn110  1  0.50078029  0.37414245  0.87527793  1
  Zn  Zn111  1  0.87441846  0.62751280  0.75003615  1
  Zn  Zn112  1  0.49673946  0.87399550  0.37216175  1
  Zn  Zn113  1  0.37520567  0.74942076  0.12299749  1
  Zn  Zn114  1  0.87394868  0.62481143  0.24932026  1
  Zn  Zn115  1  0.12437426  0.25021011  0.37572182  1
  Zn  Zn116  1  -0.00093986  0.00114392  0.49897636  1
  Zn  Zn117  1  0.62656392  0.12510345  0.00280900  1
  Zn  Zn118  1  0.24869836  0.87301548  0.62615209  1
  Zn  Zn119  1  0.12619649  0.87800131  0.25080861  1
  Zn  Zn120  1  0.24874197  -0.00084560  0.25025939  1
  Zn  Zn121  1  0.49679705  0.75080101  0.24776286  1
  Zn  Zn122  1  0.75017835  0.87531922  0.62459262  1
  Zn  Zn123  1  0.25182833  -0.00041379  0.74931589  1
  Zn  Zn124  1  0.37433895  0.12365787  0.74776067  1
  Zn  Zn125  1  0.12734692  0.62387760  -0.00148430  1
  Zn  Zn126  1  0.87476304  0.12687203  0.74995685  1
  Zn  Zn127  1  0.00193221  0.37536703  0.87290916  1
  Zn  Zn128  1  0.18721533  0.18718853  0.18877993  1
  Zn  Zn129  1  0.19006777  0.18533911  0.68993078  1
  Zn  Zn130  1  0.18676346  0.68834208  0.18913276  1
  Zn  Zn131  1  0.18797036  0.68657794  0.68875597  1
  Zn  Zn132  1  0.68658842  0.18773378  0.18599763  1
  Zn  Zn133  1  0.68654316  0.18619697  0.68792144  1
  Zn  Zn134  1  0.68783480  0.68741360  0.18631520  1
  Zn  Zn135  1  0.68795629  0.68661036  0.68642266  1
  Zn  Zn136  1  0.31187640  0.31080079  0.31337292  1
  Zn  Zn137  1  0.31268653  0.31289662  0.81260320  1
  Zn  Zn138  1  0.31051524  0.81197915  0.30920778  1
  Zn  Zn139  1  0.31097896  0.81459006  0.81043056  1
  Zn  Zn140  1  0.81216082  0.31395925  0.31279014  1
  Zn  Zn141  1  0.81302125  0.31461833  0.81145677  1
  Zn  Zn142  1  0.81217176  0.81263487  0.31267998  1
  Zn  Zn143  1  0.81200675  0.81437142  0.81250174  1
  Zn  Zn144  1  0.18586765  0.43750991  0.43898242  1
  Zn  Zn145  1  0.18988641  0.43661057  0.93847553  1
  Zn  Zn146  1  0.18717920  0.93830363  0.43855758  1
  Zn  Zn147  1  0.18882276  0.93488695  0.93938023  1
  Zn  Zn148  1  0.68630414  0.43907393  0.43809765  1
  Zn  Zn149  1  0.68999239  0.43565980  0.93768048  1
  Zn  Zn150  1  0.68776822  0.93726930  0.43637326  1
  Zn  Zn151  1  0.68770113  0.93653612  0.93622844  1
  Zn  Zn152  1  0.31365710  0.05892648  0.06184176  1
  Zn  Zn153  1  0.31201740  0.06310680  0.56185019  1
  Zn  Zn154  1  0.31198435  0.56346864  0.06061662  1
  Zn  Zn155  1  0.31108854  0.56383570  0.56247688  1
  Zn  Zn156  1  0.81238010  0.06252792  0.06182813  1
  Zn  Zn157  1  0.81132784  0.06249258  0.56275711  1
  Zn  Zn158  1  0.81326997  0.56295968  0.06316174  1
  Zn  Zn159  1  0.81207193  0.56599025  0.56165160  1
  Zn  Zn160  1  0.43806603  0.43837484  0.18690599  1
  Zn  Zn161  1  0.43758942  0.43497990  0.68870010  1
  Zn  Zn162  1  0.43527509  0.93723394  0.18673718  1
  Zn  Zn163  1  0.43974417  0.93572461  0.68600216  1
  Zn  Zn164  1  0.93622017  0.43805456  0.18739085  1
  Zn  Zn165  1  0.93955518  0.43569968  0.68968070  1
  Zn  Zn166  1  0.93799066  0.93747015  0.18736966  1
  Zn  Zn167  1  0.93748318  0.93839490  0.68700059  1
  Zn  Zn168  1  0.06353405  0.06252730  0.31221719  1
  Zn  Zn169  1  0.06286005  0.06466956  0.81065851  1
  Zn  Zn170  1  0.06233231  0.56337923  0.31193370  1
  Zn  Zn171  1  0.06200382  0.56439862  0.80971924  1
  Zn  Zn172  1  0.56058334  0.06061036  0.31391555  1
  Zn  Zn173  1  0.56325298  0.06440402  0.81270783  1
  Zn  Zn174  1  0.56195565  0.56351848  0.31222381  1
  Zn  Zn175  1  0.56236555  0.56265241  0.81354214  1
  Zn  Zn176  1  0.43657299  0.18651754  0.43858624  1
  Zn  Zn177  1  0.43892172  0.18466157  0.93701286  1
  Zn  Zn178  1  0.43702980  0.68713793  0.43665376  1
  Zn  Zn179  1  0.43713528  0.68605105  0.93931652  1
  Zn  Zn180  1  0.93753462  0.18909197  0.43895426  1
  Zn  Zn181  1  0.93791342  0.18699315  0.93792679  1
  Zn  Zn182  1  0.93682727  0.68729717  0.43881257  1
  Zn  Zn183  1  0.93954729  0.68749164  0.93793400  1
  Zn  Zn184  1  0.06236412  0.31281273  0.06077224  1
  Zn  Zn185  1  0.06315580  0.31362182  0.56290826  1
  Zn  Zn186  1  0.06479088  0.81358740  0.06204042  1
  Zn  Zn187  1  0.05932086  0.81421634  0.56100291  1
  Zn  Zn188  1  0.56359102  0.31228925  0.06305059  1
  Zn  Zn189  1  0.56214554  0.31339210  0.56411958  1
  Zn  Zn190  1  0.56286340  0.81098833  0.06313893  1
  Zn  Zn191  1  0.56029616  0.81383485  0.56217355  1
  O  O192  1  0.11985571  0.12102403  0.11908226  1
  O  O193  1  0.11793899  0.11933556  0.62075723  1
  O  O194  1  0.11450342  0.61831690  0.12656049  1
  O  O195  1  0.11768829  0.61908904  0.62370073  1
  O  O196  1  0.61637847  0.12158556  0.12371824  1
  O  O197  1  0.62348266  0.11836427  0.61694035  1
  O  O198  1  0.62001626  0.61822733  0.11963855  1
  O  O199  1  0.61703889  0.61905957  0.62300899  1
  O  O200  1  0.37971331  0.38025778  0.38022045  1
  O  O201  1  0.37669009  0.38004357  0.88353570  1
  O  O202  1  0.37429207  0.87949474  0.38302847  1
  O  O203  1  0.38200399  0.88351507  0.87533980  1
  O  O204  1  0.87986346  0.38122409  0.38114494  1
  O  O205  1  0.87612764  0.38602333  0.88101874  1
  O  O206  1  0.87939043  0.88125214  0.37890042  1
  O  O207  1  0.88124601  0.88166999  0.88055537  1
  O  O208  1  0.25576803  0.00755000  0.37438054  1
  O  O209  1  0.26104220  0.00351555  0.87769202  1
  O  O210  1  0.25480943  0.50379691  0.36935097  1
  O  O211  1  0.25763623  0.49959053  0.86863870  1
  O  O212  1  0.75529146  0.00679089  0.36865305  1
  O  O213  1  0.75513070  0.00526842  0.87031051  1
  O  O214  1  0.75399506  0.50565644  0.37074861  1
  O  O215  1  0.75838291  0.50008878  0.86707848  1
  O  O216  1  0.24507571  0.49287477  0.13084674  1
  O  O217  1  0.24541419  0.49507996  0.63030962  1
  O  O218  1  0.24400312  0.99195025  0.12482497  1
  O  O219  1  0.23588406  1.00080134  0.62547671  1
  O  O220  1  0.74411237  0.49886516  0.13203196  1
  O  O221  1  0.74585222  0.49692313  0.63151789  1
  O  O222  1  0.74860272  0.99388849  0.13137506  1
  O  O223  1  0.74297873  0.99864984  0.63141296  1
  O  O224  1  0.00458826  0.37067454  0.25493426  1
  O  O225  1  0.00588082  0.37052723  0.75476657  1
  O  O226  1  0.00160026  0.86583669  0.25502262  1
  O  O227  1  0.00506698  0.87071549  0.75585621  1
  O  O228  1  0.50459589  0.36944640  0.25614480  1
  O  O229  1  0.50273422  0.36199860  0.75292131  1
  O  O230  1  0.51174747  0.87382904  0.25021720  1
  O  O231  1  0.50615277  0.86802548  0.75569339  1
  O  O232  1  0.49400180  0.13049467  0.24623322  1
  O  O233  1  0.49881654  0.13756049  0.74834777  1
  O  O234  1  0.49321109  0.62360991  0.24308500  1
  O  O235  1  0.49452320  0.62991319  0.74440459  1
  O  O236  1  0.99386357  0.13130544  0.24494673  1
  O  O237  1  0.99852506  0.12879617  0.73671804  1
  O  O238  1  0.99881466  0.63283026  0.24206080  1
  O  O239  1  0.99640103  0.63300379  0.74199108  1
  O  O240  1  0.37124070  0.25335948  0.00587503  1
  O  O241  1  0.37003435  0.25603247  0.50542056  1
  O  O242  1  0.37228557  0.75226098  0.00369359  1
  O  O243  1  0.37537901  0.75885075  0.50466807  1
  O  O244  1  0.87082349  0.25487774  0.00483139  1
  O  O245  1  0.86775373  0.25658009  0.50489859  1
  O  O246  1  0.87015322  0.75738814  -0.00019808  1
  O  O247  1  0.86949027  0.75686808  0.50413599  1
  O  O248  1  0.13228275  0.24445893  0.49922674  1
  O  O249  1  0.13182018  0.24389603  0.99366408  1
  O  O250  1  0.12418279  0.74917635  0.48769624  1
  O  O251  1  0.12367143  0.74955755  0.98633168  1
  O  O252  1  0.62931021  0.24547404  0.49459401  1
  O  O253  1  0.63060936  0.24884433  0.99133328  1
  O  O254  1  0.62930270  0.75215831  0.48903120  1
  O  O255  1  0.63109825  0.74458738  0.99419866  1
  O  O256  1  0.49451889  0.24441000  0.13120470  1
  O  O257  1  0.49494878  0.24953321  0.63352958  1
  O  O258  1  0.49988539  0.73952865  0.12741080  1
  O  O259  1  0.49454212  0.74433242  0.63099151  1
  O  O260  1  0.99473102  0.24432263  0.12994258  1
  O  O261  1  0.99420978  0.24196520  0.62400383  1
  O  O262  1  1.00247422  0.74272040  0.13319362  1
  O  O263  1  0.99463046  0.74609242  0.62947074  1
  O  O264  1  -0.00013838  0.25783943  0.36865927  1
  O  O265  1  0.01282448  0.24903206  0.87598987  1
  O  O266  1  0.00586269  0.75398902  0.36813694  1
  O  O267  1  0.00679028  0.75648069  0.86926567  1
  O  O268  1  0.50443160  0.25548863  0.37028713  1
  O  O269  1  0.50863381  0.24928828  0.86853654  1
  O  O270  1  0.51179927  0.75151020  0.37159292  1
  O  O271  1  0.50641436  0.75424676  0.86953767  1
  O  O272  1  0.24478305  0.13123209  0.49474427  1
  O  O273  1  0.24556671  0.12949319  0.99574581  1
  O  O274  1  0.24749582  0.62751683  0.49080076  1
  O  O275  1  0.24416941  0.62713015  0.99589930  1
  O  O276  1  0.74397562  0.13130122  0.49375849  1
  O  O277  1  0.74896498  0.13166708  0.99311897  1
  O  O278  1  0.74620621  0.63290146  0.49271063  1
  O  O279  1  0.74417258  0.63143024  0.99941487  1
  O  O280  1  0.25706804  0.36818848  0.00780939  1
  O  O281  1  0.25588035  0.37039683  0.50530026  1
  O  O282  1  0.25146224  0.87188380  0.01152395  1
  O  O283  1  0.26183671  0.87302769  0.50265461  1
  O  O284  1  0.75785643  0.36785226  0.00258137  1
  O  O285  1  0.75507138  0.37049674  0.50418909  1
  O  O286  1  0.75515951  0.87023293  0.00470784  1
  O  O287  1  0.75642156  0.86873456  0.50013002  1
  O  O288  1  0.13009818  0.49360306  0.24439340  1
  O  O289  1  0.13246461  0.49922461  0.74389262  1
  O  O290  1  0.12676057  0.99935307  0.24060390  1
  O  O291  1  0.12378641  0.99489931  0.74050393  1
  O  O292  1  0.62984171  0.49460209  0.24574368  1
  O  O293  1  0.63393609  0.49896419  0.74508021  1
  O  O294  1  0.63108263  0.99006026  0.25165878  1
  O  O295  1  0.62893713  0.99477179  0.74537276  1
  O  O296  1  0.37427969  0.00724111  0.25763331  1
  O  O297  1  0.37802481  0.00034151  0.76219614  1
  O  O298  1  0.36898155  0.50348832  0.25614612  1
  O  O299  1  0.37097768  0.50396002  0.75504960  1
  O  O300  1  0.86983093  0.00677697  0.25524061  1
  O  O301  1  0.86846692  0.00129333  0.75652819  1
  O  O302  1  0.86829053  0.50054326  0.25761277  1
  O  O303  1  0.86707426  0.50022009  0.75810190  1
  O  O304  1  0.11778268  0.37431974  0.36842764  1
  O  O305  1  0.12642285  0.36181953  0.87651289  1
  O  O306  1  0.11911607  0.86675240  0.37439515  1
  O  O307  1  0.11881861  0.86919073  0.86952933  1
  O  O308  1  0.61833461  0.36967840  0.37088728  1
  O  O309  1  0.62473780  0.36167699  0.87318569  1
  O  O310  1  0.62539930  0.86672809  0.36532977  1
  O  O311  1  0.61953994  0.86871812  0.86879791  1
  O  O312  1  0.37983206  0.12967963  0.13060273  1
  O  O313  1  0.37755966  0.13272437  0.62669887  1
  O  O314  1  0.38189486  0.62197656  0.13184398  1
  O  O315  1  0.38076928  0.62983414  0.63100245  1
  O  O316  1  0.88094065  0.13015563  0.13056795  1
  O  O317  1  0.88377527  0.13068985  0.62350320  1
  O  O318  1  0.88888870  0.62672153  0.12691568  1
  O  O319  1  0.88154140  0.63379671  0.62545955  1
  O  O320  1  0.25594820  0.25406304  0.12017864  1
  O  O321  1  0.25531527  0.25511279  0.62016633  1
  O  O322  1  0.24773334  0.76051722  0.12469371  1
  O  O323  1  0.25767800  0.75147569  0.62278649  1
  O  O324  1  0.75694205  0.25072427  0.11870421  1
  O  O325  1  0.75349416  0.25575323  0.61888127  1
  O  O326  1  0.75297026  0.75641294  0.11835842  1
  O  O327  1  0.75567373  0.75177633  0.61815368  1
  O  O328  1  0.24865059  0.24376184  0.38275228  1
  O  O329  1  0.24430169  0.24358842  0.88173541  1
  O  O330  1  0.23874450  0.74449816  0.37377890  1
  O  O331  1  0.23771921  0.75038060  0.87354336  1
  O  O332  1  0.74416024  0.24557035  0.38058831  1
  O  O333  1  0.74363161  0.24598267  0.87906309  1
  O  O334  1  0.74188365  0.74572475  0.37899739  1
  O  O335  1  0.74399539  0.74917695  0.88124043  1
  O  O336  1  0.00544289  0.11943104  0.00652388  1
  O  O337  1  0.00541907  0.12493201  0.51015451  1
  O  O338  1  0.00297046  0.61947147  0.01022274  1
  O  O339  1  0.00144717  0.61818101  0.50618903  1
  O  O340  1  0.50124198  0.11491477  0.00601537  1
  O  O341  1  0.50683439  0.11838886  0.50029333  1
  O  O342  1  0.50737483  0.61710012  0.00569767  1
  O  O343  1  0.49972455  0.61811797  0.50654416  1
  O  O344  1  0.49369214  0.38004657  0.49461572  1
  O  O345  1  0.49386678  0.38057077  1.00031972  1
  O  O346  1  0.48804573  0.88060764  0.49746272  1
  O  O347  1  0.50084323  0.88365560  0.99410387  1
  O  O348  1  0.99362888  0.38103178  0.49502712  1
  O  O349  1  0.99336198  0.38200577  0.99788659  1
  O  O350  1  0.99160692  0.87763139  0.49148690  1
  O  O351  1  0.99511821  0.88142709  0.99459905  1
  O  O352  1  0.49414272  0.49453474  0.38032667  1
  O  O353  1  0.49483999  0.49660546  0.88154304  1
  O  O354  1  0.49200036  0.99715825  0.38213527  1
  O  O355  1  0.49467746  0.99580858  0.88152045  1
  O  O356  1  0.99448185  0.49543338  0.38010303  1
  O  O357  1  0.99164989  0.50047933  0.88026185  1
  O  O358  1  0.99277990  0.99467688  0.37487642  1
  O  O359  1  0.99586294  0.99622776  0.87988354  1
  O  O360  1  0.00470257  0.00615875  0.11909505  1
  O  O361  1  0.00840393  0.01002376  0.62352782  1
  O  O362  1  0.00467253  0.50726929  0.12140215  1
  O  O363  1  0.00410654  0.50525103  0.62030081  1
  O  O364  1  0.50002524  0.00412337  0.11541880  1
  O  O365  1  0.50689484  0.00182400  0.61811625  1
  O  O366  1  0.50697363  0.50453717  0.11932299  1
  O  O367  1  0.50397502  0.50420907  0.62055643  1
  O  O368  1  0.24519344  0.37897033  0.24526030  1
  O  O369  1  0.24921189  0.38137440  0.74281879  1
  O  O370  1  0.24637785  0.87834843  0.23906900  1
  O  O371  1  0.24123794  0.88065083  0.74573750  1
  O  O372  1  0.74241457  0.38163620  0.25009818  1
  O  O373  1  0.74891245  0.38651214  0.74320958  1
  O  O374  1  0.74337531  0.88013159  0.24527964  1
  O  O375  1  0.74248883  0.88252336  0.74890056  1
  O  O376  1  0.25697733  0.12489256  0.25661134  1
  O  O377  1  0.25412318  0.11905683  0.75928012  1
  O  O378  1  0.25460456  0.61729884  0.25477992  1
  O  O379  1  0.25808625  0.61738396  0.75242112  1
  O  O380  1  0.75530406  0.12107057  0.25530380  1
  O  O381  1  0.75118636  0.11812075  0.75677931  1
  O  O382  1  0.75165328  0.61890201  0.25604721  1
  O  O383  1  0.75291550  0.61314303  0.75204840  1
  O  O384  1  0.36901011  0.12004305  0.37109760  1
  O  O385  1  0.37059988  0.11445004  0.87488772  1
  O  O386  1  0.36954556  0.61859882  0.36899288  1
  O  O387  1  0.37600360  0.61672156  0.86766185  1
  O  O388  1  0.86930019  0.12172160  0.36981880  1
  O  O389  1  0.86973849  0.11846805  0.87366779  1
  O  O390  1  0.86851904  0.61853481  0.37382055  1
  O  O391  1  0.87358494  0.61252520  0.87426921  1
  O  O392  1  0.13090321  0.37886491  0.13071666  1
  O  O393  1  0.13241407  0.38204375  0.62579845  1
  O  O394  1  0.13212534  0.88207464  0.12581253  1
  O  O395  1  0.12226819  0.88509734  0.62875452  1
  O  O396  1  0.62628893  0.38097552  0.13284951  1
  O  O397  1  0.63240412  0.38267795  0.62583688  1
  O  O398  1  0.63174878  0.87577273  0.13494281  1
  O  O399  1  0.62553281  0.88138186  0.63140267  1
  O  O400  1  0.11743866  0.25663160  0.25100993  1
  O  O401  1  0.12637103  0.24932158  0.76318764  1
  O  O402  1  0.11383875  0.75056648  0.26078740  1
  O  O403  1  0.11839397  0.75646487  0.75659383  1
  O  O404  1  0.61935111  0.25498808  0.25652938  1
  O  O405  1  0.61816823  0.25098306  0.75816657  1
  O  O406  1  0.62689844  0.75935144  0.25842714  1
  O  O407  1  0.62001320  0.75413827  0.75458458  1
  O  O408  1  0.38082559  0.24469789  0.24511221  1
  O  O409  1  0.38411841  0.24928779  0.74548291  1
  O  O410  1  0.37686179  0.73998371  0.24749594  1
  O  O411  1  0.38168787  0.74504662  0.74567558  1
  O  O412  1  0.87962588  0.24542206  0.24479816  1
  O  O413  1  0.87572257  0.24794267  0.74149631  1
  O  O414  1  0.88760496  0.74841954  0.24904120  1
  O  O415  1  0.88098178  0.75110772  0.74399558  1
  O  O416  1  0.37970652  0.49403240  0.49468499  1
  O  O417  1  0.38148638  0.49375772  0.99553169  1
  O  O418  1  0.37879695  0.99219962  0.49581025  1
  O  O419  1  0.38655273  0.99777712  0.99007777  1
  O  O420  1  0.87936948  0.49484387  0.49488882  1
  O  O421  1  0.87970381  0.49560134  0.99280643  1
  O  O422  1  0.87498689  0.99486776  0.49237682  1
  O  O423  1  0.88088360  0.99483323  0.99378232  1
  O  O424  1  0.11881580  0.00583609  0.00427467  1
  O  O425  1  0.12209806  0.00656454  0.50927100  1
  O  O426  1  0.11854309  0.49882871  0.00733270  1
  O  O427  1  0.11750290  0.50109724  0.50731417  1
  O  O428  1  0.61336457  0.00152540  -0.00053240  1
  O  O429  1  0.62021620  0.00422100  0.50348147  1
  O  O430  1  0.62171577  0.50352362  0.00491029  1
  O  O431  1  0.61707561  0.50219232  0.50616898  1
  O  O432  1  0.36997038  0.36834342  0.12112973  1
  O  O433  1  0.36913597  0.36947584  0.61882390  1
  O  O434  1  0.36385315  0.87356546  0.12370289  1
  O  O435  1  0.37442119  0.86955501  0.61598947  1
  O  O436  1  0.87407892  0.36802648  0.11890827  1
  O  O437  1  0.86906265  0.37101300  0.61850022  1
  O  O438  1  0.86972382  0.87392512  0.11768370  1
  O  O439  1  0.87442621  0.86955328  0.61745678  1
  O  O440  1  0.13032676  0.12694752  0.38193863  1
  O  O441  1  0.13085804  0.13100047  0.88136704  1
  O  O442  1  0.12939637  0.63390091  0.37558350  1
  O  O443  1  0.12465874  0.63726128  0.87432527  1
  O  O444  1  0.63037790  0.13074184  0.37956799  1
  O  O445  1  0.63140516  0.13626186  0.87689407  1
  O  O446  1  0.63033846  0.63556960  0.37490257  1
  O  O447  1  0.62656713  0.63130062  0.88228018  1
