# generated using pymatgen
data_V3Zn3O8
_symmetry_space_group_name_H-M   'P 1'
_cell_length_a   17.09081248
_cell_length_b   17.08975129
_cell_length_c   17.08960283
_cell_angle_alpha   89.99385895
_cell_angle_beta   90.00621122
_cell_angle_gamma   90.00781759
_symmetry_Int_Tables_number   1
_chemical_formula_structural   V3Zn3O8
_chemical_formula_sum   'V96 Zn96 O256'
_cell_volume   4991.49237572
_cell_formula_units_Z   32
loop_
 _symmetry_equiv_pos_site_id
 _symmetry_equiv_pos_as_xyz
  1  'x, y, z'
loop_
 _atom_site_type_symbol
 _atom_site_label
 _atom_site_symmetry_multiplicity
 _atom_site_fract_x
 _atom_site_fract_y
 _atom_site_fract_z
 _atom_site_occupancy
  V  V0  1  0.62537182  0.87385355  0.74949711  1
  V  V1  1  0.62612614  0.12404500  0.49765222  1
  V  V2  1  0.37511632  0.62614718  0.24982758  1
  V  V3  1  0.87545687  0.87475689  0.50037727  1
  V  V4  1  0.12514114  0.37851511  0.24916050  1
  V  V5  1  0.37481105  0.12684967  0.24840395  1
  V  V6  1  0.49994893  0.12557674  0.12374313  1
  V  V7  1  0.24946693  0.25207523  0.00122468  1
  V  V8  1  0.62775384  0.24823755  0.37495733  1
  V  V9  1  0.25052755  0.24997581  0.50000733  1
  V  V10  1  -0.00114102  0.50128163  0.00126367  1
  V  V11  1  0.74995330  0.74864870  0.50083818  1
  V  V12  1  -0.00057343  0.74928860  0.75088834  1
  V  V13  1  0.74902080  0.87561214  0.12623631  1
  V  V14  1  0.87503891  0.87516062  0.00091722  1
  V  V15  1  0.62517416  0.74939983  0.87501153  1
  V  V16  1  0.62457055  0.50045068  0.12610007  1
  V  V17  1  0.75041421  0.87409474  0.62521307  1
  V  V18  1  0.37421488  0.37586113  0.49916657  1
  V  V19  1  0.87342397  0.50055699  0.87478958  1
  V  V20  1  0.12549234  0.12459573  0.49992158  1
  V  V21  1  0.37617385  0.74881502  0.62497272  1
  V  V22  1  0.00040270  0.62560049  0.12481837  1
  V  V23  1  0.24997305  0.12556229  0.37402065  1
  V  V24  1  0.50015081  0.49988103  -0.00074913  1
  V  V25  1  0.00071064  0.12471945  0.62629758  1
  V  V26  1  0.12559237  0.74945473  0.87522964  1
  V  V27  1  -0.00025087  0.12650724  0.12563082  1
  V  V28  1  -0.00008169  0.37549370  0.87634414  1
  V  V29  1  0.87669206  0.12465598  0.74982589  1
  V  V30  1  -0.00058735  0.24900721  0.75068646  1
  V  V31  1  0.00040190  0.37627341  0.37703357  1
  V  V32  1  0.75079643  -0.00067550  0.75031396  1
  V  V33  1  0.12546533  0.87632824  0.24979122  1
  V  V34  1  0.00074338  0.62456494  0.62533497  1
  V  V35  1  0.62435932  0.87424322  0.25003662  1
  V  V36  1  0.12546493  0.37513448  0.75109037  1
  V  V37  1  0.50017549  0.75007549  0.24979923  1
  V  V38  1  -0.00006812  0.00065847  0.00018453  1
  V  V39  1  -0.00075152  0.75111431  0.24992815  1
  V  V40  1  0.24917781  0.37503255  0.62630119  1
  V  V41  1  0.37558794  0.87427133  0.49901322  1
  V  V42  1  0.62509467  0.49419084  0.62564313  1
  V  V43  1  0.37569212  -0.00007362  0.37333731  1
  V  V44  1  0.37528157  0.49974679  0.37576344  1
  V  V45  1  0.12464334  0.12566507  0.00068901  1
  V  V46  1  0.62497099  -0.00056865  0.62342308  1
  V  V47  1  0.74986907  0.49746739  0.75047095  1
  V  V48  1  0.00023081  0.87521998  0.37527357  1
  V  V49  1  0.62347108  0.62258652  0.50211211  1
  V  V50  1  0.24993029  0.49943319  0.75118080  1
  V  V51  1  0.87554701  0.49929462  0.37860095  1
  V  V52  1  0.74898369  0.74966088  0.00013621  1
  V  V53  1  0.25233242  0.12383759  0.87288484  1
  V  V54  1  0.12618305  -0.00108631  0.62537568  1
  V  V55  1  0.87531150  0.74876666  0.62676645  1
  V  V56  1  0.25017540  0.00109038  0.24895218  1
  V  V57  1  0.62375557  0.37424613  0.25064866  1
  V  V58  1  0.25037916  0.62481999  0.87476602  1
  V  V59  1  0.50059019  -0.00111973  0.49867646  1
  V  V60  1  0.37613213  0.87737976  -0.00251949  1
  V  V61  1  0.25016295  0.75050394  0.49977485  1
  V  V62  1  0.87427978  0.37571745  0.00159587  1
  V  V63  1  0.50239252  0.37353006  0.87259500  1
  V  V64  1  0.37529001  0.50003482  0.87497743  1
  V  V65  1  0.37622450  0.24848862  0.62516485  1
  V  V66  1  0.75006865  0.62378570  0.37623538  1
  V  V67  1  0.87484060  0.00006920  0.37454410  1
  V  V68  1  0.87446964  0.12529407  0.25014113  1
  V  V69  1  0.49938935  0.87604599  0.87433870  1
  V  V70  1  0.12473262  0.75094474  0.37516050  1
  V  V71  1  0.75026079  0.37536800  0.12502604  1
  V  V72  1  0.00074772  -0.00039931  0.50055944  1
  V  V73  1  0.62498199  0.62578797  -0.00016482  1
  V  V74  1  0.12380923  0.62475664  0.50042141  1
  V  V75  1  0.49992987  0.25026395  0.24901166  1
  V  V76  1  0.74946002  0.12494640  0.87570413  1
  V  V77  1  0.74837478  0.24937921  -0.00087686  1
  V  V78  1  0.49934401  0.62558112  0.12557118  1
  V  V79  1  0.12524002  0.25162116  0.37489713  1
  V  V80  1  0.25007287  0.75035120  -0.00159074  1
  V  V81  1  0.62380623  0.00097353  0.12289689  1
  V  V82  1  0.12522913  0.00121534  0.12484679  1
  V  V83  1  0.49877772  0.12512224  0.62445851  1
  V  V84  1  0.87439031  0.75122821  0.12613633  1
  V  V85  1  0.25075403  0.87537229  0.12332843  1
  V  V86  1  0.25002904  0.62638386  0.37408323  1
  V  V87  1  0.12437014  0.25035876  0.87626914  1
  V  V88  1  0.87544331  -0.00043941  0.87543371  1
  V  V89  1  0.50002515  0.74853359  0.74801094  1
  V  V90  1  0.25060797  0.37749134  0.12400360  1
  V  V91  1  0.12604488  0.87515244  0.74935015  1
  V  V92  1  0.50095375  0.87381225  0.37366399  1
  V  V93  1  0.00096301  0.87447082  0.87562997  1
  V  V94  1  0.74918815  0.50017842  0.25151478  1
  V  V95  1  0.24973768  0.87521905  0.62469213  1
  Zn  Zn96  1  0.00055565  0.49889631  0.50405998  1
  Zn  Zn97  1  0.49927302  0.49784101  0.50291084  1
  Zn  Zn98  1  -0.00140365  0.25185585  0.24838066  1
  Zn  Zn99  1  0.75049732  0.62497045  0.87459655  1
  Zn  Zn100  1  0.49738203  0.62161443  0.62678580  1
  Zn  Zn101  1  0.87343681  0.36837757  0.50094943  1
  Zn  Zn102  1  0.37600726  0.25169502  0.12479048  1
  Zn  Zn103  1  0.50003950  0.37507056  0.37585384  1
  Zn  Zn104  1  0.50055216  0.24722712  0.75091003  1
  Zn  Zn105  1  0.24948571  0.50388523  0.24707055  1
  Zn  Zn106  1  0.87489828  0.62399287  0.75144149  1
  Zn  Zn107  1  0.62245560  0.12514633  -0.00252432  1
  Zn  Zn108  1  0.37494933  0.75026901  0.12400120  1
  Zn  Zn109  1  0.62506717  0.74852652  0.37584407  1
  Zn  Zn110  1  0.25188295  -0.00001216  0.74941997  1
  Zn  Zn111  1  0.87414755  0.62618995  0.25174182  1
  Zn  Zn112  1  0.87454234  0.25064403  0.62248734  1
  Zn  Zn113  1  0.12438575  0.49971395  0.62443569  1
  Zn  Zn114  1  0.37623152  0.37450382  0.00084217  1
  Zn  Zn115  1  0.75260637  0.24758128  0.50501418  1
  Zn  Zn116  1  0.75171418  0.12289865  0.37610601  1
  Zn  Zn117  1  0.62344165  0.24715716  0.87167305  1
  Zn  Zn118  1  0.74904785  0.00029659  0.25097255  1
  Zn  Zn119  1  0.49934924  0.00392979  -0.00432704  1
  Zn  Zn120  1  0.87576159  0.25108579  0.12695308  1
  Zn  Zn121  1  0.62637185  0.36803486  0.74750495  1
  Zn  Zn122  1  0.37602157  0.12295490  0.74854275  1
  Zn  Zn123  1  0.37721423  0.00133203  0.87022109  1
  Zn  Zn124  1  0.12538188  0.50361283  0.12391332  1
  Zn  Zn125  1  0.37617296  0.62377814  0.74800476  1
  Zn  Zn126  1  0.12608716  0.62489172  0.00043237  1
  Zn  Zn127  1  0.75594431  0.37069794  0.62266502  1
  Zn  Zn128  1  0.18668205  0.19179621  0.18759889  1
  Zn  Zn129  1  0.18721443  0.18872747  0.68839859  1
  Zn  Zn130  1  0.18782345  0.69048280  0.18692636  1
  Zn  Zn131  1  0.18814546  0.68664303  0.68826340  1
  Zn  Zn132  1  0.68878690  0.18732386  0.18680307  1
  Zn  Zn133  1  0.68648445  0.18855201  0.68782125  1
  Zn  Zn134  1  0.68664081  0.68716822  0.18879206  1
  Zn  Zn135  1  0.68765044  0.68318410  0.68815809  1
  Zn  Zn136  1  0.31168162  0.31347358  0.31067698  1
  Zn  Zn137  1  0.31623348  0.31139509  0.81198683  1
  Zn  Zn138  1  0.31347965  0.81212394  0.31124042  1
  Zn  Zn139  1  0.31314109  0.81148557  0.81057935  1
  Zn  Zn140  1  0.81224765  0.31211723  0.31274382  1
  Zn  Zn141  1  0.81341659  0.31274624  0.81203713  1
  Zn  Zn142  1  0.81065570  0.81209483  0.31328207  1
  Zn  Zn143  1  0.81265107  0.81180945  0.81329691  1
  Zn  Zn144  1  0.18871853  0.44049778  0.43880865  1
  Zn  Zn145  1  0.18513247  0.44051024  0.93903682  1
  Zn  Zn146  1  0.18835108  0.93821233  0.43721918  1
  Zn  Zn147  1  0.18806706  0.93881312  0.93697022  1
  Zn  Zn148  1  0.69008893  0.43328321  0.43966177  1
  Zn  Zn149  1  0.68601989  0.43717946  0.93696169  1
  Zn  Zn150  1  0.68885359  0.93721474  0.43578465  1
  Zn  Zn151  1  0.68743469  0.93622543  0.93741730  1
  Zn  Zn152  1  0.31324557  0.06380499  0.06073982  1
  Zn  Zn153  1  0.31295724  0.06163645  0.56115034  1
  Zn  Zn154  1  0.31429597  0.56193995  0.06086244  1
  Zn  Zn155  1  0.31026235  0.56266549  0.56349255  1
  Zn  Zn156  1  0.81184552  0.06300864  0.06422073  1
  Zn  Zn157  1  0.81238070  0.06453915  0.56245073  1
  Zn  Zn158  1  0.81264107  0.56377764  0.06337829  1
  Zn  Zn159  1  0.81169510  0.56053113  0.56491274  1
  Zn  Zn160  1  0.43695961  0.43861338  0.18942821  1
  Zn  Zn161  1  0.43727212  0.43642735  0.68838777  1
  Zn  Zn162  1  0.43812848  0.93813712  0.18509918  1
  Zn  Zn163  1  0.43633589  0.93860359  0.68828076  1
  Zn  Zn164  1  0.93561521  0.44010909  0.18966438  1
  Zn  Zn165  1  0.93717780  0.43679838  0.68716507  1
  Zn  Zn166  1  0.93753786  0.93972335  0.18768406  1
  Zn  Zn167  1  0.93840442  0.93683672  0.68781659  1
  Zn  Zn168  1  0.06119994  0.06357512  0.31225431  1
  Zn  Zn169  1  0.06513679  0.06183522  0.81272280  1
  Zn  Zn170  1  0.06141453  0.56333065  0.31227741  1
  Zn  Zn171  1  0.06323169  0.56257432  0.81284725  1
  Zn  Zn172  1  0.56195084  0.06293509  0.30964937  1
  Zn  Zn173  1  0.56278126  0.06287782  0.81067456  1
  Zn  Zn174  1  0.56104322  0.56266810  0.31390402  1
  Zn  Zn175  1  0.56315526  0.56224687  0.81139808  1
  Zn  Zn176  1  0.43934506  0.18817037  0.43703091  1
  Zn  Zn177  1  0.43532888  0.19080076  0.94065728  1
  Zn  Zn178  1  0.43915783  0.68655789  0.43769396  1
  Zn  Zn179  1  0.43685030  0.68835075  0.93559430  1
  Zn  Zn180  1  0.93893445  0.18825033  0.43639881  1
  Zn  Zn181  1  0.93486424  0.18854957  0.93815300  1
  Zn  Zn182  1  0.93698327  0.68666713  0.43911257  1
  Zn  Zn183  1  0.93551542  0.68630417  0.93764124  1
  Zn  Zn184  1  0.06196972  0.31273808  0.06388791  1
  Zn  Zn185  1  0.06225827  0.31146521  0.56404452  1
  Zn  Zn186  1  0.06327916  0.81198636  0.06185643  1
  Zn  Zn187  1  0.06248857  0.81080339  0.56333072  1
  Zn  Zn188  1  0.56283622  0.31344990  0.06146772  1
  Zn  Zn189  1  0.56064900  0.31157470  0.55913433  1
  Zn  Zn190  1  0.56113716  0.81267462  0.06270442  1
  Zn  Zn191  1  0.56230461  0.81045631  0.56282770  1
  O  O192  1  0.12098134  0.12025816  0.12048143  1
  O  O193  1  0.12103797  0.11917826  0.61918654  1
  O  O194  1  0.11209946  0.62669896  0.12434720  1
  O  O195  1  0.11766734  0.62655225  0.61860554  1
  O  O196  1  0.61965145  0.11576094  0.12473887  1
  O  O197  1  0.61893548  0.11709598  0.61761072  1
  O  O198  1  0.61899287  0.61943710  0.12024967  1
  O  O199  1  0.62604752  0.61416708  0.61576125  1
  O  O200  1  0.37253294  0.38469966  0.37940014  1
  O  O201  1  0.38431128  0.38145775  0.87718452  1
  O  O202  1  0.38022947  0.88072329  0.37921894  1
  O  O203  1  0.37996201  0.87506399  0.88291122  1
  O  O204  1  0.88510833  0.38251560  0.37287060  1
  O  O205  1  0.88125242  0.38091485  0.88199359  1
  O  O206  1  0.88128362  0.87910271  0.38115632  1
  O  O207  1  0.88113770  0.88003314  0.88133026  1
  O  O208  1  0.25534116  0.00541681  0.36875258  1
  O  O209  1  0.24879831  0.01318789  0.87448058  1
  O  O210  1  0.26003111  0.50754324  0.37341237  1
  O  O211  1  0.25512233  0.50457790  0.87140719  1
  O  O212  1  0.75935610  0.00074926  0.37138860  1
  O  O213  1  0.75647118  0.00294380  0.87030918  1
  O  O214  1  0.75759865  0.50356356  0.37079746  1
  O  O215  1  0.75439004  0.50039318  0.86756869  1
  O  O216  1  0.24656816  0.49144635  0.12588027  1
  O  O217  1  0.24790361  0.49247326  0.63240675  1
  O  O218  1  0.24409026  0.99574289  0.12956918  1
  O  O219  1  0.24288835  0.99269829  0.62279288  1
  O  O220  1  0.74414144  0.49555640  0.13089308  1
  O  O221  1  0.74233135  0.49735922  0.63379282  1
  O  O222  1  0.74078680  0.99358478  0.12604787  1
  O  O223  1  0.74528449  0.99331392  0.63038044  1
  O  O224  1  0.00849136  0.37619175  0.25867657  1
  O  O225  1  0.00589748  0.36929577  0.75798693  1
  O  O226  1  0.00618605  0.87135563  0.25509629  1
  O  O227  1  0.00557764  0.86941807  0.75614980  1
  O  O228  1  0.50635555  0.36875770  0.25142637  1
  O  O229  1  0.50158035  0.37395801  0.76178389  1
  O  O230  1  0.50415931  0.87018536  0.25431850  1
  O  O231  1  0.50694314  0.86917622  0.75386722  1
  O  O232  1  0.49356538  0.13025286  0.24353551  1
  O  O233  1  0.49736266  0.12487655  0.73897653  1
  O  O234  1  0.49528653  0.63029185  0.24527045  1
  O  O235  1  0.49855945  0.63384572  0.74805429  1
  O  O236  1  0.99176515  0.12594548  0.24432927  1
  O  O237  1  0.99692071  0.12865374  0.74654417  1
  O  O238  1  0.99850293  0.63266640  0.24162044  1
  O  O239  1  0.99964565  0.63217468  0.74295799  1
  O  O240  1  0.36429051  0.25550956  0.00577368  1
  O  O241  1  0.36865314  0.25538816  0.50320414  1
  O  O242  1  0.36909050  0.76121190  0.00008425  1
  O  O243  1  0.36994361  0.75561724  0.50346879  1
  O  O244  1  0.86455673  0.25689331  0.00164739  1
  O  O245  1  0.87287786  0.24880382  0.50206981  1
  O  O246  1  0.86974529  0.75649488  0.00598542  1
  O  O247  1  0.86990589  0.75584893  0.50644752  1
  O  O248  1  0.13111091  0.24389871  0.49470987  1
  O  O249  1  0.12916462  0.24463369  0.99515373  1
  O  O250  1  0.13056372  0.74619134  0.49362528  1
  O  O251  1  0.13188587  0.75073496  0.99220956  1
  O  O252  1  0.62264843  0.24200403  0.48823161  1
  O  O253  1  0.63903643  0.24940814  0.99843481  1
  O  O254  1  0.63168721  0.73936500  0.50107123  1
  O  O255  1  0.62963826  0.74601651  0.99513268  1
  O  O256  1  0.50054676  0.24394256  0.13119136  1
  O  O257  1  0.49267618  0.24216435  0.62226988  1
  O  O258  1  0.49878534  0.74301328  0.13147259  1
  O  O259  1  0.49406107  0.74867320  0.63069459  1
  O  O260  1  0.99679643  0.24232613  0.12740325  1
  O  O261  1  1.00240354  0.24063985  0.63378874  1
  O  O262  1  0.99459785  0.74486530  0.12947591  1
  O  O263  1  0.99466557  0.74490740  0.63120896  1
  O  O264  1  0.00774257  0.26061448  0.37201968  1
  O  O265  1  0.00507732  0.25538166  0.87184100  1
  O  O266  1  0.00489822  0.75603367  0.37026464  1
  O  O267  1  0.00447916  0.75574969  0.87135789  1
  O  O268  1  0.51041992  0.24988356  0.36733616  1
  O  O269  1  0.50040532  0.26131224  0.87647842  1
  O  O270  1  0.50206463  0.75629707  0.36882005  1
  O  O271  1  0.50614177  0.75650967  0.86854965  1
  O  O272  1  0.24454380  0.12967546  0.49298396  1
  O  O273  1  0.24339321  0.13097708  0.99363871  1
  O  O274  1  0.24390222  0.63247709  0.49364451  1
  O  O275  1  0.24915816  0.63236859  0.99384633  1
  O  O276  1  0.74054822  0.12494686  0.49628750  1
  O  O277  1  0.75137517  0.13420018  0.99506890  1
  O  O278  1  0.74236464  0.62880915  0.49665263  1
  O  O279  1  0.74258122  0.63241781  1.00079018  1
  O  O280  1  0.24700035  0.37100571  0.01005026  1
  O  O281  1  0.25387980  0.36881785  0.50579182  1
  O  O282  1  0.25721081  0.87120488  0.00310462  1
  O  O283  1  0.25568478  0.86969528  0.50363950  1
  O  O284  1  0.75444948  0.36890097  0.00485354  1
  O  O285  1  0.75431377  0.36733272  0.50259324  1
  O  O286  1  0.75567916  0.86922126  0.00614235  1
  O  O287  1  0.75586167  0.86922320  0.50603095  1
  O  O288  1  0.12717539  0.48967580  0.24919794  1
  O  O289  1  0.13185635  0.49168444  0.75074478  1
  O  O290  1  0.13051772  0.99571055  0.24505948  1
  O  O291  1  0.12644140  0.99246081  0.74295244  1
  O  O292  1  0.62922366  0.49480483  0.24598991  1
  O  O293  1  0.63311151  0.49926248  0.74104782  1
  O  O294  1  0.62510447  0.99369818  0.23858910  1
  O  O295  1  0.63177626  0.99295854  0.74304752  1
  O  O296  1  0.36927306  0.00551436  0.25451319  1
  O  O297  1  0.36872550  0.00394790  0.75239841  1
  O  O298  1  0.37310770  0.50728142  0.25959617  1
  O  O299  1  0.36711195  0.50079064  0.75688511  1
  O  O300  1  0.87539711  0.00846964  0.25597336  1
  O  O301  1  0.87073541  0.00321490  0.75637657  1
  O  O302  1  0.86806080  0.50209770  0.26201097  1
  O  O303  1  0.86605333  0.50004729  0.75671815  1
  O  O304  1  0.12033119  0.37290031  0.36766446  1
  O  O305  1  0.11925306  0.36917445  0.87150882  1
  O  O306  1  0.12013736  0.87115565  0.36965941  1
  O  O307  1  0.11983200  0.87024449  0.86984752  1
  O  O308  1  0.62315794  0.36586885  0.36843775  1
  O  O309  1  0.61284429  0.37505217  0.87376574  1
  O  O310  1  0.61820499  0.87364575  0.36862432  1
  O  O311  1  0.62029660  0.86927648  0.86888332  1
  O  O312  1  0.38076233  0.12575455  0.13164974  1
  O  O313  1  0.38096967  0.13117662  0.62093801  1
  O  O314  1  0.38192573  0.62618725  0.13152868  1
  O  O315  1  0.37619186  0.63335434  0.62574078  1
  O  O316  1  0.88173120  0.12383565  0.13427448  1
  O  O317  1  0.88468816  0.12148982  0.63348665  1
  O  O318  1  0.88413132  0.63227625  0.12753868  1
  O  O319  1  0.88293391  0.63137040  0.62583456  1
  O  O320  1  0.24903372  0.26119967  0.11986781  1
  O  O321  1  0.25484948  0.25476214  0.61868486  1
  O  O322  1  0.25114835  0.75849655  0.11757794  1
  O  O323  1  0.25487204  0.75608789  0.61854375  1
  O  O324  1  0.75178479  0.25670973  0.11611073  1
  O  O325  1  0.75500899  0.25155128  0.62518460  1
  O  O326  1  0.75453631  0.75559967  0.12014879  1
  O  O327  1  0.75528938  0.75452264  0.62122030  1
  O  O328  1  0.24504441  0.24489232  0.38011258  1
  O  O329  1  0.24383925  0.24353810  0.88076811  1
  O  O330  1  0.24424687  0.74676537  0.38012914  1
  O  O331  1  0.24473283  0.74506006  0.87872609  1
  O  O332  1  0.73544783  0.24631341  0.37174768  1
  O  O333  1  0.75072577  0.24451213  0.88433938  1
  O  O334  1  0.74863594  0.74296525  0.38327279  1
  O  O335  1  0.74316931  0.75015153  0.88225068  1
  O  O336  1  0.00469766  0.11974431  0.00431350  1
  O  O337  1  0.00751069  0.11834546  0.50498526  1
  O  O338  1  -0.00055060  0.62125335  0.01052877  1
  O  O339  1  0.00655203  0.62613161  0.50806191  1
  O  O340  1  0.50189617  0.12385779  0.00782876  1
  O  O341  1  0.50558613  0.11688860  0.50336828  1
  O  O342  1  0.50547234  0.62054245  0.00523237  1
  O  O343  1  0.51253927  0.62273592  0.50204707  1
  O  O344  1  0.48953810  0.37801090  0.49514417  1
  O  O345  1  0.49970681  0.38234875  0.99227991  1
  O  O346  1  0.49505108  0.87921496  0.49388744  1
  O  O347  1  0.49051917  0.87484563  0.99362622  1
  O  O348  1  1.00369418  0.37727665  0.48586245  1
  O  O349  1  0.99411503  0.38044874  0.99607304  1
  O  O350  1  0.99512227  0.87941808  0.49516162  1
  O  O351  1  0.99483562  0.88093906  0.99550307  1
  O  O352  1  0.48599613  0.49979679  0.37723631  1
  O  O353  1  0.49570882  0.49372116  0.87984839  1
  O  O354  1  0.49427795  0.99424314  0.37869013  1
  O  O355  1  0.49879908  0.99149821  0.87664505  1
  O  O356  1  0.99181401  0.49328218  0.37507864  1
  O  O357  1  0.99399075  0.49458112  0.88058166  1
  O  O358  1  0.99618616  0.99386902  0.38130698  1
  O  O359  1  0.99576775  0.99428492  0.88095335  1
  O  O360  1  0.00645647  0.00541038  0.11894409  1
  O  O361  1  0.00681431  0.00379160  0.61963933  1
  O  O362  1  -0.00168582  0.51088733  0.12108511  1
  O  O363  1  0.00298743  0.51013545  0.62435310  1
  O  O364  1  0.50883481  0.00631754  0.12311099  1
  O  O365  1  0.50574666  0.00320298  0.61725415  1
  O  O366  1  0.50577889  0.50526060  0.12040404  1
  O  O367  1  0.51029421  0.50176117  0.62426613  1
  O  O368  1  0.24077166  0.37673260  0.24163929  1
  O  O369  1  0.24457090  0.37880389  0.74618142  1
  O  O370  1  0.24513982  0.88114466  0.24427372  1
  O  O371  1  0.24270798  0.87476198  0.74232562  1
  O  O372  1  0.74398153  0.38046382  0.24467906  1
  O  O373  1  0.74765663  0.38710557  0.75013743  1
  O  O374  1  0.74310529  0.87567575  0.24309348  1
  O  O375  1  0.74536921  0.87979722  0.74465759  1
  O  O376  1  0.25369041  0.12060584  0.25470291  1
  O  O377  1  0.24861271  0.12468337  0.76196411  1
  O  O378  1  0.25567877  0.62654130  0.25631385  1
  O  O379  1  0.25105553  0.61791028  0.75702829  1
  O  O380  1  0.76274456  0.12228897  0.25040209  1
  O  O381  1  0.75669341  0.11686156  0.75601248  1
  O  O382  1  0.75015755  0.61809976  0.25737260  1
  O  O383  1  0.75219381  0.61165288  0.75231431  1
  O  O384  1  0.36928007  0.11942242  0.36931210  1
  O  O385  1  0.36233564  0.12538117  0.87600251  1
  O  O386  1  0.36952850  0.61901936  0.37085962  1
  O  O387  1  0.36840043  0.61838525  0.87296714  1
  O  O388  1  0.87727947  0.11816041  0.36532309  1
  O  O389  1  0.87056578  0.11751728  0.87001747  1
  O  O390  1  0.86955747  0.61641902  0.37437572  1
  O  O391  1  0.87163847  0.61662828  0.87323900  1
  O  O392  1  0.13132078  0.37695966  0.13399085  1
  O  O393  1  0.13128930  0.37488095  0.63284205  1
  O  O394  1  0.12998142  0.88159204  0.13006887  1
  O  O395  1  0.12980912  0.87923658  0.62928155  1
  O  O396  1  0.63056222  0.38157630  0.13074269  1
  O  O397  1  0.62480157  0.38620196  0.62405237  1
  O  O398  1  0.62863266  0.88207411  0.12997052  1
  O  O399  1  0.63115069  0.87960420  0.62926070  1
  O  O400  1  0.12395093  0.26240529  0.25672503  1
  O  O401  1  0.11907853  0.25534951  0.75745162  1
  O  O402  1  0.11940685  0.75789970  0.25569090  1
  O  O403  1  0.11919913  0.75629589  0.75544750  1
  O  O404  1  0.61995973  0.25399927  0.25586165  1
  O  O405  1  0.61926485  0.25198297  0.75422018  1
  O  O406  1  0.61816661  0.75608060  0.25238246  1
  O  O407  1  0.62159108  0.75510211  0.75412371  1
  O  O408  1  0.38070118  0.24395605  0.24891397  1
  O  O409  1  0.37749346  0.24539923  0.73937296  1
  O  O410  1  0.38203155  0.74399795  0.24795809  1
  O  O411  1  0.38218569  0.74968197  0.74229324  1
  O  O412  1  0.87704221  0.23885221  0.24901934  1
  O  O413  1  0.88378153  0.24112843  0.75272767  1
  O  O414  1  0.88170205  0.75018859  0.24402243  1
  O  O415  1  0.88140044  0.74927992  0.74465531  1
  O  O416  1  0.37325592  0.49522648  0.49129190  1
  O  O417  1  0.38317137  0.49770187  0.99291426  1
  O  O418  1  0.38043518  0.99356570  0.49256619  1
  O  O419  1  0.37526610  0.98756568  0.99655153  1
  O  O420  1  0.87637105  0.49872667  0.48665246  1
  O  O421  1  0.87867441  0.49470862  0.99527095  1
  O  O422  1  0.88176040  0.99403499  0.49571254  1
  O  O423  1  0.88031467  0.99464800  0.99528260  1
  O  O424  1  0.11922720  0.00541047  0.00580345  1
  O  O425  1  0.12012161  0.00475174  0.50456358  1
  O  O426  1  0.11412062  0.50447621  0.00319687  1
  O  O427  1  0.12323390  0.50991734  0.50195809  1
  O  O428  1  0.62368475  -0.00078233  0.01278042  1
  O  O429  1  0.61934854  0.00271034  0.50407113  1
  O  O430  1  0.62036683  0.50608629  0.00698905  1
  O  O431  1  0.62601944  0.50701310  0.50803103  1
  O  O432  1  0.36221809  0.37532474  0.12565626  1
  O  O433  1  0.36845243  0.36908654  0.61903975  1
  O  O434  1  0.36917933  0.87484811  0.11514976  1
  O  O435  1  0.36965315  0.86957327  0.61723808  1
  O  O436  1  0.86788633  0.37557545  0.11994051  1
  O  O437  1  0.87738223  0.37059502  0.61952004  1
  O  O438  1  0.87025784  0.87138703  0.11985241  1
  O  O439  1  0.87021747  0.86967829  0.61986314  1
  O  O440  1  0.13015231  0.13029520  0.37967960  1
  O  O441  1  0.13137670  0.13070882  0.88166074  1
  O  O442  1  0.12956062  0.63246440  0.37892142  1
  O  O443  1  0.13125779  0.63253046  0.87677354  1
  O  O444  1  0.62493343  0.13168343  0.37812692  1
  O  O445  1  0.63433385  0.12441985  0.87836382  1
  O  O446  1  0.63124235  0.62287645  0.38623883  1
  O  O447  1  0.62610484  0.63186544  0.88271155  1
