# generated using pymatgen
data_V3Zn3O8
_symmetry_space_group_name_H-M   'P 1'
_cell_length_a   17.08817576
_cell_length_b   17.08909590
_cell_length_c   17.08904057
_cell_angle_alpha   90.00181825
_cell_angle_beta   90.00535733
_cell_angle_gamma   89.99505551
_symmetry_Int_Tables_number   1
_chemical_formula_structural   V3Zn3O8
_chemical_formula_sum   'V96 Zn96 O256'
_cell_volume   4990.36677938
_cell_formula_units_Z   32
loop_
 _symmetry_equiv_pos_site_id
 _symmetry_equiv_pos_as_xyz
  1  'x, y, z'
loop_
 _atom_site_type_symbol
 _atom_site_label
 _atom_site_symmetry_multiplicity
 _atom_site_fract_x
 _atom_site_fract_y
 _atom_site_fract_z
 _atom_site_occupancy
  V  V0  1  0.37376261  0.00094011  0.87488172  1
  V  V1  1  -0.00047326  0.24983412  0.24948699  1
  V  V2  1  0.00082234  0.87498137  0.87612038  1
  V  V3  1  0.62543956  0.00005114  0.62508633  1
  V  V4  1  0.87507641  0.25048602  0.12358802  1
  V  V5  1  0.12474291  0.62408617  0.00052996  1
  V  V6  1  0.25017842  0.62529971  0.37442548  1
  V  V7  1  0.75004359  0.75045393  0.00016781  1
  V  V8  1  0.50049105  0.74955312  0.25075372  1
  V  V9  1  0.24871264  0.24973736  -0.00074288  1
  V  V10  1  0.49967905  0.75004033  0.74978343  1
  V  V11  1  0.62463954  0.12553385  0.00020617  1
  V  V12  1  0.12458844  0.24986992  0.37558571  1
  V  V13  1  -0.00158313  0.37494281  0.87438047  1
  V  V14  1  0.62423421  0.62559207  -0.00043749  1
  V  V15  1  0.00051112  0.50077637  0.49909330  1
  V  V16  1  0.75047490  0.12420685  0.87481642  1
  V  V17  1  0.00093023  0.12399755  0.12463085  1
  V  V18  1  0.75026558  0.00021533  0.25102838  1
  V  V19  1  0.00062560  0.87473251  0.37416490  1
  V  V20  1  0.37408673  0.87482962  0.00104385  1
  V  V21  1  0.87496830  0.37478809  -0.00134265  1
  V  V22  1  0.50026435  0.00008738  0.50092086  1
  V  V23  1  0.62470899  0.50000031  0.62580701  1
  V  V24  1  -0.00115701  0.37486401  0.37420732  1
  V  V25  1  0.24836662  0.49941863  0.74897810  1
  V  V26  1  0.87458050  0.12424783  0.24985182  1
  V  V27  1  0.37593922  0.37553323  0.00002006  1
  V  V28  1  0.87572711  -0.00045941  0.37474643  1
  V  V29  1  0.87401593  0.50061173  0.37341876  1
  V  V30  1  0.62435652  0.75056958  0.87485139  1
  V  V31  1  0.37470107  0.12562827  0.75085011  1
  V  V32  1  0.12481432  0.75096861  0.37324368  1
  V  V33  1  0.75091455  0.87459139  0.62462509  1
  V  V34  1  0.37558072  0.49912626  0.37559402  1
  V  V35  1  0.62499377  0.62492216  0.49998954  1
  V  V36  1  0.25115300  0.00089533  0.25113828  1
  V  V37  1  0.62501624  0.12578289  0.49989890  1
  V  V38  1  0.62556994  0.37520457  0.74970228  1
  V  V39  1  0.00095051  0.75010773  0.75112288  1
  V  V40  1  0.49995295  0.37531573  0.87551428  1
  V  V41  1  0.00091266  -0.00043169  0.00055744  1
  V  V42  1  0.12474624  0.75008893  0.87509220  1
  V  V43  1  0.25000601  0.62536176  0.87479481  1
  V  V44  1  0.74955506  0.62534909  0.87375078  1
  V  V45  1  0.25012396  0.00013682  0.75006651  1
  V  V46  1  0.37522805  0.00084039  0.37662703  1
  V  V47  1  0.50011028  0.62560867  0.12525839  1
  V  V48  1  0.24955793  0.87519051  0.62552573  1
  V  V49  1  0.87444774  0.37439451  0.49903282  1
  V  V50  1  0.49861178  0.49956390  0.49990130  1
  V  V51  1  0.87435990  0.62339115  0.75053158  1
  V  V52  1  0.00004972  -0.00050993  0.50017733  1
  V  V53  1  0.62479645  0.87531077  0.74985099  1
  V  V54  1  0.62435710  0.00047365  0.12593890  1
  V  V55  1  0.37423162  0.62473518  0.75036637  1
  V  V56  1  0.37616876  0.62521171  0.24962294  1
  V  V57  1  0.87598702  -0.00196260  0.87604727  1
  V  V58  1  0.12533516  0.24924911  0.87561250  1
  V  V59  1  0.49946324  0.00009454  0.00074278  1
  V  V60  1  0.25050695  0.49997319  0.24951671  1
  V  V61  1  0.75026761  0.37477670  0.12261450  1
  V  V62  1  0.25018207  0.74965949  0.49974787  1
  V  V63  1  0.87559908  0.75071949  0.62263674  1
  V  V64  1  0.37414016  0.37533318  0.50052511  1
  V  V65  1  0.49966640  0.87561873  0.87499119  1
  V  V66  1  0.87608856  0.24826540  0.62547427  1
  V  V67  1  0.25144884  0.75054817  0.00085823  1
  V  V68  1  0.74848622  0.25041795  0.49899460  1
  V  V69  1  0.25098954  0.12497644  0.37566378  1
  V  V70  1  0.37462364  0.75012338  0.62475529  1
  V  V71  1  0.49945506  0.50017383  -0.00068532  1
  V  V72  1  0.37584279  0.87585256  0.50016453  1
  V  V73  1  0.75106046  0.62399450  0.37292648  1
  V  V74  1  0.12402554  0.62408832  0.49926772  1
  V  V75  1  0.12398834  0.12486766  0.50098267  1
  V  V76  1  -0.00043432  0.24946655  0.74928408  1
  V  V77  1  0.12488835  -0.00059507  0.62515328  1
  V  V78  1  0.12453804  0.50025381  0.12366937  1
  V  V79  1  0.00032055  0.49968426  -0.00100968  1
  V  V80  1  0.62517254  0.74936675  0.37564982  1
  V  V81  1  0.25040486  0.37458280  0.12495924  1
  V  V82  1  0.37322659  0.25078991  0.62597530  1
  V  V83  1  0.75050054  -0.00070190  0.75069775  1
  V  V84  1  0.12451002  0.37564477  0.74923641  1
  V  V85  1  0.62594456  0.49919196  0.12410715  1
  V  V86  1  0.37789956  0.24804878  0.12786622  1
  V  V87  1  0.12486093  0.37477074  0.24951886  1
  V  V88  1  0.62416939  0.87515749  0.25217221  1
  V  V89  1  0.49864466  0.25029355  0.75043225  1
  V  V90  1  0.62404326  0.37353235  0.25060944  1
  V  V91  1  0.24960543  0.25121693  0.50114224  1
  V  V92  1  0.50006217  0.62538464  0.62510865  1
  V  V93  1  0.12592671  0.87538723  0.25044020  1
  V  V94  1  0.12601131  0.00009010  0.12603675  1
  V  V95  1  0.75175953  0.87273406  0.12402851  1
  Zn  Zn96  1  0.62257975  0.25069058  0.37457365  1
  Zn  Zn97  1  0.00082377  0.62423406  0.62432623  1
  Zn  Zn98  1  0.37482590  0.50014810  0.87541108  1
  Zn  Zn99  1  0.87805808  0.74620458  0.12567359  1
  Zn  Zn100  1  0.50055274  0.12481603  0.12897270  1
  Zn  Zn101  1  0.25180459  0.87497709  0.12617013  1
  Zn  Zn102  1  0.50073878  0.37349595  0.37501915  1
  Zn  Zn103  1  0.50071716  0.24746689  0.25471642  1
  Zn  Zn104  1  0.12641843  0.12441447  -0.00071005  1
  Zn  Zn105  1  -0.00258357  0.62700647  0.12568318  1
  Zn  Zn106  1  0.62530741  0.25005273  0.87473634  1
  Zn  Zn107  1  0.87862166  0.62501090  0.24651403  1
  Zn  Zn108  1  0.49956763  0.12533883  0.62673021  1
  Zn  Zn109  1  0.37437777  0.75194299  0.12622863  1
  Zn  Zn110  1  0.75024600  0.75138435  0.49919892  1
  Zn  Zn111  1  0.37909195  0.12486341  0.25198578  1
  Zn  Zn112  1  0.75029552  0.25061076  -0.00209603  1
  Zn  Zn113  1  0.87318643  0.49861493  0.87370348  1
  Zn  Zn114  1  0.12545293  0.87490764  0.75021931  1
  Zn  Zn115  1  0.87429025  0.87512831  0.49839757  1
  Zn  Zn116  1  0.75046462  0.49925346  0.74917573  1
  Zn  Zn117  1  0.24823891  0.12451852  0.87620577  1
  Zn  Zn118  1  0.87710627  0.87212532  0.00153408  1
  Zn  Zn119  1  0.75225242  0.49993952  0.24710824  1
  Zn  Zn120  1  0.12231643  0.50024375  0.62372132  1
  Zn  Zn121  1  0.74978882  0.37707733  0.62565115  1
  Zn  Zn122  1  -0.00026883  0.12222712  0.62694578  1
  Zn  Zn123  1  0.74976980  0.12474729  0.37380437  1
  Zn  Zn124  1  0.50072059  0.87530151  0.37560350  1
  Zn  Zn125  1  0.24711436  0.37611325  0.62421684  1
  Zn  Zn126  1  0.87654601  0.12339094  0.74972226  1
  Zn  Zn127  1  -0.00157475  0.74791176  0.24650866  1
  Zn  Zn128  1  0.18920915  0.18585507  0.18786807  1
  Zn  Zn129  1  0.18750970  0.18639997  0.68810193  1
  Zn  Zn130  1  0.18687194  0.68856892  0.18589742  1
  Zn  Zn131  1  0.18566511  0.68616338  0.68612396  1
  Zn  Zn132  1  0.68928273  0.18902390  0.18622874  1
  Zn  Zn133  1  0.68779342  0.18839801  0.68685935  1
  Zn  Zn134  1  0.68730642  0.68788218  0.18839624  1
  Zn  Zn135  1  0.68866951  0.68831378  0.68696546  1
  Zn  Zn136  1  0.31257351  0.31281621  0.31367608  1
  Zn  Zn137  1  0.31202824  0.31340959  0.81396861  1
  Zn  Zn138  1  0.31341708  0.81401359  0.31272457  1
  Zn  Zn139  1  0.31185931  0.81361413  0.81321278  1
  Zn  Zn140  1  0.81017653  0.31287450  0.31101996  1
  Zn  Zn141  1  0.81185229  0.31073100  0.81233796  1
  Zn  Zn142  1  0.81484473  0.81035397  0.31072461  1
  Zn  Zn143  1  0.81394301  0.81219230  0.81305183  1
  Zn  Zn144  1  0.18734658  0.43773905  0.43669716  1
  Zn  Zn145  1  0.18744288  0.43618221  0.93597155  1
  Zn  Zn146  1  0.18766194  0.93748526  0.43788695  1
  Zn  Zn147  1  0.18689547  0.93666662  0.93837113  1
  Zn  Zn148  1  0.68746865  0.43826180  0.43728252  1
  Zn  Zn149  1  0.68891789  0.43963477  0.93542085  1
  Zn  Zn150  1  0.68965368  0.93663409  0.43777482  1
  Zn  Zn151  1  0.68734227  0.93788236  0.93849734  1
  Zn  Zn152  1  0.31109313  0.06415639  0.06291069  1
  Zn  Zn153  1  0.31210774  0.06460048  0.56384175  1
  Zn  Zn154  1  0.31314475  0.56313297  0.06314545  1
  Zn  Zn155  1  0.31148295  0.56261080  0.56329901  1
  Zn  Zn156  1  0.81382267  0.06064787  0.06237307  1
  Zn  Zn157  1  0.81264537  0.06234524  0.56152201  1
  Zn  Zn158  1  0.81376096  0.56195632  0.06118569  1
  Zn  Zn159  1  0.81138327  0.56215773  0.56179210  1
  Zn  Zn160  1  0.43948035  0.43670947  0.18698166  1
  Zn  Zn161  1  0.43593097  0.43711945  0.68698669  1
  Zn  Zn162  1  0.43728994  0.93762778  0.18823391  1
  Zn  Zn163  1  0.43744738  0.93868203  0.68680459  1
  Zn  Zn164  1  0.93683966  0.44012665  0.18632329  1
  Zn  Zn165  1  0.93859122  0.43687347  0.68466050  1
  Zn  Zn166  1  0.93824929  0.93566754  0.18827253  1
  Zn  Zn167  1  0.93846969  0.93633993  0.68942503  1
  Zn  Zn168  1  0.06277648  0.06198215  0.31273688  1
  Zn  Zn169  1  0.06294185  0.06412909  0.81185534  1
  Zn  Zn170  1  0.06176833  0.56343241  0.31123521  1
  Zn  Zn171  1  0.06148743  0.56256563  0.81353280  1
  Zn  Zn172  1  0.56075277  0.06376343  0.31387170  1
  Zn  Zn173  1  0.56137534  0.06274479  0.81277331  1
  Zn  Zn174  1  0.56359500  0.56016244  0.31209971  1
  Zn  Zn175  1  0.56172765  0.56135743  0.81308643  1
  Zn  Zn176  1  0.43923784  0.18925670  0.43760443  1
  Zn  Zn177  1  0.43691805  0.18841323  0.93753071  1
  Zn  Zn178  1  0.43813896  0.68717375  0.43660501  1
  Zn  Zn179  1  0.43615428  0.68789091  0.93726957  1
  Zn  Zn180  1  0.93768447  0.18511496  0.43738032  1
  Zn  Zn181  1  0.93855286  0.18672512  0.93784569  1
  Zn  Zn182  1  0.93884474  0.68740465  0.43486637  1
  Zn  Zn183  1  0.93705705  0.68762459  0.93943059  1
  Zn  Zn184  1  0.06197346  0.31280257  0.06151975  1
  Zn  Zn185  1  0.06215700  0.31410077  0.56352913  1
  Zn  Zn186  1  0.06401181  0.81279900  0.06390649  1
  Zn  Zn187  1  0.06197079  0.81294032  0.56141167  1
  Zn  Zn188  1  0.56252179  0.31171552  0.06271077  1
  Zn  Zn189  1  0.55913579  0.31305822  0.56496249  1
  Zn  Zn190  1  0.56192264  0.81252891  0.06386582  1
  Zn  Zn191  1  0.56302397  0.81259686  0.56160919  1
  O  O192  1  0.11767504  0.11855435  0.12550434  1
  O  O193  1  0.12381277  0.11796690  0.61792848  1
  O  O194  1  0.12697858  0.61611586  0.11679243  1
  O  O195  1  0.12174955  0.62314816  0.61476242  1
  O  O196  1  0.62694247  0.11901726  0.11437630  1
  O  O197  1  0.62521441  0.11870979  0.61581203  1
  O  O198  1  0.62009853  0.61951271  0.11892742  1
  O  O199  1  0.61887947  0.62098924  0.62082866  1
  O  O200  1  0.37504453  0.38273013  0.38203833  1
  O  O201  1  0.38212225  0.37683481  0.88257571  1
  O  O202  1  0.37646347  0.88215031  0.38371461  1
  O  O203  1  0.38152441  0.88086829  0.87995468  1
  O  O204  1  0.87966323  0.37918331  0.37967474  1
  O  O205  1  0.88074100  0.37467000  0.87974819  1
  O  O206  1  0.88188685  0.88201807  0.37552271  1
  O  O207  1  0.88178425  0.88093128  0.87698486  1
  O  O208  1  0.25538976  0.00606383  0.37190239  1
  O  O209  1  0.25669746  -0.00014571  0.86858084  1
  O  O210  1  0.25537109  0.50575154  0.36868635  1
  O  O211  1  0.25069231  0.50611250  0.86461329  1
  O  O212  1  0.75711491  0.00102070  0.36803585  1
  O  O213  1  0.75461243  0.00588545  0.87058221  1
  O  O214  1  0.75563842  0.50887080  0.37539753  1
  O  O215  1  0.75250726  0.50994092  0.87012021  1
  O  O216  1  0.24523896  0.49361167  0.13033896  1
  O  O217  1  0.24736302  0.50020588  0.63807636  1
  O  O218  1  0.24389591  1.00023028  0.13292272  1
  O  O219  1  0.24519182  0.99417045  0.62961746  1
  O  O220  1  0.74228554  0.49264232  0.12377245  1
  O  O221  1  0.74099537  0.49743706  0.62785304  1
  O  O222  1  0.74455818  0.99157485  0.13015288  1
  O  O223  1  0.74556874  0.99484261  0.63108957  1
  O  O224  1  0.00528078  0.36913606  0.25464782  1
  O  O225  1  0.00441726  0.36962767  0.75490557  1
  O  O226  1  0.00922299  0.87587581  0.25777307  1
  O  O227  1  0.00220475  0.86743807  0.75802947  1
  O  O228  1  0.51245952  0.37348092  0.24967903  1
  O  O229  1  0.50667774  0.37093661  0.75514328  1
  O  O230  1  0.50723447  0.86855258  0.25205617  1
  O  O231  1  0.50485885  0.86959062  0.75506371  1
  O  O232  1  0.49756471  0.12934235  0.24632625  1
  O  O233  1  0.49378315  0.13174655  0.74946114  1
  O  O234  1  0.49597387  0.62901544  0.24482112  1
  O  O235  1  0.49477397  0.63074964  0.74502355  1
  O  O236  1  0.99456058  0.13059086  0.24482505  1
  O  O237  1  0.99623593  0.13379599  0.74720162  1
  O  O238  1  0.99895354  0.62784086  0.24602762  1
  O  O239  1  0.98999571  0.63118485  0.74972418  1
  O  O240  1  0.36972143  0.25611378  0.00799741  1
  O  O241  1  0.36874016  0.25551484  0.50577869  1
  O  O242  1  0.36941667  0.75687565  -0.00003388  1
  O  O243  1  0.37007678  0.75447413  0.50540860  1
  O  O244  1  0.87494375  0.25649106  0.00649059  1
  O  O245  1  0.86826004  0.25328667  0.50601542  1
  O  O246  1  0.86398642  0.75280750  0.00097119  1
  O  O247  1  0.87494010  0.75032983  0.51260197  1
  O  O248  1  0.12892900  0.24582386  0.49433600  1
  O  O249  1  0.13120193  0.25101363  0.99376021  1
  O  O250  1  0.13159258  0.74503761  0.49358863  1
  O  O251  1  0.13208607  0.74404544  0.99366615  1
  O  O252  1  0.63308944  0.24292715  0.50469366  1
  O  O253  1  0.62686219  0.23727500  0.99779674  1
  O  O254  1  0.62529206  0.74219671  0.49445569  1
  O  O255  1  0.62862822  0.74487406  0.99362713  1
  O  O256  1  0.48774572  0.24936843  0.12499412  1
  O  O257  1  0.49108310  0.24842812  0.63288212  1
  O  O258  1  0.49989360  0.74262207  0.13242635  1
  O  O259  1  0.49458164  0.74502946  0.63061962  1
  O  O260  1  0.99508984  0.24508152  0.13095440  1
  O  O261  1  0.99007948  0.24935868  0.62914466  1
  O  O262  1  0.99795244  0.74727769  0.12631487  1
  O  O263  1  0.99054951  0.74953758  0.63109315  1
  O  O264  1  0.00465856  0.25508418  0.36911652  1
  O  O265  1  0.00446149  0.25560125  0.86903737  1
  O  O266  1  0.00851547  0.75792838  0.37490739  1
  O  O267  1  0.00545694  0.75499877  0.87115569  1
  O  O268  1  0.50458693  0.25609438  0.37350648  1
  O  O269  1  0.50243179  0.25745319  0.86862237  1
  O  O270  1  0.50733625  0.75032042  0.36869465  1
  O  O271  1  0.50502682  0.75571835  0.86906444  1
  O  O272  1  0.24336666  0.13129875  0.49488895  1
  O  O273  1  0.24718810  0.13463973  0.99739533  1
  O  O274  1  0.24585047  0.63039918  0.49380299  1
  O  O275  1  0.24557020  0.62934319  0.99374190  1
  O  O276  1  0.74162513  0.13320772  0.50021959  1
  O  O277  1  0.74126233  0.12171039  0.99118952  1
  O  O278  1  0.74301886  0.62627611  0.49002309  1
  O  O279  1  0.74224293  0.63057709  0.99328944  1
  O  O280  1  0.25570725  0.37034460  0.00574807  1
  O  O281  1  0.25534801  0.36900269  0.50066323  1
  O  O282  1  0.25722899  0.86824692  0.00011582  1
  O  O283  1  0.25603179  0.86893659  0.50569189  1
  O  O284  1  0.75593536  0.37322456  0.00399353  1
  O  O285  1  0.75483840  0.36570843  0.50176655  1
  O  O286  1  0.74754119  0.87000575  0.00975240  1
  O  O287  1  0.75336642  0.87207323  0.50902069  1
  O  O288  1  0.13161233  0.49332340  0.24504186  1
  O  O289  1  0.13313796  0.49533478  0.75000550  1
  O  O290  1  0.13137487  0.99533428  0.24638752  1
  O  O291  1  0.13184892  0.99842013  0.74328825  1
  O  O292  1  0.62671760  0.49068592  0.24202461  1
  O  O293  1  0.62320491  0.49056435  0.74423072  1
  O  O294  1  0.63038272  0.99547610  0.24584494  1
  O  O295  1  0.62993980  0.99426816  0.74531428  1
  O  O296  1  0.36909511  0.00092087  0.25845045  1
  O  O297  1  0.37040688  0.00504257  0.75503972  1
  O  O298  1  0.36998060  0.50473089  0.25469540  1
  O  O299  1  0.36571924  0.50620199  0.75104198  1
  O  O300  1  0.86997378  0.00513883  0.25455423  1
  O  O301  1  0.86797583  0.00139911  0.75705527  1
  O  O302  1  0.87181364  0.50083225  0.25914631  1
  O  O303  1  0.87434650  0.51216065  0.74889976  1
  O  O304  1  0.11914584  0.36920472  0.36886331  1
  O  O305  1  0.11811806  0.36886079  0.86874165  1
  O  O306  1  0.12089187  0.87045196  0.37040523  1
  O  O307  1  0.11868584  0.86740328  0.87317993  1
  O  O308  1  0.62530484  0.37547626  0.36312258  1
  O  O309  1  0.61936557  0.37439664  0.86552705  1
  O  O310  1  0.62487447  0.86824569  0.36926458  1
  O  O311  1  0.61927385  0.87055379  0.86923851  1
  O  O312  1  0.37624297  0.13688500  0.12604670  1
  O  O313  1  0.37617189  0.13235211  0.63261988  1
  O  O314  1  0.38241617  0.62600302  0.13234272  1
  O  O315  1  0.38036627  0.63131257  0.63028154  1
  O  O316  1  0.88068635  0.12963827  0.13044613  1
  O  O317  1  0.87576303  0.13707776  0.62601762  1
  O  O318  1  0.87687091  0.62656585  0.12706354  1
  O  O319  1  0.87416237  0.63451890  0.63328355  1
  O  O320  1  0.25690436  0.25594159  0.12030657  1
  O  O321  1  0.25532293  0.25182032  0.61844794  1
  O  O322  1  0.25320620  0.75227782  0.11594867  1
  O  O323  1  0.25579320  0.75434850  0.61951312  1
  O  O324  1  0.75843610  0.25621861  0.12086108  1
  O  O325  1  0.75862713  0.25133792  0.61588250  1
  O  O326  1  0.74540061  0.76027624  0.11868648  1
  O  O327  1  0.75954301  0.75587351  0.62504489  1
  O  O328  1  0.24374625  0.24541478  0.38103971  1
  O  O329  1  0.24313921  0.25101230  0.88202804  1
  O  O330  1  0.24589669  0.74445131  0.38102721  1
  O  O331  1  0.24496650  0.74455631  0.87981418  1
  O  O332  1  0.74886869  0.24781063  0.38856548  1
  O  O333  1  0.74741716  0.23638379  0.87641470  1
  O  O334  1  0.74390198  0.74069915  0.37693364  1
  O  O335  1  0.74248695  0.74610622  0.87951883  1
  O  O336  1  0.00179914  0.11804241  0.00757622  1
  O  O337  1  0.00720948  0.11800905  0.50138402  1
  O  O338  1  0.00845332  0.61683363  -0.00190389  1
  O  O339  1  0.00674070  0.61801526  0.49798646  1
  O  O340  1  0.51041451  0.11860902  -0.00063571  1
  O  O341  1  0.51027241  0.11987693  0.50368466  1
  O  O342  1  0.50522086  0.62088668  0.00441177  1
  O  O343  1  0.50433600  0.61963505  0.50645578  1
  O  O344  1  0.49231913  0.38314711  0.50045308  1
  O  O345  1  0.49616401  0.38075827  0.99540578  1
  O  O346  1  0.49361690  0.88154462  0.49985145  1
  O  O347  1  0.49588276  0.88023163  0.99385681  1
  O  O348  1  0.99416844  0.37914692  0.49244109  1
  O  O349  1  0.99472295  0.37966800  0.99362463  1
  O  O350  1  0.99883344  0.88229404  0.49215348  1
  O  O351  1  0.99951667  0.88211769  0.99336228  1
  O  O352  1  0.49280815  0.49964253  0.38253991  1
  O  O353  1  0.49798626  0.49409208  0.88207241  1
  O  O354  1  0.49355187  0.99824311  0.38385820  1
  O  O355  1  0.49449093  0.99385092  0.88026740  1
  O  O356  1  0.99436153  0.49293093  0.37980740  1
  O  O357  1  0.99841428  0.49183782  0.88088585  1
  O  O358  1  0.99555612  0.99468652  0.38015131  1
  O  O359  1  0.99570204  0.99526472  0.87990393  1
  O  O360  1  0.00530969  0.00464904  0.12085482  1
  O  O361  1  0.00605921  -0.00033225  0.61908426  1
  O  O362  1  0.00867609  0.49814473  0.11603614  1
  O  O363  1  0.00072658  0.50288617  0.61411454  1
  O  O364  1  0.50723869  0.00112953  0.11800003  1
  O  O365  1  0.50784037  0.00161593  0.61932174  1
  O  O366  1  0.50600770  0.50592899  0.11828204  1
  O  O367  1  0.50405775  0.50700943  0.62020972  1
  O  O368  1  0.24422136  0.38055676  0.24511127  1
  O  O369  1  0.24412664  0.38513753  0.75073844  1
  O  O370  1  0.24402555  0.88330561  0.25079678  1
  O  O371  1  0.24986516  0.88143230  0.74266495  1
  O  O372  1  0.74142794  0.37635978  0.24164595  1
  O  O373  1  0.73738402  0.37521420  0.74904845  1
  O  O374  1  0.74364509  0.87990347  0.24190930  1
  O  O375  1  0.74347300  0.87976038  0.74571350  1
  O  O376  1  0.25210511  0.11886660  0.25898969  1
  O  O377  1  0.25715343  0.11787454  0.75232494  1
  O  O378  1  0.25561455  0.61915548  0.25511576  1
  O  O379  1  0.25420965  0.61844242  0.75475457  1
  O  O380  1  0.75650318  0.11833093  0.25028468  1
  O  O381  1  0.74895785  0.11853570  0.76001094  1
  O  O382  1  0.74685818  0.62170065  0.26387564  1
  O  O383  1  0.75900429  0.62654929  0.75536954  1
  O  O384  1  0.36767354  0.11874510  0.37712940  1
  O  O385  1  0.37359982  0.11812469  0.86901806  1
  O  O386  1  0.36926177  0.61897122  0.36972651  1
  O  O387  1  0.36834684  0.62377296  0.86768352  1
  O  O388  1  0.87420864  0.11809697  0.36709791  1
  O  O389  1  0.86445681  0.11838965  0.87535683  1
  O  O390  1  0.86442286  0.61901104  0.37683213  1
  O  O391  1  0.86888286  0.62648896  0.86407703  1
  O  O392  1  0.13097590  0.37947217  0.13057521  1
  O  O393  1  0.12699366  0.37868035  0.63345140  1
  O  O394  1  0.12832549  0.88342239  0.13275463  1
  O  O395  1  0.13256139  0.88063873  0.62586604  1
  O  O396  1  0.63026534  0.37931901  0.12989063  1
  O  O397  1  0.62354622  0.38109493  0.63532642  1
  O  O398  1  0.63292348  0.88045807  0.13092485  1
  O  O399  1  0.63032835  0.87968328  0.63105360  1
  O  O400  1  0.11975770  0.25530419  0.25548082  1
  O  O401  1  0.11970085  0.25596675  0.75483086  1
  O  O402  1  0.12763043  0.75789492  0.25772817  1
  O  O403  1  0.11884007  0.74952162  0.75697957  1
  O  O404  1  0.62616696  0.26102351  0.25017897  1
  O  O405  1  0.61847783  0.25943400  0.74950317  1
  O  O406  1  0.61961370  0.75517071  0.25634269  1
  O  O407  1  0.61872822  0.75560574  0.75462660  1
  O  O408  1  0.37427625  0.25078441  0.23856565  1
  O  O409  1  0.37887377  0.24592210  0.74600648  1
  O  O410  1  0.38184098  0.74281023  0.25074050  1
  O  O411  1  0.38020010  0.74512727  0.74440698  1
  O  O412  1  0.88044909  0.24508118  0.24415552  1
  O  O413  1  0.87930457  0.24961560  0.73986254  1
  O  O414  1  0.87831322  0.74500043  0.24593755  1
  O  O415  1  0.87977933  0.74230776  0.74265732  1
  O  O416  1  0.37861141  0.49610476  0.49550792  1
  O  O417  1  0.38150548  0.49339737  0.99970720  1
  O  O418  1  0.37979420  0.99534254  0.49717601  1
  O  O419  1  0.38002415  0.99542291  0.99473330  1
  O  O420  1  0.87980362  0.49365995  0.49388203  1
  O  O421  1  0.88232446  0.49203903  0.99635830  1
  O  O422  1  0.88169587  0.99937496  0.49345403  1
  O  O423  1  0.88243853  0.99690081  0.99396950  1
  O  O424  1  0.11881968  0.00126092  0.00749766  1
  O  O425  1  0.12031491  0.00534074  0.50534172  1
  O  O426  1  0.12106993  0.50362279  0.00421299  1
  O  O427  1  0.11860852  0.50608296  0.49802564  1
  O  O428  1  0.61976484  0.00712737  0.00487582  1
  O  O429  1  0.62195197  0.00756872  0.50532181  1
  O  O430  1  0.61891426  0.50627663  0.00422461  1
  O  O431  1  0.61826581  0.50522234  0.50602454  1
  O  O432  1  0.36967399  0.36813666  0.12007134  1
  O  O433  1  0.37113975  0.36904330  0.61871226  1
  O  O434  1  0.37335948  0.87310593  0.11650954  1
  O  O435  1  0.36981499  0.86905093  0.61979610  1
  O  O436  1  0.87040815  0.37000838  0.11893782  1
  O  O437  1  0.87336351  0.36388933  0.61824680  1
  O  O438  1  0.86021177  0.87500792  0.12411953  1
  O  O439  1  0.86966861  0.86486284  0.62662103  1
  O  O440  1  0.13002937  0.13116435  0.38084816  1
  O  O441  1  0.12699670  0.13455219  0.87743632  1
  O  O442  1  0.13244022  0.63042924  0.37962652  1
  O  O443  1  0.13097628  0.63055187  0.88075357  1
  O  O444  1  0.62823795  0.12632688  0.38943485  1
  O  O445  1  0.63398445  0.12232274  0.88367281  1
  O  O446  1  0.63190717  0.62832197  0.38045342  1
  O  O447  1  0.62816445  0.63176103  0.87928988  1
