# generated using pymatgen
data_V3Zn3O8
_symmetry_space_group_name_H-M   'P 1'
_cell_length_a   17.08654912
_cell_length_b   17.08700435
_cell_length_c   17.08707414
_cell_angle_alpha   89.98845046
_cell_angle_beta   89.99945479
_cell_angle_gamma   90.00080666
_symmetry_Int_Tables_number   1
_chemical_formula_structural   V3Zn3O8
_chemical_formula_sum   'V96 Zn96 O256'
_cell_volume   4988.70684861
_cell_formula_units_Z   32
loop_
 _symmetry_equiv_pos_site_id
 _symmetry_equiv_pos_as_xyz
  1  'x, y, z'
loop_
 _atom_site_type_symbol
 _atom_site_label
 _atom_site_symmetry_multiplicity
 _atom_site_fract_x
 _atom_site_fract_y
 _atom_site_fract_z
 _atom_site_occupancy
  V  V0  1  0.49892307  0.37523054  0.37421155  1
  V  V1  1  0.24804538  0.12634580  0.37630106  1
  V  V2  1  0.00129038  0.12447724  0.62399961  1
  V  V3  1  0.62586128  0.87472498  0.25137677  1
  V  V4  1  0.25054872  0.24962881  0.00034277  1
  V  V5  1  0.87391115  0.25071875  0.12536833  1
  V  V6  1  0.75049908  0.62562077  0.37559140  1
  V  V7  1  -0.00085530  0.37494390  0.37518001  1
  V  V8  1  0.62585716  0.00098259  0.12505228  1
  V  V9  1  0.12526110  0.87447608  0.75074063  1
  V  V10  1  -0.00040750  0.25139610  0.75077071  1
  V  V11  1  0.37372249  0.75084572  0.62369623  1
  V  V12  1  0.37649460  -0.00119851  0.37490376  1
  V  V13  1  0.24932014  0.37539653  0.62368206  1
  V  V14  1  0.37386775  0.37415384  0.49988518  1
  V  V15  1  0.75057717  0.00013438  0.75004071  1
  V  V16  1  0.87566384  0.87419987  0.00109050  1
  V  V17  1  0.74986547  0.12483977  0.87563281  1
  V  V18  1  0.12509144  0.00063797  0.62546304  1
  V  V19  1  -0.00275699  0.49685745  -0.00056249  1
  V  V20  1  0.12556357  0.49858161  0.12602002  1
  V  V21  1  0.62529329  0.00220661  0.62398104  1
  V  V22  1  0.87542439  0.75093827  0.62538005  1
  V  V23  1  0.87586323  0.87686184  0.50006607  1
  V  V24  1  0.00050204  0.87399584  0.87573032  1
  V  V25  1  0.24934708  0.62385235  0.87544839  1
  V  V26  1  0.75099591  0.87634505  0.62531667  1
  V  V27  1  0.37588159  -0.00120652  0.87449621  1
  V  V28  1  0.12552273  0.87502979  0.25059583  1
  V  V29  1  0.50061771  0.00010658  0.00007482  1
  V  V30  1  0.25150597  -0.00017352  0.24913222  1
  V  V31  1  0.74950565  0.75098949  0.50046448  1
  V  V32  1  0.12455777  0.49974388  0.62518040  1
  V  V33  1  0.37376361  0.37362566  -0.00217425  1
  V  V34  1  0.37455473  0.49942476  0.87377196  1
  V  V35  1  0.75083470  0.37453836  0.12354754  1
  V  V36  1  0.12432002  0.37425066  0.25104552  1
  V  V37  1  0.74924422  0.37569603  0.62554208  1
  V  V38  1  0.50060614  0.12457028  0.12474065  1
  V  V39  1  0.00023045  0.74927268  0.75059998  1
  V  V40  1  0.12547213  0.62638410  0.49908356  1
  V  V41  1  0.37533829  0.87247721  0.00059373  1
  V  V42  1  -0.00013200  0.12449196  0.12551745  1
  V  V43  1  0.87507217  0.00045124  0.37570887  1
  V  V44  1  0.87612696  0.74928671  0.12656639  1
  V  V45  1  0.49923009  0.24926517  0.24853028  1
  V  V46  1  0.74895857  0.25199500  0.50011214  1
  V  V47  1  0.00008441  0.25054232  0.25105326  1
  V  V48  1  0.87367403  0.50188259  0.37510273  1
  V  V49  1  0.62372365  0.62619978  0.50077082  1
  V  V50  1  0.50072412  0.00022523  0.49944161  1
  V  V51  1  -0.00114593  0.50073559  0.50034960  1
  V  V52  1  0.87401497  0.62444382  0.75084865  1
  V  V53  1  0.49999981  0.49985421  -0.00092469  1
  V  V54  1  0.49888138  0.62545250  0.62467188  1
  V  V55  1  0.62473433  0.25089833  0.37555634  1
  V  V56  1  -0.00012613  0.62512911  0.12671254  1
  V  V57  1  0.75154338  0.87501448  0.12598981  1
  V  V58  1  0.74967498  0.12706388  0.37602053  1
  V  V59  1  0.74854451  0.62534321  0.87646828  1
  V  V60  1  0.12576717  0.74826839  0.87610782  1
  V  V61  1  0.37582731  0.12477650  0.74777124  1
  V  V62  1  0.37603687  0.12469655  0.24865998  1
  V  V63  1  0.37456433  0.24966755  0.62496150  1
  V  V64  1  0.25021199  0.87441800  0.62470146  1
  V  V65  1  0.25047459  -0.00074257  0.75023224  1
  V  V66  1  0.62326687  0.87366655  0.75216671  1
  V  V67  1  0.62484188  0.75097459  0.37525871  1
  V  V68  1  0.25049504  0.12440221  0.87436557  1
  V  V69  1  0.37501732  0.62466418  0.74902467  1
  V  V70  1  0.62366585  0.50187207  0.12299358  1
  V  V71  1  0.00107079  -0.00038086  0.00087615  1
  V  V72  1  0.50021237  0.37412158  0.87256178  1
  V  V73  1  0.24871036  0.49885029  0.74886957  1
  V  V74  1  0.87339351  0.37617822  0.50060070  1
  V  V75  1  0.49945323  0.50129040  0.49919053  1
  V  V76  1  0.87525049  0.62590474  0.25112763  1
  V  V77  1  0.49930062  0.74795263  0.24781267  1
  V  V78  1  0.75022461  0.00079287  0.25060792  1
  V  V79  1  -0.00011609  0.62524571  0.62515170  1
  V  V80  1  0.87512239  0.12587712  0.25074510  1
  V  V81  1  0.74990045  0.50029108  0.75055469  1
  V  V82  1  0.12528612  0.00008424  0.12417875  1
  V  V83  1  0.62539163  0.37592831  0.75002796  1
  V  V84  1  0.87561453  0.12443580  0.75049591  1
  V  V85  1  0.00187279  0.87543310  0.37506960  1
  V  V86  1  0.24947122  0.49828626  0.24936527  1
  V  V87  1  0.24946272  0.62638797  0.37416330  1
  V  V88  1  0.62570064  0.24832433  0.87525601  1
  V  V89  1  0.12361518  0.25041150  0.87458425  1
  V  V90  1  0.25116036  0.87404135  0.12472949  1
  V  V91  1  0.87562871  -0.00089597  0.87546417  1
  V  V92  1  0.62366192  0.37586587  0.24920499  1
  V  V93  1  0.12542482  0.62391993  0.00035663  1
  V  V94  1  0.37420169  0.49971442  0.37289518  1
  V  V95  1  0.74991894  0.74947774  -0.00002251  1
  Zn  Zn96  1  -0.00353388  0.37524481  0.87504270  1
  Zn  Zn97  1  0.87522568  0.37197124  -0.00164196  1
  Zn  Zn98  1  0.49699748  0.62486235  0.12223484  1
  Zn  Zn99  1  0.62365853  0.50112108  0.62542600  1
  Zn  Zn100  1  0.75185225  0.24722557  0.00052953  1
  Zn  Zn101  1  0.12315725  0.37587027  0.74892545  1
  Zn  Zn102  1  0.87455459  0.25054944  0.62516952  1
  Zn  Zn103  1  0.50008027  0.24806573  0.74792956  1
  Zn  Zn104  1  0.25106326  0.74732076  0.00218085  1
  Zn  Zn105  1  0.12481920  0.12632614  0.49900729  1
  Zn  Zn106  1  0.37352262  0.87495565  0.49836135  1
  Zn  Zn107  1  0.00245120  0.74953705  0.25062432  1
  Zn  Zn108  1  0.62234891  0.75116738  0.87713043  1
  Zn  Zn109  1  0.24875389  0.75374826  0.49750243  1
  Zn  Zn110  1  0.50149711  0.12682124  0.62500309  1
  Zn  Zn111  1  0.24739355  0.24987708  0.49975090  1
  Zn  Zn112  1  0.74874182  0.50163101  0.25007324  1
  Zn  Zn113  1  0.62233270  0.62872269  -0.00019747  1
  Zn  Zn114  1  0.00172986  0.00144810  0.50011230  1
  Zn  Zn115  1  0.50017655  0.87252076  0.87506870  1
  Zn  Zn116  1  0.62480858  0.12698571  0.50163920  1
  Zn  Zn117  1  0.12642291  0.75170362  0.37509144  1
  Zn  Zn118  1  0.49844792  0.87374890  0.37548901  1
  Zn  Zn119  1  0.25106724  0.37311639  0.12621527  1
  Zn  Zn120  1  0.37540644  0.24962095  0.12338807  1
  Zn  Zn121  1  0.37423131  0.74596623  0.12475694  1
  Zn  Zn122  1  0.50061122  0.74955691  0.75211069  1
  Zn  Zn123  1  0.37547554  0.62378169  0.24640852  1
  Zn  Zn124  1  0.12444353  0.24963992  0.37699596  1
  Zn  Zn125  1  0.87440192  0.49586776  0.87608443  1
  Zn  Zn126  1  0.62613906  0.12451824  0.00032382  1
  Zn  Zn127  1  0.12525654  0.12414783  0.00050720  1
  Zn  Zn128  1  0.18620559  0.18726889  0.18840956  1
  Zn  Zn129  1  0.18862596  0.18782454  0.68751335  1
  Zn  Zn130  1  0.18691265  0.68917310  0.18837789  1
  Zn  Zn131  1  0.18839843  0.68687187  0.68761861  1
  Zn  Zn132  1  0.68627100  0.18806819  0.18864819  1
  Zn  Zn133  1  0.68767616  0.18827361  0.68722283  1
  Zn  Zn134  1  0.68752978  0.68714084  0.18818740  1
  Zn  Zn135  1  0.68717228  0.68826500  0.68731292  1
  Zn  Zn136  1  0.31302395  0.31079002  0.31141349  1
  Zn  Zn137  1  0.31183327  0.31224265  0.80979269  1
  Zn  Zn138  1  0.31488950  0.81282234  0.31171992  1
  Zn  Zn139  1  0.31238881  0.81085317  0.81289608  1
  Zn  Zn140  1  0.81173047  0.31443713  0.31139735  1
  Zn  Zn141  1  0.81310813  0.31337290  0.81379513  1
  Zn  Zn142  1  0.81423018  0.81188345  0.31272594  1
  Zn  Zn143  1  0.81134100  0.81151529  0.81299739  1
  Zn  Zn144  1  0.18652490  0.43847987  0.43739143  1
  Zn  Zn145  1  0.18540042  0.43587844  0.93698238  1
  Zn  Zn146  1  0.18733523  0.94137254  0.44059963  1
  Zn  Zn147  1  0.18893941  0.93621720  0.93862175  1
  Zn  Zn148  1  0.68598590  0.43926752  0.43813605  1
  Zn  Zn149  1  0.68746317  0.43713905  0.93795215  1
  Zn  Zn150  1  0.68656896  0.93792260  0.43737672  1
  Zn  Zn151  1  0.68800331  0.93775991  0.93838380  1
  Zn  Zn152  1  0.31387282  0.06212225  0.06171835  1
  Zn  Zn153  1  0.31391587  0.06204158  0.56149688  1
  Zn  Zn154  1  0.31325311  0.56156996  0.06355118  1
  Zn  Zn155  1  0.31210286  0.56242136  0.56048811  1
  Zn  Zn156  1  0.81258339  0.06340056  0.06188910  1
  Zn  Zn157  1  0.81336417  0.06429407  0.56172758  1
  Zn  Zn158  1  0.81217971  0.56283296  0.06322014  1
  Zn  Zn159  1  0.81090513  0.56252179  0.56362493  1
  Zn  Zn160  1  0.43517423  0.43526935  0.18496423  1
  Zn  Zn161  1  0.43763411  0.43680055  0.68675256  1
  Zn  Zn162  1  0.43919250  0.93585036  0.18712806  1
  Zn  Zn163  1  0.43885951  0.93819810  0.68531309  1
  Zn  Zn164  1  0.93663817  0.43888859  0.18878617  1
  Zn  Zn165  1  0.93507631  0.43753400  0.68752320  1
  Zn  Zn166  1  0.93792302  0.93821441  0.18926133  1
  Zn  Zn167  1  0.93888863  0.93779896  0.68871060  1
  Zn  Zn168  1  0.06351642  0.06107671  0.31060837  1
  Zn  Zn169  1  0.06357756  0.06332637  0.81230633  1
  Zn  Zn170  1  0.06287115  0.56167917  0.31277489  1
  Zn  Zn171  1  0.06224047  0.56209542  0.81322901  1
  Zn  Zn172  1  0.56313536  0.06354905  0.31370825  1
  Zn  Zn173  1  0.56061948  0.06177471  0.81165442  1
  Zn  Zn174  1  0.56330432  0.56370428  0.31161091  1
  Zn  Zn175  1  0.56264972  0.56242683  0.81153811  1
  Zn  Zn176  1  0.43627593  0.18661527  0.43815502  1
  Zn  Zn177  1  0.43875956  0.18592804  0.93560241  1
  Zn  Zn178  1  0.43606047  0.68760851  0.43599106  1
  Zn  Zn179  1  0.44030353  0.68752733  0.93551804  1
  Zn  Zn180  1  0.93558049  0.19011606  0.43874499  1
  Zn  Zn181  1  0.93618579  0.18624939  0.94010651  1
  Zn  Zn182  1  0.93756189  0.69002928  0.43796777  1
  Zn  Zn183  1  0.93671238  0.68500314  0.93875011  1
  Zn  Zn184  1  0.06353596  0.31226445  0.06446934  1
  Zn  Zn185  1  0.06471960  0.31118075  0.56013480  1
  Zn  Zn186  1  0.06381150  0.81110937  0.06323819  1
  Zn  Zn187  1  0.06393308  0.81210114  0.56109327  1
  Zn  Zn188  1  0.56210453  0.31257357  0.06035900  1
  Zn  Zn189  1  0.56154523  0.31375515  0.56336239  1
  Zn  Zn190  1  0.56362937  0.81331323  0.06345077  1
  Zn  Zn191  1  0.56091387  0.81437279  0.56436863  1
  O  O192  1  0.11777775  0.11772527  0.12426768  1
  O  O193  1  0.11535772  0.11936105  0.62837422  1
  O  O194  1  0.11981570  0.61873047  0.12045661  1
  O  O195  1  0.11903195  0.61981137  0.62014953  1
  O  O196  1  0.61939180  0.11822688  0.12467488  1
  O  O197  1  0.62371963  0.11742830  0.62306091  1
  O  O198  1  0.62576929  0.61128875  0.12355639  1
  O  O199  1  0.61772703  0.62567631  0.61830408  1
  O  O200  1  0.38012908  0.37989214  0.37962078  1
  O  O201  1  0.37965711  0.38029383  0.87752977  1
  O  O202  1  0.37709005  0.88367742  0.37753111  1
  O  O203  1  0.37398235  0.88089270  0.88398067  1
  O  O204  1  0.87903555  0.38216942  0.38020470  1
  O  O205  1  0.87843515  0.37793903  0.88093857  1
  O  O206  1  0.88229086  0.88082324  0.37968548  1
  O  O207  1  0.88086888  0.87919830  0.88034624  1
  O  O208  1  0.25578408  0.00742525  0.36845069  1
  O  O209  1  0.25474265  0.00470290  0.86962448  1
  O  O210  1  0.25431060  0.50738720  0.36940674  1
  O  O211  1  0.25421037  0.50377913  0.86913633  1
  O  O212  1  0.75532795  0.00597897  0.36977740  1
  O  O213  1  0.75699268  0.00439441  0.86968808  1
  O  O214  1  0.75560618  0.50766193  0.37453221  1
  O  O215  1  0.75108192  0.50920620  0.87069721  1
  O  O216  1  0.24248216  0.49718153  0.13117017  1
  O  O217  1  0.24454419  0.49592353  0.62932886  1
  O  O218  1  0.24519405  0.99506275  0.12976220  1
  O  O219  1  0.24541576  0.99500223  0.63181954  1
  O  O220  1  0.74130463  0.49191208  0.12586806  1
  O  O221  1  0.74730377  0.49449353  0.63199619  1
  O  O222  1  0.74674520  0.99482105  0.13155304  1
  O  O223  1  0.74674879  0.99532128  0.63048305  1
  O  O224  1  0.00366069  0.37038259  0.25584284  1
  O  O225  1  0.00053124  0.36227669  0.75000270  1
  O  O226  1  0.00592875  0.87608079  0.25970507  1
  O  O227  1  0.00547314  0.86892827  0.75638161  1
  O  O228  1  0.50406715  0.36913730  0.25501081  1
  O  O229  1  0.50668800  0.37441875  0.75624502  1
  O  O230  1  0.50819200  0.86607572  0.25112380  1
  O  O231  1  0.51282351  0.87603351  0.74959209  1
  O  O232  1  0.49539096  0.12978728  0.24491597  1
  O  O233  1  0.49061207  0.12610391  0.74658741  1
  O  O234  1  0.50001056  0.63638867  0.24872597  1
  O  O235  1  0.49236468  0.62489231  0.74287191  1
  O  O236  1  0.99385308  0.12969180  0.24521981  1
  O  O237  1  0.99592749  0.13209878  0.74341572  1
  O  O238  1  0.99399430  0.62599925  0.24456153  1
  O  O239  1  0.99454315  0.63025846  0.74473999  1
  O  O240  1  0.36460162  0.25435512  -0.00401662  1
  O  O241  1  0.37248387  0.25660404  0.50647286  1
  O  O242  1  0.37465714  0.76200748  0.00040947  1
  O  O243  1  0.37267217  0.75089746  0.51220058  1
  O  O244  1  0.87292700  0.25144034  0.01016327  1
  O  O245  1  0.86718849  0.25912218  0.50148417  1
  O  O246  1  0.87061361  0.75547983  0.00645581  1
  O  O247  1  0.86928268  0.75673201  0.50624980  1
  O  O248  1  0.12955320  0.24436823  0.49468632  1
  O  O249  1  0.13232562  0.24821834  0.99130949  1
  O  O250  1  0.12852608  0.74191465  0.49669800  1
  O  O251  1  0.12562120  0.74214228  0.99331461  1
  O  O252  1  0.63068093  0.25093607  0.49261063  1
  O  O253  1  0.62659498  0.24865955  0.98602285  1
  O  O254  1  0.63012400  0.74647410  0.49588993  1
  O  O255  1  0.63466490  0.74934838  0.99885058  1
  O  O256  1  0.50044824  0.24314534  0.13043353  1
  O  O257  1  0.49003145  0.24884847  0.62654509  1
  O  O258  1  0.50194695  0.74790996  0.13643689  1
  O  O259  1  0.48955250  0.74484861  0.62678974  1
  O  O260  1  0.99469510  0.24427610  0.13147301  1
  O  O261  1  1.00056810  0.24128482  0.63477630  1
  O  O262  1  0.99356005  0.74285987  0.12559677  1
  O  O263  1  0.99509965  0.74524283  0.63104581  1
  O  O264  1  -0.00129804  0.25702705  0.36819093  1
  O  O265  1  0.00775856  0.24640922  0.86737566  1
  O  O266  1  0.00083727  0.76432240  0.37406309  1
  O  O267  1  0.00476420  0.75398381  0.87017717  1
  O  O268  1  0.50427812  0.25565691  0.36924782  1
  O  O269  1  0.50920995  0.25516699  0.87236004  1
  O  O270  1  0.50657995  0.75125431  0.36702804  1
  O  O271  1  0.50474913  0.75458426  0.86933949  1
  O  O272  1  0.25024212  0.12400335  0.48686130  1
  O  O273  1  0.24964100  0.13355645  0.99284054  1
  O  O274  1  0.24375690  0.62311274  0.48858466  1
  O  O275  1  0.24300772  0.62356315  0.99278262  1
  O  O276  1  0.74981205  0.13332872  0.49316621  1
  O  O277  1  0.74701646  0.12596301  0.99164819  1
  O  O278  1  0.74466191  0.63220955  0.49586856  1
  O  O279  1  0.75028693  0.63033666  0.99122404  1
  O  O280  1  0.25440921  0.36392476  -0.00200626  1
  O  O281  1  0.25690797  0.37593818  0.50556170  1
  O  O282  1  0.26023923  0.87460129  0.00574130  1
  O  O283  1  0.25230426  0.87424562  0.50931444  1
  O  O284  1  0.75038157  0.37304627  0.01374143  1
  O  O285  1  0.75403750  0.37174743  0.50497942  1
  O  O286  1  0.75737886  0.87071910  0.00637642  1
  O  O287  1  0.75577730  0.87042458  0.50562031  1
  O  O288  1  0.12914530  0.49367800  0.24511642  1
  O  O289  1  0.12980250  0.49911768  0.74301427  1
  O  O290  1  0.13176415  0.99421772  0.24297917  1
  O  O291  1  0.13075131  0.99360715  0.74645522  1
  O  O292  1  0.62485435  0.49372802  0.24009731  1
  O  O293  1  0.63209174  0.49357841  0.74875314  1
  O  O294  1  0.63143241  0.99514373  0.24556639  1
  O  O295  1  0.63153619  0.99293178  0.74473273  1
  O  O296  1  0.37093094  0.00490867  0.25451389  1
  O  O297  1  0.36892846  0.00347528  0.75428563  1
  O  O298  1  0.36834245  0.49936167  0.25610571  1
  O  O299  1  0.36857939  0.50498435  0.75457308  1
  O  O300  1  0.86911393  0.00615793  0.25566055  1
  O  O301  1  0.87036036  0.00371548  0.75659474  1
  O  O302  1  0.87276306  0.50774014  0.25755765  1
  O  O303  1  0.86864235  0.50765855  0.75193625  1
  O  O304  1  0.11619739  0.37580525  0.36909733  1
  O  O305  1  0.12145663  0.36142900  0.87162854  1
  O  O306  1  0.11716542  0.87802589  0.37036468  1
  O  O307  1  0.11983217  0.86910725  0.87035903  1
  O  O308  1  0.61863250  0.37128461  0.36912520  1
  O  O309  1  0.62122321  0.36714702  0.87006050  1
  O  O310  1  0.62561238  0.86798414  0.36827662  1
  O  O311  1  0.62625357  0.87580111  0.86296030  1
  O  O312  1  0.38206520  0.12557369  0.13121645  1
  O  O313  1  0.37401478  0.13255357  0.63058453  1
  O  O314  1  0.37866006  0.62762076  0.12858236  1
  O  O315  1  0.37796074  0.63224304  0.62899300  1
  O  O316  1  0.87968000  0.12961610  0.13221349  1
  O  O317  1  0.88483385  0.12612746  0.63215952  1
  O  O318  1  0.87953352  0.62993138  0.13140599  1
  O  O319  1  0.88006416  0.63173198  0.63002435  1
  O  O320  1  0.25002151  0.24905988  0.11126999  1
  O  O321  1  0.25707015  0.25648954  0.62407305  1
  O  O322  1  0.25235661  0.75850014  0.12244168  1
  O  O323  1  0.25866126  0.75476453  0.62475899  1
  O  O324  1  0.75383486  0.25887230  0.12571275  1
  O  O325  1  0.75190310  0.25726370  0.61915278  1
  O  O326  1  0.75630384  0.75550481  0.12057582  1
  O  O327  1  0.75649864  0.75610289  0.61978196  1
  O  O328  1  0.25004458  0.23688706  0.37442188  1
  O  O329  1  0.24207304  0.24504400  0.88020131  1
  O  O330  1  0.25061485  0.73808454  0.37533897  1
  O  O331  1  0.24304371  0.74185484  0.87632130  1
  O  O332  1  0.74439275  0.24714738  0.37927715  1
  O  O333  1  0.74137948  0.24391189  0.87536302  1
  O  O334  1  0.74566530  0.74558777  0.38158052  1
  O  O335  1  0.74996153  0.74125456  0.88101012  1
  O  O336  1  0.00098229  0.11679560  0.00753574  1
  O  O337  1  -0.00162098  0.12506840  0.51346162  1
  O  O338  1  0.00520541  0.61639920  0.00623325  1
  O  O339  1  0.00394358  0.62068133  0.50569544  1
  O  O340  1  0.50125548  0.11758526  0.00625774  1
  O  O341  1  0.50259387  0.11292834  0.50047985  1
  O  O342  1  0.50339302  0.61549899  0.00077114  1
  O  O343  1  0.50425601  0.62085792  0.50427498  1
  O  O344  1  0.49401079  0.38124625  0.49326810  1
  O  O345  1  0.49394862  0.37932626  0.99157001  1
  O  O346  1  0.49865621  0.88746524  0.49815476  1
  O  O347  1  0.49071377  0.88148320  1.00092189  1
  O  O348  1  0.99350776  0.38140099  0.49566809  1
  O  O349  1  1.00013393  0.38620797  1.00129152  1
  O  O350  1  0.99444252  0.87746970  0.49235161  1
  O  O351  1  0.99492023  0.87961764  0.99488518  1
  O  O352  1  0.49459742  0.49497358  0.37891657  1
  O  O353  1  0.49429976  0.49405708  0.87896757  1
  O  O354  1  0.49555997  0.99898212  0.38230830  1
  O  O355  1  0.49303917  0.99714735  0.88189391  1
  O  O356  1  0.99335095  0.49539376  0.38154846  1
  O  O357  1  0.99937218  0.49915798  0.88672820  1
  O  O358  1  0.99397338  0.99156998  0.37575252  1
  O  O359  1  0.99566872  0.99393217  0.87956542  1
  O  O360  1  0.00481703  0.00442838  0.12064167  1
  O  O361  1  0.00547274  0.00993049  0.62811506  1
  O  O362  1  0.00528980  0.50548105  0.11886500  1
  O  O363  1  0.00385894  0.50631940  0.62004567  1
  O  O364  1  0.50677294  0.00502848  0.12085425  1
  O  O365  1  0.50605375  0.00178219  0.61514510  1
  O  O366  1  0.50994395  0.49649352  0.11843339  1
  O  O367  1  0.49935052  0.50728234  0.61688610  1
  O  O368  1  0.24288380  0.38021615  0.25009940  1
  O  O369  1  0.24750145  0.38195567  0.74231615  1
  O  O370  1  0.24570231  0.88134669  0.24494163  1
  O  O371  1  0.24372409  0.88012587  0.74567128  1
  O  O372  1  0.74298039  0.37744595  0.23974592  1
  O  O373  1  0.74541755  0.38071995  0.74535658  1
  O  O374  1  0.74659816  0.88073080  0.24533337  1
  O  O375  1  0.74462181  0.88089418  0.74459180  1
  O  O376  1  0.25562582  0.11916979  0.25611320  1
  O  O377  1  0.25522590  0.11831627  0.75527199  1
  O  O378  1  0.24846001  0.61771928  0.25992930  1
  O  O379  1  0.25503708  0.61792756  0.75537266  1
  O  O380  1  0.75595393  0.12065615  0.25594773  1
  O  O381  1  0.75657958  0.11921635  0.75512507  1
  O  O382  1  0.75650571  0.62447425  0.25806050  1
  O  O383  1  0.75453854  0.62134597  0.75689622  1
  O  O384  1  0.36777592  0.11888998  0.36813872  1
  O  O385  1  0.36932621  0.11843988  0.86853319  1
  O  O386  1  0.36491205  0.61814380  0.37323489  1
  O  O387  1  0.36919786  0.61854833  0.86912413  1
  O  O388  1  0.87005095  0.12048143  0.36997804  1
  O  O389  1  0.87083146  0.11812069  0.86989858  1
  O  O390  1  0.87012884  0.62161627  0.37186552  1
  O  O391  1  0.86430958  0.62431893  0.86916732  1
  O  O392  1  0.12681877  0.38074966  0.13323715  1
  O  O393  1  0.13056711  0.38244771  0.62532152  1
  O  O394  1  0.13038059  0.88103453  0.12970862  1
  O  O395  1  0.12911850  0.87965326  0.63225582  1
  O  O396  1  0.63149911  0.38154443  0.12897421  1
  O  O397  1  0.63097361  0.37712510  0.63204964  1
  O  O398  1  0.63316438  0.88136016  0.13164781  1
  O  O399  1  0.63231742  0.88117866  0.63240917  1
  O  O400  1  0.11745476  0.25599021  0.25233781  1
  O  O401  1  0.11640166  0.24917207  0.75861975  1
  O  O402  1  0.12200106  0.75960185  0.25397880  1
  O  O403  1  0.11922366  0.75422544  0.75571909  1
  O  O404  1  0.61877638  0.25642443  0.25589292  1
  O  O405  1  0.62481614  0.25599155  0.76070547  1
  O  O406  1  0.61954555  0.75490271  0.25545566  1
  O  O407  1  0.62564242  0.76324211  0.74951603  1
  O  O408  1  0.38225473  0.24311961  0.24706940  1
  O  O409  1  0.37536392  0.24351328  0.74252270  1
  O  O410  1  0.38784538  0.74953935  0.24815883  1
  O  O411  1  0.37463489  0.74352479  0.73959806  1
  O  O412  1  0.88010284  0.24487232  0.24531268  1
  O  O413  1  0.88500372  0.24297085  0.75045257  1
  O  O414  1  0.87786759  0.74405332  0.24387169  1
  O  O415  1  0.88060354  0.74546224  0.74453485  1
  O  O416  1  0.38031367  0.49438210  0.49296956  1
  O  O417  1  0.37935635  0.49313411  0.99220160  1
  O  O418  1  0.38484771  0.99901856  0.49422122  1
  O  O419  1  0.37990389  0.99167344  0.99450783  1
  O  O420  1  0.87985480  0.49642985  0.49504739  1
  O  O421  1  0.88726929  0.49944923  1.00147708  1
  O  O422  1  0.87673164  0.99399674  0.49357178  1
  O  O423  1  0.88100771  0.99331281  0.99520867  1
  O  O424  1  0.11878992  0.00061286  0.00573929  1
  O  O425  1  0.12107528  0.00556192  0.51019241  1
  O  O426  1  0.11713368  0.50408580  0.00534488  1
  O  O427  1  0.11757646  0.50635050  0.50573082  1
  O  O428  1  0.61919813  -0.00021145  0.00753918  1
  O  O429  1  0.61808117  0.00135356  0.50526438  1
  O  O430  1  0.61888586  0.49885235  0.00892115  1
  O  O431  1  0.61704702  0.50820526  0.50078464  1
  O  O432  1  0.37139776  0.36995350  0.11413628  1
  O  O433  1  0.36898290  0.36970297  0.61952852  1
  O  O434  1  0.36967559  0.87589572  0.11499483  1
  O  O435  1  0.36891060  0.86564011  0.62620510  1
  O  O436  1  0.86509633  0.37011025  0.12713700  1
  O  O437  1  0.86787051  0.37384825  0.61803840  1
  O  O438  1  0.87076543  0.87037696  0.12076992  1
  O  O439  1  0.87106144  0.87070969  0.62096125  1
  O  O440  1  0.13624233  0.12397932  0.37389709  1
  O  O441  1  0.13088531  0.13468115  0.87613386  1
  O  O442  1  0.13362271  0.62476219  0.38015250  1
  O  O443  1  0.12987737  0.62928033  0.88002645  1
  O  O444  1  0.63286493  0.13322478  0.37528609  1
  O  O445  1  0.63076583  0.13271860  0.87351829  1
  O  O446  1  0.63085337  0.63130300  0.38123123  1
  O  O447  1  0.63826266  0.62657141  0.87490436  1
