# generated using pymatgen
data_V3Zn3O8
_symmetry_space_group_name_H-M   'P 1'
_cell_length_a   17.08581164
_cell_length_b   17.08503617
_cell_length_c   17.08519577
_cell_angle_alpha   90.00385196
_cell_angle_beta   90.00156512
_cell_angle_gamma   89.99757614
_symmetry_Int_Tables_number   1
_chemical_formula_structural   V3Zn3O8
_chemical_formula_sum   'V96 Zn96 O256'
_cell_volume   4987.36869487
_cell_formula_units_Z   32
loop_
 _symmetry_equiv_pos_site_id
 _symmetry_equiv_pos_as_xyz
  1  'x, y, z'
loop_
 _atom_site_type_symbol
 _atom_site_label
 _atom_site_symmetry_multiplicity
 _atom_site_fract_x
 _atom_site_fract_y
 _atom_site_fract_z
 _atom_site_occupancy
  V  V0  1  0.62595790  0.62463302  0.50058848  1
  V  V1  1  0.00011844  0.49862054  0.50006476  1
  V  V2  1  0.12561590  0.62612162  0.00066633  1
  V  V3  1  0.62459783  0.25021188  0.37501903  1
  V  V4  1  0.12683014  0.62375323  0.50049651  1
  V  V5  1  0.87407233  -0.00091076  0.87365177  1
  V  V6  1  0.37497220  0.62411186  0.75074916  1
  V  V7  1  0.12463163  0.75103103  0.87575710  1
  V  V8  1  0.49959310  0.00155030  0.00132785  1
  V  V9  1  0.74936470  0.24990809  0.49971679  1
  V  V10  1  0.75089862  0.62419953  0.87432344  1
  V  V11  1  0.62519335  0.12557394  0.00163822  1
  V  V12  1  0.62498058  0.75024727  0.37520452  1
  V  V13  1  0.75135699  0.75002161  0.49988302  1
  V  V14  1  -0.00018687  0.12554929  0.12311955  1
  V  V15  1  0.87571377  0.62398815  0.75032246  1
  V  V16  1  0.87572017  0.37506035  0.49966337  1
  V  V17  1  -0.00003590  0.25048798  0.24918678  1
  V  V18  1  0.12497760  0.37428466  0.75017795  1
  V  V19  1  0.24848505  0.12364827  0.37463715  1
  V  V20  1  0.24901727  0.75095549  -0.00032470  1
  V  V21  1  -0.00103846  0.87503308  0.87440749  1
  V  V22  1  -0.00120617  0.12384825  0.62416034  1
  V  V23  1  0.00126861  0.62461155  0.62518776  1
  V  V24  1  0.37472239  0.00177810  0.87678022  1
  V  V25  1  0.87501908  0.74963549  0.12577745  1
  V  V26  1  0.74936358  0.87541127  0.12490546  1
  V  V27  1  0.62459279  0.62503116  -0.00060302  1
  V  V28  1  0.87445966  0.87514225  -0.00074350  1
  V  V29  1  0.50126713  0.49970083  0.49992391  1
  V  V30  1  0.50062405  0.75025931  0.75049593  1
  V  V31  1  0.62531380  0.50023842  0.12509828  1
  V  V32  1  0.87507918  0.87409982  0.49894768  1
  V  V33  1  0.12470394  0.12573115  -0.00124565  1
  V  V34  1  0.25031303  0.24941008  0.50028231  1
  V  V35  1  0.25078985  0.37614594  0.12505533  1
  V  V36  1  0.49924568  0.62719349  0.12467037  1
  V  V37  1  0.62591111  0.49961940  0.62484676  1
  V  V38  1  0.50043637  0.37505751  0.37546690  1
  V  V39  1  0.62518554  -0.00013984  0.12516825  1
  V  V40  1  0.49899522  0.00111359  0.49988361  1
  V  V41  1  0.12595165  0.50095141  0.12540092  1
  V  V42  1  0.25032575  0.50003428  0.75009233  1
  V  V43  1  0.62433312  0.87485949  0.75059211  1
  V  V44  1  0.37456153  0.12587756  0.74963553  1
  V  V45  1  0.24809525  -0.00098646  0.24980554  1
  V  V46  1  0.24838454  0.87555751  0.12580126  1
  V  V47  1  0.62518168  0.37520248  0.75002787  1
  V  V48  1  0.75103267  0.62440509  0.37430964  1
  V  V49  1  0.12402681  0.24951876  0.37394630  1
  V  V50  1  0.87527668  0.49995836  0.37515875  1
  V  V51  1  0.50035578  0.37654007  0.87550076  1
  V  V52  1  0.87582216  0.25020657  0.12413199  1
  V  V53  1  0.37451335  0.87692120  -0.00034584  1
  V  V54  1  -0.00014747  0.24979140  0.75087363  1
  V  V55  1  0.37556619  0.37640178  0.00028647  1
  V  V56  1  0.87576692  0.74964740  0.62339564  1
  V  V57  1  0.12523218  0.37485688  0.25034529  1
  V  V58  1  0.37486167  0.12452583  0.24918340  1
  V  V59  1  0.87437688  0.24900945  0.62472616  1
  V  V60  1  0.74990961  0.37469083  0.62577085  1
  V  V61  1  0.25059782  0.37348054  0.62418672  1
  V  V62  1  0.37608789  0.75096138  0.62675013  1
  V  V63  1  0.74955522  0.74965349  -0.00046917  1
  V  V64  1  0.37520740  0.24993510  0.12585618  1
  V  V65  1  0.87520267  0.37526364  -0.00010921  1
  V  V66  1  0.24985001  0.87512625  0.62649917  1
  V  V67  1  0.62457713  0.87516772  0.24992864  1
  V  V68  1  0.87504549  -0.00017204  0.37335407  1
  V  V69  1  0.37597478  0.49968561  0.37586629  1
  V  V70  1  0.25166965  0.62336206  0.37658229  1
  V  V71  1  0.24926780  0.12666533  0.87572850  1
  V  V72  1  0.24932745  0.25116838  -0.00047307  1
  V  V73  1  0.00013868  0.49984321  0.00017218  1
  V  V74  1  0.12360651  0.00012519  0.12445124  1
  V  V75  1  0.25183679  0.50034847  0.25115656  1
  V  V76  1  0.12486140  -0.00076935  0.62469574  1
  V  V77  1  0.49976755  0.25043351  0.75000449  1
  V  V78  1  0.62467747  0.74996003  0.87393697  1
  V  V79  1  0.74939050  0.12481082  0.87516332  1
  V  V80  1  0.62576230  0.37571761  0.24886902  1
  V  V81  1  0.74908161  0.12428890  0.37415347  1
  V  V82  1  0.00117567  0.75026251  0.74987789  1
  V  V83  1  -0.00111640  -0.00053514  0.49970065  1
  V  V84  1  0.62402633  0.00115891  0.62500588  1
  V  V85  1  0.87519087  0.62510955  0.25030037  1
  V  V86  1  0.87572637  0.49997339  0.87561079  1
  V  V87  1  0.49963546  0.49990055  -0.00051705  1
  V  V88  1  -0.00047564  0.62577947  0.12652907  1
  V  V89  1  0.37591622  0.87384941  0.50116487  1
  V  V90  1  0.37542107  0.75022403  0.12510800  1
  V  V91  1  0.74879538  0.00031614  0.74965884  1
  V  V92  1  0.12553201  0.75023029  0.37396687  1
  V  V93  1  0.75041381  0.24991671  0.00054692  1
  V  V94  1  0.12543258  0.49957307  0.62519006  1
  V  V95  1  0.50008703  0.87380678  0.37562125  1
  Zn  Zn96  1  0.50211789  0.62488864  0.62504109  1
  Zn  Zn97  1  0.50198561  0.12655199  0.12708015  1
  Zn  Zn98  1  0.12532899  0.87546736  0.75159405  1
  Zn  Zn99  1  0.49994643  0.24854066  0.25034457  1
  Zn  Zn100  1  -0.00061708  0.00060448  -0.00157667  1
  Zn  Zn101  1  0.37245953  -0.00295497  0.37456204  1
  Zn  Zn102  1  0.49804355  0.12732829  0.62285836  1
  Zn  Zn103  1  0.37656753  0.37417480  0.50097291  1
  Zn  Zn104  1  0.87538579  0.12542249  0.24814454  1
  Zn  Zn105  1  0.62176491  0.12655718  0.49976009  1
  Zn  Zn106  1  0.37323132  0.50058844  0.87538381  1
  Zn  Zn107  1  0.75129000  0.50031415  0.24787622  1
  Zn  Zn108  1  0.37512516  0.25038712  0.62353681  1
  Zn  Zn109  1  0.49879928  0.74958690  0.25032282  1
  Zn  Zn110  1  0.12285701  0.87454650  0.25003390  1
  Zn  Zn111  1  0.25180741  0.74798916  0.50098714  1
  Zn  Zn112  1  0.12410498  0.12436038  0.49875880  1
  Zn  Zn113  1  0.00171911  0.87462628  0.37238148  1
  Zn  Zn114  1  0.75023999  0.00047411  0.24847991  1
  Zn  Zn115  1  0.62602083  0.25089219  0.87710125  1
  Zn  Zn116  1  0.24891452  0.00167654  0.75113930  1
  Zn  Zn117  1  -0.00057281  0.37417657  0.37473837  1
  Zn  Zn118  1  0.75045009  0.87498425  0.62442420  1
  Zn  Zn119  1  0.37718723  0.62678340  0.25122899  1
  Zn  Zn120  1  0.87320346  0.12377905  0.74925313  1
  Zn  Zn121  1  0.75090755  0.49891700  0.75031256  1
  Zn  Zn122  1  0.49916822  0.87598459  0.87547188  1
  Zn  Zn123  1  0.00001904  0.75257914  0.25039518  1
  Zn  Zn124  1  0.24941777  0.62470968  0.87577481  1
  Zn  Zn125  1  0.12480285  0.25116605  0.87491078  1
  Zn  Zn126  1  0.75074391  0.37588098  0.12492146  1
  Zn  Zn127  1  0.00142658  0.37497352  0.87552631  1
  Zn  Zn128  1  0.18747635  0.18709765  0.18615152  1
  Zn  Zn129  1  0.18600993  0.18659029  0.68633509  1
  Zn  Zn130  1  0.19000887  0.68677078  0.18941590  1
  Zn  Zn131  1  0.18834401  0.68827960  0.68887048  1
  Zn  Zn132  1  0.68880222  0.18865672  0.18758352  1
  Zn  Zn133  1  0.68594017  0.18654394  0.68818085  1
  Zn  Zn134  1  0.68718956  0.68828976  0.18874592  1
  Zn  Zn135  1  0.68952694  0.68642922  0.68694741  1
  Zn  Zn136  1  0.31271642  0.31232764  0.31395035  1
  Zn  Zn137  1  0.31303807  0.31354331  0.81396719  1
  Zn  Zn138  1  0.31203942  0.81129130  0.31199741  1
  Zn  Zn139  1  0.31209282  0.81353838  0.81349300  1
  Zn  Zn140  1  0.81287860  0.31266860  0.31172018  1
  Zn  Zn141  1  0.81312070  0.31242977  0.81381886  1
  Zn  Zn142  1  0.81133145  0.81287679  0.31123917  1
  Zn  Zn143  1  0.81167637  0.81249756  0.81034288  1
  Zn  Zn144  1  0.18765061  0.43550462  0.43668677  1
  Zn  Zn145  1  0.18726824  0.43809676  0.93484859  1
  Zn  Zn146  1  0.18830545  0.93565847  0.43890785  1
  Zn  Zn147  1  0.18697866  0.93911936  0.93816272  1
  Zn  Zn148  1  0.68873536  0.43775825  0.43670898  1
  Zn  Zn149  1  0.68849184  0.43655399  0.93733558  1
  Zn  Zn150  1  0.68758374  0.93651283  0.43839580  1
  Zn  Zn151  1  0.68645552  0.93772436  0.93730431  1
  Zn  Zn152  1  0.31035925  0.06316642  0.06369574  1
  Zn  Zn153  1  0.31239739  0.06307604  0.56287477  1
  Zn  Zn154  1  0.31315628  0.56413519  0.06279195  1
  Zn  Zn155  1  0.31439036  0.56135963  0.56314115  1
  Zn  Zn156  1  0.81276599  0.06220648  0.06114119  1
  Zn  Zn157  1  0.81151188  0.06302619  0.56102298  1
  Zn  Zn158  1  0.81188756  0.56196600  0.06316302  1
  Zn  Zn159  1  0.81245051  0.56202798  0.56261941  1
  Zn  Zn160  1  0.43907914  0.43901421  0.18839742  1
  Zn  Zn161  1  0.43714216  0.43721829  0.68502303  1
  Zn  Zn162  1  0.43792694  0.93763316  0.18738614  1
  Zn  Zn163  1  0.43812378  0.93830492  0.68948994  1
  Zn  Zn164  1  0.93785476  0.43729221  0.18755785  1
  Zn  Zn165  1  0.93735230  0.43651426  0.68765739  1
  Zn  Zn166  1  0.93976375  0.93678637  0.18860350  1
  Zn  Zn167  1  0.93640755  0.93560337  0.68780192  1
  Zn  Zn168  1  0.06153574  0.06394266  0.31015765  1
  Zn  Zn169  1  0.06171206  0.06265201  0.81141946  1
  Zn  Zn170  1  0.06192402  0.56308168  0.31308779  1
  Zn  Zn171  1  0.06312570  0.56303334  0.81395661  1
  Zn  Zn172  1  0.56196856  0.06064676  0.31237388  1
  Zn  Zn173  1  0.56194212  0.06354670  0.81546747  1
  Zn  Zn174  1  0.56191674  0.56317516  0.31147347  1
  Zn  Zn175  1  0.56197301  0.56173323  0.81181076  1
  Zn  Zn176  1  0.43541816  0.18684221  0.43401356  1
  Zn  Zn177  1  0.43869965  0.18850253  0.93799275  1
  Zn  Zn178  1  0.43865723  0.68676379  0.43935801  1
  Zn  Zn179  1  0.43693804  0.68870966  0.93670744  1
  Zn  Zn180  1  0.93782439  0.18678149  0.43749735  1
  Zn  Zn181  1  0.93619261  0.18606779  0.93621154  1
  Zn  Zn182  1  0.93999819  0.68621220  0.43688903  1
  Zn  Zn183  1  0.93821348  0.68750501  0.93816459  1
  Zn  Zn184  1  0.06261707  0.31297533  0.06226308  1
  Zn  Zn185  1  0.06340806  0.31193462  0.56287587  1
  Zn  Zn186  1  0.06079307  0.81358535  0.06242711  1
  Zn  Zn187  1  0.06255229  0.81250274  0.55889037  1
  Zn  Zn188  1  0.56164501  0.31099401  0.06419092  1
  Zn  Zn189  1  0.56273607  0.31337591  0.56292892  1
  Zn  Zn190  1  0.56096799  0.81379900  0.06150264  1
  Zn  Zn191  1  0.56291580  0.81279556  0.56378798  1
  O  O192  1  0.12014211  0.12033484  0.11826467  1
  O  O193  1  0.11931435  0.11380415  0.62295544  1
  O  O194  1  0.12039723  0.61984174  0.12033585  1
  O  O195  1  0.12066956  0.61933877  0.62077305  1
  O  O196  1  0.62533331  0.11807379  0.12016089  1
  O  O197  1  0.62078683  0.11284647  0.62299124  1
  O  O198  1  0.61999375  0.62133805  0.11816741  1
  O  O199  1  0.62564887  0.61814534  0.61825283  1
  O  O200  1  0.38232351  0.38132935  0.37608595  1
  O  O201  1  0.38212873  0.37729471  0.88247900  1
  O  O202  1  0.38073144  0.87551317  0.38285784  1
  O  O203  1  0.37468681  0.88349887  0.88196153  1
  O  O204  1  0.87577459  0.38101828  0.38225449  1
  O  O205  1  0.87768667  0.38212812  0.88174919  1
  O  O206  1  0.87370229  0.88552310  0.37992785  1
  O  O207  1  0.87875455  0.87869906  0.87966800  1
  O  O208  1  0.25033974  0.00554869  0.36951160  1
  O  O209  1  0.25646525  0.00833194  0.87314161  1
  O  O210  1  0.25564042  0.50376136  0.37080161  1
  O  O211  1  0.25252209  0.50350594  0.86591475  1
  O  O212  1  0.75763268  0.00837249  0.37651410  1
  O  O213  1  0.75415866  0.00476938  0.86921561  1
  O  O214  1  0.75761549  0.50725812  0.37449768  1
  O  O215  1  0.75729617  0.50707836  0.87435864  1
  O  O216  1  0.24522073  0.49521742  0.13055684  1
  O  O217  1  0.24398631  0.49375955  0.63002037  1
  O  O218  1  0.24323651  0.99491262  0.12991145  1
  O  O219  1  0.24172121  0.99245367  0.62502892  1
  O  O220  1  0.74094127  0.49727481  0.12696662  1
  O  O221  1  0.74448418  0.49229601  0.62598296  1
  O  O222  1  0.74385045  0.99302564  0.12518620  1
  O  O223  1  0.73949553  0.99994101  0.62899485  1
  O  O224  1  0.00790150  0.36858054  0.25042861  1
  O  O225  1  0.00556026  0.36461479  0.74809690  1
  O  O226  1  0.00496699  0.87035642  0.25477759  1
  O  O227  1  0.00056758  0.86694955  0.75622859  1
  O  O228  1  0.51080484  0.37464557  0.25612609  1
  O  O229  1  0.50367349  0.36771490  0.75451688  1
  O  O230  1  0.50640704  0.87431861  0.25767705  1
  O  O231  1  0.50609996  0.86881162  0.75280383  1
  O  O232  1  0.48700632  0.12478376  0.25037436  1
  O  O233  1  0.49133313  0.13422634  0.75206583  1
  O  O234  1  0.49868853  0.62801867  0.24066518  1
  O  O235  1  0.49099542  0.63029615  0.74829966  1
  O  O236  1  0.99850000  0.13327890  0.24129832  1
  O  O237  1  0.99801738  0.13445595  0.74282196  1
  O  O238  1  0.99326386  0.62633915  0.24319522  1
  O  O239  1  0.99556811  0.63047599  0.74416262  1
  O  O240  1  0.36942384  0.25642075  0.00577919  1
  O  O241  1  0.36220824  0.25013616  0.50001886  1
  O  O242  1  0.36890401  0.75663597  0.00432183  1
  O  O243  1  0.37485570  0.75600676  0.50900203  1
  O  O244  1  0.87083433  0.25563948  0.00456236  1
  O  O245  1  0.86968954  0.25508476  0.50524731  1
  O  O246  1  0.86837594  0.75464356  0.00536256  1
  O  O247  1  0.87126961  0.75373400  0.50379263  1
  O  O248  1  0.13432124  0.24798801  0.49436263  1
  O  O249  1  0.13182785  0.24438801  0.99894109  1
  O  O250  1  0.12746343  0.74203529  0.49184506  1
  O  O251  1  0.12960409  0.74519110  0.99567543  1
  O  O252  1  0.63148830  0.24873280  0.49387557  1
  O  O253  1  0.63159081  0.24378633  1.00038076  1
  O  O254  1  0.63107915  0.74524373  0.49550207  1
  O  O255  1  0.63016740  0.74474663  0.99412978  1
  O  O256  1  0.49058971  0.24659967  0.12943204  1
  O  O257  1  0.49778795  0.24865844  0.63676609  1
  O  O258  1  0.49318176  0.74458428  0.12402640  1
  O  O259  1  0.49422546  0.74903156  0.63259786  1
  O  O260  1  0.99534211  0.24476946  0.12948404  1
  O  O261  1  0.99507667  0.24454786  0.63155905  1
  O  O262  1  0.99261594  0.74298043  0.12522229  1
  O  O263  1  0.99596866  0.74387538  0.62892098  1
  O  O264  1  0.00615226  0.25037748  0.36857635  1
  O  O265  1  0.00022988  0.25035793  0.86158440  1
  O  O266  1  0.01297789  0.74914818  0.37427355  1
  O  O267  1  0.00468656  0.75506090  0.86985963  1
  O  O268  1  0.50654070  0.25636831  0.37358105  1
  O  O269  1  0.50128385  0.25687162  0.86526670  1
  O  O270  1  0.50776435  0.75666538  0.37607518  1
  O  O271  1  0.50729702  0.75150668  0.86851411  1
  O  O272  1  0.24907622  0.13302318  0.49431340  1
  O  O273  1  0.24492754  0.13200954  0.99537315  1
  O  O274  1  0.24395331  0.62444297  0.49521917  1
  O  O275  1  0.24336489  0.63254746  0.99945835  1
  O  O276  1  0.74770681  0.13094940  0.48909598  1
  O  O277  1  0.74462190  0.13033204  0.99427611  1
  O  O278  1  0.74579415  0.63053717  0.49394621  1
  O  O279  1  0.74436271  0.63075133  0.99434451  1
  O  O280  1  0.25515733  0.37152271  0.00575329  1
  O  O281  1  0.24974160  0.36440217  0.50476049  1
  O  O282  1  0.25527591  0.87074357  0.00621499  1
  O  O283  1  0.25712701  0.87393074  0.51222908  1
  O  O284  1  0.75674108  0.36780489  0.00132141  1
  O  O285  1  0.75565909  0.36891252  0.50563881  1
  O  O286  1  0.75437061  0.86841780  0.00477168  1
  O  O287  1  0.75675917  0.86753933  0.50113504  1
  O  O288  1  0.13119802  0.49504858  0.24498854  1
  O  O289  1  0.12936909  0.49539370  0.74384541  1
  O  O290  1  0.13148816  0.99998902  0.24242109  1
  O  O291  1  0.12595767  0.99765697  0.73665832  1
  O  O292  1  0.62585148  0.49109115  0.24461512  1
  O  O293  1  0.62671174  0.49326219  0.74338567  1
  O  O294  1  0.62685740  0.99310170  0.24380698  1
  O  O295  1  0.62722344  0.99562898  0.74302805  1
  O  O296  1  0.36767166  0.00890259  0.24985673  1
  O  O297  1  0.37576797  0.01162893  0.75659373  1
  O  O298  1  0.36910181  0.50127212  0.25727405  1
  O  O299  1  0.37024432  0.50929080  0.74901259  1
  O  O300  1  0.87246859  0.00233385  0.26175605  1
  O  O301  1  0.86695287  0.00023588  0.75509596  1
  O  O302  1  0.87386175  0.50607938  0.25638496  1
  O  O303  1  0.87528578  0.50655785  0.75631203  1
  O  O304  1  0.12362546  0.36787100  0.36733713  1
  O  O305  1  0.12164089  0.37211964  0.86610151  1
  O  O306  1  0.12609627  0.86255202  0.37567805  1
  O  O307  1  0.11812867  0.86970652  0.87435497  1
  O  O308  1  0.62092643  0.37082083  0.36742875  1
  O  O309  1  0.61845663  0.37339046  0.86827329  1
  O  O310  1  0.62050589  0.86989577  0.37066028  1
  O  O311  1  0.62390021  0.86754288  0.86860871  1
  O  O312  1  0.37261646  0.13087646  0.13547000  1
  O  O313  1  0.37649522  0.12703256  0.63779730  1
  O  O314  1  0.38183814  0.63257336  0.12481103  1
  O  O315  1  0.37629812  0.63094381  0.63575935  1
  O  O316  1  0.88137229  0.13149438  0.12478334  1
  O  O317  1  0.88011587  0.13117012  0.62590264  1
  O  O318  1  0.87955763  0.63003392  0.12986129  1
  O  O319  1  0.88211341  0.62959293  0.62954883  1
  O  O320  1  0.25540581  0.25704749  0.11930105  1
  O  O321  1  0.24881679  0.25407089  0.61504183  1
  O  O322  1  0.25457091  0.75564712  0.11892531  1
  O  O323  1  0.25560222  0.76005360  0.62489901  1
  O  O324  1  0.75808773  0.25099096  0.11811301  1
  O  O325  1  0.75405554  0.25410147  0.61981937  1
  O  O326  1  0.75479922  0.75501085  0.11833853  1
  O  O327  1  0.75799071  0.75021418  0.61752469  1
  O  O328  1  0.24411524  0.24462110  0.38194683  1
  O  O329  1  0.24896510  0.24445156  0.88205329  1
  O  O330  1  0.24251781  0.74264482  0.37823625  1
  O  O331  1  0.24283599  0.75042078  0.88211056  1
  O  O332  1  0.74564439  0.24254943  0.38015553  1
  O  O333  1  0.74915445  0.24299641  0.88187434  1
  O  O334  1  0.74518909  0.74421180  0.38106631  1
  O  O335  1  0.74502197  0.74380054  0.88004566  1
  O  O336  1  0.00688666  0.12475631  0.00514286  1
  O  O337  1  0.00135157  0.11789484  0.50705523  1
  O  O338  1  0.00555977  0.61971967  0.00694822  1
  O  O339  1  0.00642566  0.61796171  0.50678844  1
  O  O340  1  0.50635738  0.11971908  0.00276923  1
  O  O341  1  0.49958886  0.11406609  0.50074134  1
  O  O342  1  0.50571091  0.62025123  0.00401845  1
  O  O343  1  0.50871770  0.61807115  0.50210663  1
  O  O344  1  0.50020417  0.38146332  0.49293737  1
  O  O345  1  0.49533979  0.38019190  0.99565922  1
  O  O346  1  0.49573895  0.88302047  0.49621159  1
  O  O347  1  0.49229399  0.88295934  0.99832351  1
  O  O348  1  0.99367863  0.38082672  0.50007540  1
  O  O349  1  0.99430454  0.38223492  0.99909637  1
  O  O350  1  0.99282757  0.88186408  0.49592028  1
  O  O351  1  0.99142850  0.87571560  0.99237073  1
  O  O352  1  0.49611644  0.49503551  0.38063406  1
  O  O353  1  0.49829909  0.49407663  0.88225198  1
  O  O354  1  0.49938490  0.99328448  0.38627015  1
  O  O355  1  0.49261816  0.99974103  0.88333001  1
  O  O356  1  0.99376023  0.49875958  0.38275605  1
  O  O357  1  0.99364799  0.50001109  0.88257560  1
  O  O358  1  0.98963904  1.00224482  0.38042436  1
  O  O359  1  0.99263442  0.99334632  0.87435531  1
  O  O360  1  0.00530919  0.00739814  0.12254351  1
  O  O361  1  0.00617192  0.00313087  0.62016425  1
  O  O362  1  0.00670150  0.50606239  0.11987682  1
  O  O363  1  0.00595582  0.50516041  0.62016783  1
  O  O364  1  0.50707580  0.00208398  0.11868904  1
  O  O365  1  0.50748767  0.00035841  0.61652396  1
  O  O366  1  0.50597377  0.50636249  0.11833655  1
  O  O367  1  0.50821231  0.50025171  0.61782111  1
  O  O368  1  0.24504564  0.38036560  0.24451568  1
  O  O369  1  0.24488910  0.37922278  0.74427777  1
  O  O370  1  0.24826595  0.88192549  0.24305843  1
  O  O371  1  0.24941163  0.87887371  0.73767752  1
  O  O372  1  0.73700258  0.37639912  0.24925030  1
  O  O373  1  0.74375386  0.37476216  0.74354386  1
  O  O374  1  0.74276522  0.87664690  0.24249915  1
  O  O375  1  0.74233568  0.88173174  0.74694739  1
  O  O376  1  0.25665746  0.11966275  0.25408853  1
  O  O377  1  0.25988368  0.12661277  0.75550509  1
  O  O378  1  0.25273242  0.61654883  0.25782717  1
  O  O379  1  0.25937107  0.61987290  0.74989339  1
  O  O380  1  0.75258169  0.12400269  0.26337018  1
  O  O381  1  0.74971326  0.11829366  0.75663425  1
  O  O382  1  0.75642293  0.62398777  0.25701688  1
  O  O383  1  0.75811259  0.62356405  0.75683479  1
  O  O384  1  0.36729179  0.12270233  0.36415471  1
  O  O385  1  0.36938126  0.12193148  0.86827435  1
  O  O386  1  0.36957604  0.61835531  0.37537715  1
  O  O387  1  0.37303644  0.62475248  0.86218605  1
  O  O388  1  0.86601107  0.11623598  0.37567078  1
  O  O389  1  0.86727447  0.11714532  0.87291109  1
  O  O390  1  0.87037121  0.62003029  0.37043549  1
  O  O391  1  0.87052069  0.62031287  0.87033496  1
  O  O392  1  0.13164946  0.38141996  0.13017838  1
  O  O393  1  0.13104094  0.38080218  0.63053802  1
  O  O394  1  0.13120757  0.88144981  0.12452858  1
  O  O395  1  0.13287012  0.88210198  0.62419305  1
  O  O396  1  0.62426524  0.38074018  0.13424609  1
  O  O397  1  0.63107804  0.38002535  0.63056642  1
  O  O398  1  0.63029276  0.87946822  0.12904364  1
  O  O399  1  0.62603996  0.88619924  0.63083610  1
  O  O400  1  0.12073531  0.25558741  0.25358802  1
  O  O401  1  0.11482788  0.25471775  0.74834689  1
  O  O402  1  0.12534360  0.74892546  0.26259323  1
  O  O403  1  0.11851855  0.75152811  0.75659433  1
  O  O404  1  0.62365474  0.25905623  0.25574919  1
  O  O405  1  0.61448352  0.25518415  0.75099480  1
  O  O406  1  0.62363941  0.75717814  0.25756119  1
  O  O407  1  0.62073770  0.75411749  0.75410405  1
  O  O408  1  0.37326220  0.24009578  0.24520126  1
  O  O409  1  0.38348215  0.24217907  0.75056541  1
  O  O410  1  0.37723593  0.74810567  0.24079540  1
  O  O411  1  0.37966993  0.74331745  0.74631102  1
  O  O412  1  0.88174219  0.24985895  0.24309642  1
  O  O413  1  0.88410840  0.24941815  0.74313234  1
  O  O414  1  0.87514130  0.74303918  0.24336356  1
  O  O415  1  0.88102666  0.74375867  0.74381022  1
  O  O416  1  0.38283727  0.49801798  0.49405869  1
  O  O417  1  0.38150853  0.49419283  0.99973730  1
  O  O418  1  0.38471662  0.99392431  0.50088467  1
  O  O419  1  0.37917820  0.99692182  0.99652916  1
  O  O420  1  0.88090138  0.49482288  0.49571715  1
  O  O421  1  0.88085411  0.49574703  0.99574430  1
  O  O422  1  0.87859736  0.99476783  0.49213819  1
  O  O423  1  0.87524453  0.99208473  0.99169802  1
  O  O424  1  0.12318867  0.00812933  0.00662677  1
  O  O425  1  0.11899934  -0.00011978  0.51001522  1
  O  O426  1  0.12083906  0.50551897  0.00621773  1
  O  O427  1  0.12029930  0.50361747  0.50569562  1
  O  O428  1  0.61987270  0.00520891  0.00563699  1
  O  O429  1  0.61564939  -0.00066489  0.50822649  1
  O  O430  1  0.61943210  0.50582225  0.00470944  1
  O  O431  1  0.62119056  0.50491824  0.50483419  1
  O  O432  1  0.36987165  0.37072622  0.12041479  1
  O  O433  1  0.36590750  0.37117046  0.62165937  1
  O  O434  1  0.36851262  0.87070650  0.11888977  1
  O  O435  1  0.36798181  0.87167003  0.62202243  1
  O  O436  1  0.87426426  0.36887565  0.11783809  1
  O  O437  1  0.86929564  0.36926137  0.61922512  1
  O  O438  1  0.86902394  0.87001612  0.11944928  1
  O  O439  1  0.87376349  0.86744784  0.61725432  1
  O  O440  1  0.13142627  0.13149021  0.37607472  1
  O  O441  1  0.13156981  0.12643665  0.88001992  1
  O  O442  1  0.13152055  0.63008653  0.38128042  1
  O  O443  1  0.12563577  0.63280556  0.88280388  1
  O  O444  1  0.63355697  0.13006425  0.37571629  1
  O  O445  1  0.63178075  0.12669231  0.88315345  1
  O  O446  1  0.63089871  0.62997241  0.38078047  1
  O  O447  1  0.63049773  0.62995538  0.87984995  1
