# generated using pymatgen
data_V3Zn3O8
_symmetry_space_group_name_H-M   'P 1'
_cell_length_a   17.08796223
_cell_length_b   17.08756062
_cell_length_c   17.08538743
_cell_angle_alpha   89.99532309
_cell_angle_beta   89.99722946
_cell_angle_gamma   89.97581769
_symmetry_Int_Tables_number   1
_chemical_formula_structural   V3Zn3O8
_chemical_formula_sum   'V96 Zn96 O256'
_cell_volume   4988.78898249
_cell_formula_units_Z   32
loop_
 _symmetry_equiv_pos_site_id
 _symmetry_equiv_pos_as_xyz
  1  'x, y, z'
loop_
 _atom_site_type_symbol
 _atom_site_label
 _atom_site_symmetry_multiplicity
 _atom_site_fract_x
 _atom_site_fract_y
 _atom_site_fract_z
 _atom_site_occupancy
  V  V0  1  -0.00089344  0.74822535  0.24964527  1
  V  V1  1  0.49916570  0.00127676  0.00035964  1
  V  V2  1  0.50005161  0.24994897  0.74877618  1
  V  V3  1  0.50011675  0.87569970  0.87416979  1
  V  V4  1  0.25024910  0.62459053  0.37460163  1
  V  V5  1  0.75036322  0.87509949  0.62535216  1
  V  V6  1  0.87432279  0.24765531  0.12615615  1
  V  V7  1  0.62632214  0.49973735  0.62659806  1
  V  V8  1  0.74943416  0.12461677  0.87510022  1
  V  V9  1  0.49994642  0.75055439  0.25132884  1
  V  V10  1  -0.00004326  0.87424027  0.37543239  1
  V  V11  1  0.37577941  0.50036397  0.37517873  1
  V  V12  1  0.25100604  0.25072524  -0.00036417  1
  V  V13  1  0.25065729  0.25064388  0.49945516  1
  V  V14  1  0.12554840  0.49973477  0.62469417  1
  V  V15  1  0.12563271  0.37490569  0.75033372  1
  V  V16  1  0.75012803  0.00042960  0.74943020  1
  V  V17  1  0.49998289  0.87487266  0.37472126  1
  V  V18  1  0.49988935  0.12481475  0.12397534  1
  V  V19  1  -0.00007542  0.62458370  0.62553502  1
  V  V20  1  0.00056615  0.49896527  0.49936597  1
  V  V21  1  0.00004008  0.24805658  0.24949887  1
  V  V22  1  0.25103814  0.75067397  0.49997198  1
  V  V23  1  0.75051153  0.62505689  0.87642863  1
  V  V24  1  0.12597980  0.25046419  0.87479320  1
  V  V25  1  0.74993491  0.74973485  0.50032936  1
  V  V26  1  0.50041881  0.50008974  0.50036253  1
  V  V27  1  0.37509044  0.62504586  0.24965684  1
  V  V28  1  0.12496114  0.25003630  0.37403392  1
  V  V29  1  0.00064260  0.12435818  0.62525635  1
  V  V30  1  0.87553710  0.37642380  -0.00028586  1
  V  V31  1  0.24831643  0.87559038  0.12435028  1
  V  V32  1  0.87581365  0.62425229  0.25023570  1
  V  V33  1  0.37479859  0.00066176  0.87452619  1
  V  V34  1  0.25096339  0.37490678  0.62426350  1
  V  V35  1  0.87542305  0.37430380  0.50112870  1
  V  V36  1  0.37411335  0.00051813  0.37445122  1
  V  V37  1  0.00131028  0.37379234  0.37457616  1
  V  V38  1  0.62714441  0.37686922  0.75092605  1
  V  V39  1  0.75035287  0.12426084  0.37526649  1
  V  V40  1  0.87198537  0.75031540  0.12376088  1
  V  V41  1  0.37518104  0.37500464  0.50109698  1
  V  V42  1  0.74780166  -0.00198295  0.24855875  1
  V  V43  1  0.12473451  0.74919104  0.37442565  1
  V  V44  1  0.49996045  0.62640349  0.62579390  1
  V  V45  1  0.87446911  0.62305939  0.75169911  1
  V  V46  1  0.50023106  0.00091368  0.49927295  1
  V  V47  1  0.12397433  0.62286983  0.00121964  1
  V  V48  1  0.62378782  0.12510909  -0.00073823  1
  V  V49  1  0.12471349  0.12415774  0.50057082  1
  V  V50  1  0.25105056  0.50100031  0.74948392  1
  V  V51  1  0.62401774  0.87563531  0.75009305  1
  V  V52  1  0.62474969  0.00096044  0.62362955  1
  V  V53  1  0.62423574  0.75030067  0.37530563  1
  V  V54  1  0.87558075  0.87461893  0.50054350  1
  V  V55  1  0.87415541  -0.00035634  0.37494015  1
  V  V56  1  -0.00036698  0.37503754  0.87579378  1
  V  V57  1  0.24998515  0.12565849  0.87427162  1
  V  V58  1  0.87546810  0.49949258  0.37523985  1
  V  V59  1  0.00026004  0.74954865  0.75012391  1
  V  V60  1  0.24823981  -0.00031151  0.24978454  1
  V  V61  1  0.12541626  0.62453686  0.49958681  1
  V  V62  1  0.24994485  0.12434125  0.37460728  1
  V  V63  1  0.50000923  0.62557295  0.12543058  1
  V  V64  1  0.75033715  0.62424508  0.37647085  1
  V  V65  1  0.37686654  0.50191049  0.87557000  1
  V  V66  1  0.24859963  -0.00116851  0.74713626  1
  V  V67  1  0.12132425  0.12281655  0.00115558  1
  V  V68  1  0.62501355  0.62454076  0.50155053  1
  V  V69  1  0.62465519  0.49961984  0.12598082  1
  V  V70  1  0.87607959  0.12538263  0.74990606  1
  V  V71  1  0.62557550  0.24992181  0.87513840  1
  V  V72  1  0.12435199  0.87420257  0.24858028  1
  V  V73  1  0.24961094  0.62718468  0.87379350  1
  V  V74  1  0.24893527  0.49741090  0.24698190  1
  V  V75  1  0.12432509  0.74993211  0.87394922  1
  V  V76  1  0.74970218  0.49885416  0.25078714  1
  V  V77  1  0.37357454  0.25149709  0.12278345  1
  V  V78  1  0.75098993  0.25069310  0.50046631  1
  V  V79  1  0.37614885  0.62664433  0.74919284  1
  V  V80  1  0.62599133  0.62700763  0.00056555  1
  V  V81  1  0.37450554  0.75157515  0.12460599  1
  V  V82  1  0.37355828  0.87579177  0.00014163  1
  V  V83  1  0.74913145  0.37513356  0.12590607  1
  V  V84  1  0.50072915  0.25002487  0.25035054  1
  V  V85  1  0.87518466  -0.00097030  0.87562386  1
  V  V86  1  -0.00169761  0.87530592  0.87644279  1
  V  V87  1  0.50060604  0.37442940  0.37496417  1
  V  V88  1  0.00050343  0.24898376  0.74934916  1
  V  V89  1  0.37329234  0.87469357  0.50035904  1
  V  V90  1  0.87551146  0.74909167  0.62535177  1
  V  V91  1  0.50016350  0.75133928  0.74971389  1
  V  V92  1  0.62517646  0.12499696  0.49938534  1
  V  V93  1  0.00077102  0.00015991  0.50062096  1
  V  V94  1  0.37606994  0.12688858  0.74926553  1
  V  V95  1  0.49885981  0.50113225  -0.00021209  1
  Zn  Zn96  1  0.62408867  0.87475087  0.24779545  1
  Zn  Zn97  1  0.75328946  0.37622362  0.62600289  1
  Zn  Zn98  1  0.12274608  0.49676720  0.12436416  1
  Zn  Zn99  1  0.62518787  0.37520403  0.25114369  1
  Zn  Zn100  1  0.24819868  0.37645504  0.12105747  1
  Zn  Zn101  1  -0.00316357  -0.00163331  0.00360865  1
  Zn  Zn102  1  0.87555389  0.25138190  0.62625736  1
  Zn  Zn103  1  0.87668681  0.50002119  0.87547687  1
  Zn  Zn104  1  0.87080929  0.87596005  0.00147694  1
  Zn  Zn105  1  0.74559854  0.87488654  0.12196077  1
  Zn  Zn106  1  0.24866794  0.87342306  0.62475268  1
  Zn  Zn107  1  -0.00010775  0.62134400  0.12448666  1
  Zn  Zn108  1  0.24900376  0.75165286  -0.00093239  1
  Zn  Zn109  1  0.87425427  0.12280450  0.24914154  1
  Zn  Zn110  1  0.37356941  0.12394637  0.24910472  1
  Zn  Zn111  1  0.74808189  0.75313665  0.00133274  1
  Zn  Zn112  1  0.12556365  0.87473285  0.74799759  1
  Zn  Zn113  1  0.00194918  0.49830081  0.00253439  1
  Zn  Zn114  1  0.75268352  0.49893286  0.75041520  1
  Zn  Zn115  1  0.37513149  0.37684420  -0.00259047  1
  Zn  Zn116  1  -0.00191625  0.12061192  0.12529166  1
  Zn  Zn117  1  0.37585195  0.24993065  0.62435683  1
  Zn  Zn118  1  0.49942881  0.12581892  0.62311849  1
  Zn  Zn119  1  0.62602717  0.75195240  0.87722897  1
  Zn  Zn120  1  0.37374508  0.75225183  0.62479024  1
  Zn  Zn121  1  0.62514654  0.25141552  0.37465946  1
  Zn  Zn122  1  0.50012063  0.37717121  0.87711372  1
  Zn  Zn123  1  0.12047877  -0.00177755  0.12438762  1
  Zn  Zn124  1  0.12659183  0.37409090  0.24606545  1
  Zn  Zn125  1  0.62388103  -0.00230344  0.12539940  1
  Zn  Zn126  1  0.12549782  -0.00251170  0.62451024  1
  Zn  Zn127  1  0.74789263  0.24949476  0.00137939  1
  Zn  Zn128  1  0.18680182  0.18598459  0.18618990  1
  Zn  Zn129  1  0.18772139  0.18654971  0.68542910  1
  Zn  Zn130  1  0.18822556  0.68722238  0.18548779  1
  Zn  Zn131  1  0.18775305  0.68895763  0.68654601  1
  Zn  Zn132  1  0.68647940  0.18445262  0.18723143  1
  Zn  Zn133  1  0.68792317  0.18790627  0.68547566  1
  Zn  Zn134  1  0.68753116  0.68644898  0.18936323  1
  Zn  Zn135  1  0.68752301  0.68794288  0.69021853  1
  Zn  Zn136  1  0.31476419  0.31266373  0.31241039  1
  Zn  Zn137  1  0.31430091  0.31485108  0.81389774  1
  Zn  Zn138  1  0.31216180  0.81342351  0.31251534  1
  Zn  Zn139  1  0.31312797  0.81266416  0.81262847  1
  Zn  Zn140  1  0.81316280  0.31305888  0.31328709  1
  Zn  Zn141  1  0.81234539  0.30989313  0.81427370  1
  Zn  Zn142  1  0.81234930  0.81307922  0.31108878  1
  Zn  Zn143  1  0.81240712  0.81069533  0.81296115  1
  Zn  Zn144  1  0.18767915  0.43618805  0.43476445  1
  Zn  Zn145  1  0.19059112  0.43780186  0.93731697  1
  Zn  Zn146  1  0.18712855  0.93700748  0.43662393  1
  Zn  Zn147  1  0.18598412  0.93772479  0.93553748  1
  Zn  Zn148  1  0.68647190  0.43572653  0.43733644  1
  Zn  Zn149  1  0.68823795  0.43890360  0.93845868  1
  Zn  Zn150  1  0.68680993  0.93695183  0.43613228  1
  Zn  Zn151  1  0.68723176  0.93750760  0.93918664  1
  Zn  Zn152  1  0.31024371  0.06309956  0.06337823  1
  Zn  Zn153  1  0.31472057  0.06415657  0.56353565  1
  Zn  Zn154  1  0.31160419  0.56556799  0.06090130  1
  Zn  Zn155  1  0.31370734  0.56359742  0.56319352  1
  Zn  Zn156  1  0.81088620  0.06147202  0.06058896  1
  Zn  Zn157  1  0.81411304  0.06370771  0.56324701  1
  Zn  Zn158  1  0.81159155  0.56319630  0.06372478  1
  Zn  Zn159  1  0.81211352  0.56043214  0.56452042  1
  Zn  Zn160  1  0.43667826  0.43583558  0.18630767  1
  Zn  Zn161  1  0.43908433  0.43783538  0.68820032  1
  Zn  Zn162  1  0.43589424  0.93752971  0.18801057  1
  Zn  Zn163  1  0.43582173  0.93804105  0.68483790  1
  Zn  Zn164  1  0.93934847  0.43685110  0.18582128  1
  Zn  Zn165  1  0.93718182  0.43766847  0.68828417  1
  Zn  Zn166  1  0.93590302  0.93637689  0.18680692  1
  Zn  Zn167  1  0.93838259  0.93778974  0.68842165  1
  Zn  Zn168  1  0.06273141  0.06201575  0.31292790  1
  Zn  Zn169  1  0.06287168  0.06173347  0.81407576  1
  Zn  Zn170  1  0.06315797  0.56239829  0.31124500  1
  Zn  Zn171  1  0.06140836  0.56065799  0.81544435  1
  Zn  Zn172  1  0.56355470  0.06472627  0.31293642  1
  Zn  Zn173  1  0.56250928  0.06307688  0.81219418  1
  Zn  Zn174  1  0.56337616  0.56305879  0.31263195  1
  Zn  Zn175  1  0.56384465  0.56460258  0.81400922  1
  Zn  Zn176  1  0.43652321  0.18687429  0.43659175  1
  Zn  Zn177  1  0.43817858  0.18819825  0.93559696  1
  Zn  Zn178  1  0.43705437  0.68770599  0.43807890  1
  Zn  Zn179  1  0.43810666  0.68940352  0.93743506  1
  Zn  Zn180  1  0.93610803  0.18602636  0.43709805  1
  Zn  Zn181  1  0.93677121  0.18895381  0.93675618  1
  Zn  Zn182  1  0.93783563  0.68695277  0.43773270  1
  Zn  Zn183  1  0.93783430  0.68769330  0.93900841  1
  Zn  Zn184  1  0.06413986  0.31257202  0.06417373  1
  Zn  Zn185  1  0.06309907  0.31116529  0.56326786  1
  Zn  Zn186  1  0.06020757  0.80835188  0.06222105  1
  Zn  Zn187  1  0.06557734  0.81377919  0.56434474  1
  Zn  Zn188  1  0.56141791  0.31447971  0.06188174  1
  Zn  Zn189  1  0.56528886  0.31295994  0.56404006  1
  Zn  Zn190  1  0.56346301  0.81423516  0.06318685  1
  Zn  Zn191  1  0.56136020  0.81355759  0.56286721  1
  O  O192  1  0.12278073  0.12416812  0.11220759  1
  O  O193  1  0.11847901  0.12255841  0.61757410  1
  O  O194  1  0.12512342  0.62447530  0.11287899  1
  O  O195  1  0.11932157  0.61895832  0.61908294  1
  O  O196  1  0.61703304  0.12310079  0.11695700  1
  O  O197  1  0.62428495  0.11761095  0.61771561  1
  O  O198  1  0.61911165  0.61939727  0.12113939  1
  O  O199  1  0.61983514  0.62025759  0.62040268  1
  O  O200  1  0.38092961  0.38128368  0.38186731  1
  O  O201  1  0.37895976  0.38645269  0.87549093  1
  O  O202  1  0.38037632  0.88072283  0.38055251  1
  O  O203  1  0.38051213  0.88145677  0.88028945  1
  O  O204  1  0.88171903  0.38105348  0.38108065  1
  O  O205  1  0.87959413  0.37266809  0.88522420  1
  O  O206  1  0.88070798  0.87859672  0.38174976  1
  O  O207  1  0.88331739  0.87974724  0.87345000  1
  O  O208  1  0.25449054  0.00486594  0.36969520  1
  O  O209  1  0.25585492  0.00603997  0.86665424  1
  O  O210  1  0.25639044  0.50526670  0.36788671  1
  O  O211  1  0.25606541  0.50715410  0.86740864  1
  O  O212  1  0.75486483  0.00431148  0.36943791  1
  O  O213  1  0.75496625  0.00533797  0.86756096  1
  O  O214  1  0.75573694  0.50508899  0.37196661  1
  O  O215  1  0.75272535  0.51253629  0.87360737  1
  O  O216  1  0.25232396  0.50059951  0.13711631  1
  O  O217  1  0.24451790  0.49528479  0.62961612  1
  O  O218  1  0.24697283  0.99322476  0.13169711  1
  O  O219  1  0.24970635  1.00107059  0.63655813  1
  O  O220  1  0.74456383  0.49511690  0.13174023  1
  O  O221  1  0.74153705  0.49744733  0.62872880  1
  O  O222  1  0.74994165  1.00037555  0.13767858  1
  O  O223  1  0.74562464  0.99417923  0.62959366  1
  O  O224  1  -0.00024209  0.36308266  0.25659266  1
  O  O225  1  0.00675130  0.36919933  0.75481554  1
  O  O226  1  0.00465647  0.86810415  0.25714384  1
  O  O227  1  -0.00023199  0.86831849  0.75962803  1
  O  O228  1  0.49915412  0.36592007  0.25561519  1
  O  O229  1  0.51051534  0.36755800  0.75132974  1
  O  O230  1  0.49859648  0.86790002  0.25784661  1
  O  O231  1  0.50423968  0.87215236  0.75439627  1
  O  O232  1  0.49736693  0.13459200  0.24466227  1
  O  O233  1  0.49569314  0.13485092  0.74947467  1
  O  O234  1  0.49402656  0.63006239  0.24553258  1
  O  O235  1  0.49612034  0.63121083  0.74512203  1
  O  O236  1  0.99737345  0.13709162  0.25026453  1
  O  O237  1  0.99588608  0.12954291  0.74605108  1
  O  O238  1  0.99290447  0.63132466  0.25190869  1
  O  O239  1  0.99509084  0.62942271  0.74482739  1
  O  O240  1  0.37033150  0.24905868  0.00732284  1
  O  O241  1  0.36866575  0.25734656  0.50054641  1
  O  O242  1  0.37406513  0.75767580  0.00674047  1
  O  O243  1  0.36843714  0.75623682  0.49904945  1
  O  O244  1  0.87386819  0.25880768  0.00924546  1
  O  O245  1  0.86675852  0.25539136  0.50026708  1
  O  O246  1  0.87356017  0.74871113  0.01342257  1
  O  O247  1  0.86984162  0.75443927  0.50550253  1
  O  O248  1  0.13057441  0.24456889  0.49361552  1
  O  O249  1  0.13078423  0.24230728  0.99382755  1
  O  O250  1  0.12938577  0.74345618  0.49348871  1
  O  O251  1  0.12613716  0.74042557  0.99209584  1
  O  O252  1  0.63458191  0.24474667  0.49904759  1
  O  O253  1  0.62407765  0.24365537  0.99313598  1
  O  O254  1  0.63066884  0.74416310  0.49579923  1
  O  O255  1  0.62549693  0.74106952  0.99853833  1
  O  O256  1  0.49236324  0.24581219  0.13106156  1
  O  O257  1  0.50001941  0.24954539  0.63776940  1
  O  O258  1  0.49385446  0.74469116  0.13165475  1
  O  O259  1  0.49858191  0.74375936  0.63090494  1
  O  O260  1  0.99090741  0.24976460  0.13416890  1
  O  O261  1  0.99980256  0.24280352  0.63190126  1
  O  O262  1  0.99003487  0.74593577  0.13278341  1
  O  O263  1  0.99476551  0.74363204  0.62901514  1
  O  O264  1  0.00396570  0.25363766  0.36805205  1
  O  O265  1  0.00650016  0.25526023  0.86834585  1
  O  O266  1  0.00497793  0.75461762  0.37082807  1
  O  O267  1  0.00301358  0.75701390  0.86898113  1
  O  O268  1  0.49839330  0.25516765  0.36516144  1
  O  O269  1  0.50645090  0.25135024  0.86339829  1
  O  O270  1  0.50484916  0.75418332  0.37076316  1
  O  O271  1  0.50115195  0.75820627  0.86767822  1
  O  O272  1  0.24502513  0.13065930  0.49441463  1
  O  O273  1  0.24165362  0.12995463  0.99333182  1
  O  O274  1  0.24480843  0.62867896  0.49356709  1
  O  O275  1  0.24193220  0.62850292  0.99180340  1
  O  O276  1  0.74617888  0.13167631  0.49538332  1
  O  O277  1  0.74216235  0.12660400  0.99267900  1
  O  O278  1  0.74525577  0.63014344  0.49591496  1
  O  O279  1  0.74410131  0.62566576  0.99241563  1
  O  O280  1  0.25455679  0.36590954  -0.00004614  1
  O  O281  1  0.25523829  0.37091351  0.50420905  1
  O  O282  1  0.25587973  0.87489805  0.00507829  1
  O  O283  1  0.25607442  0.86810293  0.49758051  1
  O  O284  1  0.75835446  0.37203769  0.00651998  1
  O  O285  1  0.75620685  0.36624916  0.49921138  1
  O  O286  1  0.75304526  0.87091098  0.00259052  1
  O  O287  1  0.75571946  0.86928786  0.50545635  1
  O  O288  1  0.13815623  0.49980965  0.25072287  1
  O  O289  1  0.13081529  0.49491851  0.74436669  1
  O  O290  1  0.13033572  0.99166218  0.25023776  1
  O  O291  1  0.13809624  1.00111245  0.75061192  1
  O  O292  1  0.63159727  0.50001044  0.24394343  1
  O  O293  1  0.62420709  0.49072189  0.74583939  1
  O  O294  1  0.63543267  0.99922311  0.25050360  1
  O  O295  1  0.63069792  0.99555731  0.74395000  1
  O  O296  1  0.36674116  0.00095776  0.25718519  1
  O  O297  1  0.36854905  0.00634222  0.75543245  1
  O  O298  1  0.36915444  0.50557384  0.25542923  1
  O  O299  1  0.37070783  0.50717741  0.75451754  1
  O  O300  1  0.86608895  0.00097719  0.25739018  1
  O  O301  1  0.86895262  0.00571688  0.75499811  1
  O  O302  1  0.86967294  0.50386474  0.25656797  1
  O  O303  1  0.87319260  0.50736836  0.75297732  1
  O  O304  1  0.11839434  0.36754771  0.37226421  1
  O  O305  1  0.12118722  0.36939089  0.86917883  1
  O  O306  1  0.11902414  0.86785287  0.36937127  1
  O  O307  1  0.11507901  0.86906097  0.87214689  1
  O  O308  1  0.61618518  0.37212704  0.37185750  1
  O  O309  1  0.62436063  0.37009200  0.86627334  1
  O  O310  1  0.61753881  0.86708701  0.37487744  1
  O  O311  1  0.61768029  0.87571292  0.86720393  1
  O  O312  1  0.38031855  0.13596687  0.12550408  1
  O  O313  1  0.37926534  0.12992717  0.63313373  1
  O  O314  1  0.38062918  0.63153818  0.13038874  1
  O  O315  1  0.38281421  0.62582923  0.63149402  1
  O  O316  1  0.87544102  0.13794922  0.12469077  1
  O  O317  1  0.88238953  0.12653716  0.63235199  1
  O  O318  1  0.87520588  0.63234482  0.13318914  1
  O  O319  1  0.88083360  0.62984685  0.62951917  1
  O  O320  1  0.25998758  0.24825289  0.11965179  1
  O  O321  1  0.25067803  0.25766833  0.61759761  1
  O  O322  1  0.25771660  0.75755992  0.12440738  1
  O  O323  1  0.25273059  0.75056712  0.61539351  1
  O  O324  1  0.75909285  0.25524069  0.12629820  1
  O  O325  1  0.75287425  0.25184197  0.61236162  1
  O  O326  1  0.76054017  0.74968934  0.12755702  1
  O  O327  1  0.75553612  0.75507345  0.61978216  1
  O  O328  1  0.24527140  0.24525002  0.37959688  1
  O  O329  1  0.24541381  0.24475035  0.87865084  1
  O  O330  1  0.24397741  0.74342901  0.37860593  1
  O  O331  1  0.24292977  0.74433934  0.87447603  1
  O  O332  1  0.74988445  0.24433285  0.38416885  1
  O  O333  1  0.74288608  0.24149169  0.87659190  1
  O  O334  1  0.74555530  0.74394266  0.38105890  1
  O  O335  1  0.74868521  0.73745025  0.87680060  1
  O  O336  1  0.01129099  0.12586744  -0.00139763  1
  O  O337  1  0.00483526  0.11958617  0.50446114  1
  O  O338  1  0.01230042  0.62227839  -0.00104302  1
  O  O339  1  0.00537279  0.61891199  0.50496689  1
  O  O340  1  0.50402197  0.12009807  0.00345311  1
  O  O341  1  0.50652873  0.11896168  0.49978392  1
  O  O342  1  0.50532597  0.62113490  0.00673466  1
  O  O343  1  0.50572153  0.61939692  0.50479108  1
  O  O344  1  0.49552753  0.38070319  0.49610378  1
  O  O345  1  0.49725484  0.38552983  0.99754869  1
  O  O346  1  0.49443036  0.88095026  0.49383498  1
  O  O347  1  0.49320061  0.88176754  0.99426253  1
  O  O348  1  0.99617207  0.37993372  0.49462776  1
  O  O349  1  0.99113537  0.37187935  0.99418693  1
  O  O350  1  0.99473335  0.87922641  0.49503129  1
  O  O351  1  0.99716231  0.87342250  0.98600400  1
  O  O352  1  0.49492781  0.49594921  0.38063234  1
  O  O353  1  0.49406843  0.50324381  0.88234158  1
  O  O354  1  0.49453897  0.99525581  0.37984262  1
  O  O355  1  0.49361381  0.99579396  0.87950597  1
  O  O356  1  0.99532654  0.49467824  0.38008345  1
  O  O357  1  0.99737533  0.48961215  0.87938873  1
  O  O358  1  0.99430033  0.99352435  0.38038470  1
  O  O359  1  0.99376050  0.99003095  0.87370025  1
  O  O360  1  0.00187376  0.00307361  0.12186236  1
  O  O361  1  0.00090034  0.00615184  0.61838664  1
  O  O362  1  0.00421431  0.50367549  0.12169525  1
  O  O363  1  0.00650497  0.50512568  0.61909978  1
  O  O364  1  0.49697601  0.00772296  0.11820355  1
  O  O365  1  0.50728742  0.00119587  0.61702279  1
  O  O366  1  0.50387926  0.50675444  0.12117695  1
  O  O367  1  0.50624879  0.50616619  0.61937802  1
  O  O368  1  0.25166487  0.38686990  0.25023094  1
  O  O369  1  0.24483662  0.38117499  0.74465795  1
  O  O370  1  0.24353739  0.87958641  0.24509322  1
  O  O371  1  0.25058847  0.88776335  0.75055294  1
  O  O372  1  0.74928440  0.38174605  0.24478978  1
  O  O373  1  0.73829046  0.37434691  0.74988395  1
  O  O374  1  0.74758810  0.88693262  0.25184196  1
  O  O375  1  0.74507622  0.88030073  0.74429659  1
  O  O376  1  0.24973547  0.11835235  0.25720722  1
  O  O377  1  0.25540366  0.11945891  0.75534044  1
  O  O378  1  0.25588417  0.61792314  0.25559821  1
  O  O379  1  0.25530334  0.61970254  0.75366952  1
  O  O380  1  0.75101453  0.11630579  0.25725231  1
  O  O381  1  0.75513693  0.11956630  0.75430281  1
  O  O382  1  0.75555379  0.61821780  0.25827010  1
  O  O383  1  0.75570122  0.62462672  0.75916107  1
  O  O384  1  0.36708406  0.11794829  0.37377321  1
  O  O385  1  0.36938890  0.12003383  0.86939712  1
  O  O386  1  0.37034598  0.61940736  0.36955755  1
  O  O387  1  0.36966396  0.62184974  0.86854354  1
  O  O388  1  0.86797723  0.11661826  0.37470961  1
  O  O389  1  0.86977970  0.12004455  0.86922048  1
  O  O390  1  0.86957756  0.61908328  0.37154046  1
  O  O391  1  0.86743610  0.62416155  0.87071164  1
  O  O392  1  0.13109903  0.37762794  0.12873216  1
  O  O393  1  0.13065069  0.38089982  0.63024810  1
  O  O394  1  0.12990684  0.87323806  0.13106359  1
  O  O395  1  0.12981390  0.87962160  0.63001572  1
  O  O396  1  0.63130371  0.38200474  0.12660175  1
  O  O397  1  0.62673329  0.38108739  0.63529789  1
  O  O398  1  0.62670745  0.87975725  0.13052705  1
  O  O399  1  0.63136041  0.88111188  0.62935458  1
  O  O400  1  0.11584947  0.24939577  0.25560327  1
  O  O401  1  0.12114737  0.25519146  0.75529197  1
  O  O402  1  0.11986996  0.75354922  0.25581090  1
  O  O403  1  0.11735798  0.74918243  0.75634208  1
  O  O404  1  0.61125753  0.25127756  0.24956593  1
  O  O405  1  0.61868337  0.25672166  0.75382316  1
  O  O406  1  0.61751244  0.74858531  0.25851238  1
  O  O407  1  0.61815389  0.75852737  0.75116381  1
  O  O408  1  0.38392573  0.24855314  0.24146625  1
  O  O409  1  0.38499890  0.24658303  0.75067643  1
  O  O410  1  0.38000855  0.74427189  0.24566977  1
  O  O411  1  0.38177332  0.74386955  0.74834699  1
  O  O412  1  0.88270233  0.24930336  0.24236099  1
  O  O413  1  0.88251793  0.24320680  0.74982589  1
  O  O414  1  0.87944184  0.74379568  0.24515600  1
  O  O415  1  0.88060168  0.74349660  0.74326809  1
  O  O416  1  0.38073628  0.49557240  0.49454918  1
  O  O417  1  0.38101731  0.50292934  0.99347047  1
  O  O418  1  0.38012554  0.99551138  0.49361111  1
  O  O419  1  0.37892081  0.99620706  0.99366505  1
  O  O420  1  0.88137854  0.49552569  0.49466877  1
  O  O421  1  0.87540305  0.48509094  1.00183565  1
  O  O422  1  0.88020404  0.99331378  0.49529964  1
  O  O423  1  0.87703920  0.99836711  0.99031459  1
  O  O424  1  0.12271427  0.01189828  -0.00146545  1
  O  O425  1  0.11792639  0.00687077  0.49844704  1
  O  O426  1  0.12729659  0.51144811  -0.00043753  1
  O  O427  1  0.12035090  0.50482880  0.50415814  1
  O  O428  1  0.61604404  0.00786371  -0.00016299  1
  O  O429  1  0.62047215  0.00494074  0.50403779  1
  O  O430  1  0.61942829  0.50701370  0.00709772  1
  O  O431  1  0.61971136  0.50535576  0.50524548  1
  O  O432  1  0.37328868  0.36176304  0.12202208  1
  O  O433  1  0.36870318  0.37527916  0.61874967  1
  O  O434  1  0.36881834  0.87044385  0.11936666  1
  O  O435  1  0.37104009  0.87338967  0.61520793  1
  O  O436  1  0.87009187  0.36619797  0.11880731  1
  O  O437  1  0.87410587  0.37279278  0.61673708  1
  O  O438  1  0.87223750  0.86178509  0.12525912  1
  O  O439  1  0.86993288  0.86899187  0.62025434  1
  O  O440  1  0.13003457  0.13089193  0.38125455  1
  O  O441  1  0.13009646  0.13154170  0.88161794  1
  O  O442  1  0.13021772  0.62975704  0.38074942  1
  O  O443  1  0.12991057  0.63001441  0.88082080  1
  O  O444  1  0.63242179  0.12813206  0.38260196  1
  O  O445  1  0.63021096  0.13001236  0.87904109  1
  O  O446  1  0.63063855  0.62962003  0.38244570  1
  O  O447  1  0.63408748  0.62675098  0.88162183  1
