# generated using pymatgen
data_V3Zn3O8
_symmetry_space_group_name_H-M   'P 1'
_cell_length_a   17.08783194
_cell_length_b   17.08862471
_cell_length_c   17.08930784
_cell_angle_alpha   89.99626572
_cell_angle_beta   90.00070648
_cell_angle_gamma   89.98778640
_symmetry_Int_Tables_number   1
_chemical_formula_structural   V3Zn3O8
_chemical_formula_sum   'V96 Zn96 O256'
_cell_volume   4990.20674179
_cell_formula_units_Z   32
loop_
 _symmetry_equiv_pos_site_id
 _symmetry_equiv_pos_as_xyz
  1  'x, y, z'
loop_
 _atom_site_type_symbol
 _atom_site_label
 _atom_site_symmetry_multiplicity
 _atom_site_fract_x
 _atom_site_fract_y
 _atom_site_fract_z
 _atom_site_occupancy
  V  V0  1  0.75046686  0.62391202  0.37526430  1
  V  V1  1  0.12501818  0.12598443  -0.00059172  1
  V  V2  1  0.37596016  0.75058533  0.12522323  1
  V  V3  1  0.12429472  0.25133409  0.87593071  1
  V  V4  1  0.87450576  0.00035467  0.37381522  1
  V  V5  1  0.37461102  0.49971143  0.37408318  1
  V  V6  1  0.74950095  0.24945511  0.50054537  1
  V  V7  1  0.37457539  0.62499655  0.75039850  1
  V  V8  1  0.75030804  0.12247547  0.87296566  1
  V  V9  1  0.62497302  0.74979882  0.87602246  1
  V  V10  1  0.75117686  0.75067423  0.50067387  1
  V  V11  1  0.50038888  0.62558214  0.62465453  1
  V  V12  1  0.62551166  0.62566895  0.49958531  1
  V  V13  1  0.87579222  0.62462359  0.75060232  1
  V  V14  1  0.37461020  0.87633930  -0.00068318  1
  V  V15  1  0.75018984  0.50048707  0.75060314  1
  V  V16  1  0.62600908  0.50056346  0.62618584  1
  V  V17  1  0.87487145  0.00002279  0.87494287  1
  V  V18  1  0.50041198  -0.00031438  0.50064052  1
  V  V19  1  0.24914557  0.62423990  0.37443972  1
  V  V20  1  0.50066470  0.12463304  0.62383223  1
  V  V21  1  0.12472598  -0.00072653  0.12374345  1
  V  V22  1  0.12560764  0.74968157  0.87458636  1
  V  V23  1  0.87448580  0.25086888  0.62576262  1
  V  V24  1  0.37568178  0.62593040  0.24835217  1
  V  V25  1  0.87577845  0.87394413  0.00083642  1
  V  V26  1  0.00172670  0.12417485  0.62486550  1
  V  V27  1  0.50043930  0.50073542  0.49980326  1
  V  V28  1  0.25000103  0.74957379  -0.00108883  1
  V  V29  1  0.49962841  0.24905212  0.25060462  1
  V  V30  1  -0.00038485  0.37438782  0.37490077  1
  V  V31  1  0.75017601  0.00117764  0.25021608  1
  V  V32  1  0.12468761  0.12441704  0.50044395  1
  V  V33  1  0.24963830  0.87563965  0.12462155  1
  V  V34  1  0.87547245  0.12452117  0.24982114  1
  V  V35  1  -0.00045780  0.49923742  0.49971675  1
  V  V36  1  0.62516922  -0.00086061  0.62471205  1
  V  V37  1  0.50015055  0.50114153  0.00018070  1
  V  V38  1  0.74918629  0.74936645  0.00055066  1
  V  V39  1  -0.00105081  0.12531987  0.12488522  1
  V  V40  1  0.62516355  0.24873712  0.87456824  1
  V  V41  1  0.87484999  0.62457033  0.25049354  1
  V  V42  1  0.00071506  0.74923504  0.75038989  1
  V  V43  1  0.87368990  0.37473449  0.00135226  1
  V  V44  1  0.00053475  0.87414612  0.37432240  1
  V  V45  1  0.25089363  0.50116619  0.75015834  1
  V  V46  1  0.25051934  0.37440059  0.12444685  1
  V  V47  1  0.50020299  0.37528255  0.87543005  1
  V  V48  1  0.12554336  0.49934251  0.12493901  1
  V  V49  1  0.24811885  -0.00098822  0.74670003  1
  V  V50  1  0.24993420  0.74894723  0.49904103  1
  V  V51  1  0.62464995  0.75048505  0.37410488  1
  V  V52  1  0.62642032  0.87536246  0.74853975  1
  V  V53  1  0.37425910  0.75048827  0.62392192  1
  V  V54  1  0.62571621  0.24963820  0.37706167  1
  V  V55  1  -0.00035107  0.37456150  0.87618135  1
  V  V56  1  0.37456913  0.12543315  0.74947294  1
  V  V57  1  0.37492795  0.37546921  0.49971398  1
  V  V58  1  0.24989483  0.25048106  0.50004387  1
  V  V59  1  -0.00039164  0.62491537  0.62528750  1
  V  V60  1  0.49990863  0.25090439  0.74903145  1
  V  V61  1  0.25024142  0.25065864  -0.00047834  1
  V  V62  1  -0.00043699  0.24905214  0.25019891  1
  V  V63  1  0.00107975  0.87427203  0.87401672  1
  V  V64  1  0.50021603  0.74985581  0.75002571  1
  V  V65  1  0.12575497  0.62508838  -0.00032935  1
  V  V66  1  0.87518244  0.50014464  0.37608370  1
  V  V67  1  0.62383037  0.50117617  0.12599792  1
  V  V68  1  0.87445796  0.50021316  0.87510862  1
  V  V69  1  0.37378328  0.87383473  0.49974363  1
  V  V70  1  0.24941855  0.37611192  0.62547550  1
  V  V71  1  0.37564278  0.37377831  0.00010292  1
  V  V72  1  -0.00047761  0.49974179  0.00069944  1
  V  V73  1  0.12416855  0.24956566  0.37410707  1
  V  V74  1  -0.00075706  0.62442868  0.12547671  1
  V  V75  1  0.87492123  0.74892673  0.12498734  1
  V  V76  1  0.62544736  0.37610529  0.74997576  1
  V  V77  1  0.24975642  0.49862478  0.24890812  1
  V  V78  1  0.00001341  0.25080579  0.75134264  1
  V  V79  1  0.37535834  -0.00007186  0.87498665  1
  V  V80  1  0.62479650  0.37438954  0.25093028  1
  V  V81  1  0.75027889  0.37339530  0.12497760  1
  V  V82  1  0.50010558  0.87449508  0.37451135  1
  V  V83  1  0.37502611  0.25088517  0.62508536  1
  V  V84  1  0.12515733  0.62481868  0.49867789  1
  V  V85  1  0.50028261  0.37489438  0.37557128  1
  V  V86  1  0.87520213  0.87501683  0.50121199  1
  V  V87  1  0.62438998  0.00051136  0.12462757  1
  V  V88  1  0.37562008  0.12523861  0.24906370  1
  V  V89  1  0.00029034  -0.00019253  -0.00093758  1
  V  V90  1  0.37493659  -0.00011488  0.37544320  1
  V  V91  1  0.25008881  0.12487998  0.37528128  1
  V  V92  1  0.62491194  0.87606506  0.25054349  1
  V  V93  1  0.12509038  0.87389962  0.24975647  1
  V  V94  1  0.62295302  0.12413625  -0.00036826  1
  V  V95  1  0.12505823  0.49933992  0.62520066  1
  Zn  Zn96  1  0.24594681  0.87428413  0.62286867  1
  Zn  Zn97  1  0.37661296  0.24865703  0.12362686  1
  Zn  Zn98  1  0.87520704  0.12270729  0.75013434  1
  Zn  Zn99  1  0.87483407  0.75128050  0.62711759  1
  Zn  Zn100  1  0.24925993  0.12744554  0.87376486  1
  Zn  Zn101  1  0.12513426  0.37629448  0.75107514  1
  Zn  Zn102  1  0.62586216  0.12334113  0.49917762  1
  Zn  Zn103  1  0.50066135  0.74952802  0.24800801  1
  Zn  Zn104  1  0.75015837  0.37486049  0.62640785  1
  Zn  Zn105  1  0.49829142  -0.00022846  0.00027104  1
  Zn  Zn106  1  0.50056305  0.62868587  0.12541753  1
  Zn  Zn107  1  0.49906499  0.12664231  0.12420105  1
  Zn  Zn108  1  0.87459126  0.37574232  0.50031512  1
  Zn  Zn109  1  0.75094448  0.24969185  -0.00046845  1
  Zn  Zn110  1  0.74966853  0.49903509  0.25292530  1
  Zn  Zn111  1  0.00184614  -0.00062357  0.50112253  1
  Zn  Zn112  1  0.37411400  0.50183787  0.87528160  1
  Zn  Zn113  1  0.74982055  0.12594332  0.37445185  1
  Zn  Zn114  1  0.75060735  0.87442475  0.12661346  1
  Zn  Zn115  1  0.25188428  0.62416609  0.87515694  1
  Zn  Zn116  1  0.75024975  0.62422477  0.87543985  1
  Zn  Zn117  1  0.62410383  0.62700485  0.00152954  1
  Zn  Zn118  1  0.75201471  0.87608894  0.62448538  1
  Zn  Zn119  1  0.12491078  0.87449966  0.74675614  1
  Zn  Zn120  1  0.75279789  -0.00171772  0.74665153  1
  Zn  Zn121  1  0.49958822  0.87535149  0.87644205  1
  Zn  Zn122  1  0.12485357  -0.00270953  0.62364298  1
  Zn  Zn123  1  0.87452497  0.24924299  0.12446846  1
  Zn  Zn124  1  0.12488591  0.37361343  0.24908541  1
  Zn  Zn125  1  0.12476614  0.74892119  0.37441513  1
  Zn  Zn126  1  -0.00039520  0.74851227  0.24942951  1
  Zn  Zn127  1  0.25079250  0.00020387  0.24981038  1
  Zn  Zn128  1  0.18796150  0.18803037  0.18670713  1
  Zn  Zn129  1  0.18668690  0.18851000  0.68933741  1
  Zn  Zn130  1  0.18878061  0.68759944  0.18633558  1
  Zn  Zn131  1  0.18760757  0.68673383  0.68679001  1
  Zn  Zn132  1  0.68778449  0.18736953  0.18884711  1
  Zn  Zn133  1  0.68634706  0.18571386  0.68744994  1
  Zn  Zn134  1  0.68841207  0.68694314  0.18921924  1
  Zn  Zn135  1  0.69098509  0.68808422  0.68669196  1
  Zn  Zn136  1  0.31193376  0.31171479  0.31167908  1
  Zn  Zn137  1  0.31212563  0.31550553  0.81354147  1
  Zn  Zn138  1  0.31190827  0.81132860  0.31220863  1
  Zn  Zn139  1  0.31114057  0.81357396  0.81173615  1
  Zn  Zn140  1  0.81376010  0.31255059  0.31262778  1
  Zn  Zn141  1  0.81182004  0.31169438  0.81278527  1
  Zn  Zn142  1  0.81124424  0.81191720  0.31164904  1
  Zn  Zn143  1  0.81327592  0.81208941  0.81337943  1
  Zn  Zn144  1  0.18568400  0.43689670  0.43645173  1
  Zn  Zn145  1  0.18829970  0.43801582  0.93670787  1
  Zn  Zn146  1  0.18775212  0.93893900  0.43808682  1
  Zn  Zn147  1  0.18828769  0.93702889  0.93481207  1
  Zn  Zn148  1  0.68903137  0.43600021  0.43998461  1
  Zn  Zn149  1  0.68745700  0.43719458  0.93766065  1
  Zn  Zn150  1  0.68858870  0.93800122  0.43677044  1
  Zn  Zn151  1  0.68908081  0.93643792  0.93756712  1
  Zn  Zn152  1  0.30968521  0.06351263  0.06238899  1
  Zn  Zn153  1  0.31309510  0.06270665  0.56251899  1
  Zn  Zn154  1  0.31307936  0.56317883  0.06306232  1
  Zn  Zn155  1  0.31220044  0.56344034  0.56296962  1
  Zn  Zn156  1  0.81157191  0.06177777  0.06220761  1
  Zn  Zn157  1  0.81259189  0.06212813  0.56156187  1
  Zn  Zn158  1  0.81129091  0.56253123  0.06262287  1
  Zn  Zn159  1  0.81334340  0.56328486  0.56369843  1
  Zn  Zn160  1  0.43653554  0.43572774  0.18699740  1
  Zn  Zn161  1  0.43749747  0.43880687  0.68771994  1
  Zn  Zn162  1  0.43911299  0.93837777  0.18756013  1
  Zn  Zn163  1  0.43740669  0.93582702  0.68706943  1
  Zn  Zn164  1  0.93715347  0.43761554  0.19005792  1
  Zn  Zn165  1  0.93781777  0.43661041  0.68859342  1
  Zn  Zn166  1  0.93739426  0.93703929  0.18674764  1
  Zn  Zn167  1  0.93827251  0.93796085  0.68935968  1
  Zn  Zn168  1  0.06214584  0.06086478  0.31224116  1
  Zn  Zn169  1  0.06290201  0.06423898  0.81233030  1
  Zn  Zn170  1  0.06224088  0.56084894  0.31150528  1
  Zn  Zn171  1  0.06377295  0.56262976  0.81295300  1
  Zn  Zn172  1  0.56295485  0.06379424  0.31469846  1
  Zn  Zn173  1  0.56098341  0.06138704  0.81069022  1
  Zn  Zn174  1  0.56149160  0.56361180  0.31137735  1
  Zn  Zn175  1  0.56282110  0.56415523  0.81362926  1
  Zn  Zn176  1  0.43789643  0.18687881  0.43758801  1
  Zn  Zn177  1  0.43668351  0.18719009  0.93546322  1
  Zn  Zn178  1  0.43713138  0.68773502  0.43540084  1
  Zn  Zn179  1  0.43719812  0.68738232  0.93738952  1
  Zn  Zn180  1  0.93679303  0.18727858  0.43814515  1
  Zn  Zn181  1  0.93582602  0.18841660  0.93951654  1
  Zn  Zn182  1  0.93798916  0.68834681  0.43765213  1
  Zn  Zn183  1  0.93813186  0.68667754  0.93687372  1
  Zn  Zn184  1  0.06280629  0.31241356  0.06354750  1
  Zn  Zn185  1  0.06284383  0.31275627  0.56157929  1
  Zn  Zn186  1  0.06203542  0.81084321  0.06186369  1
  Zn  Zn187  1  0.06383063  0.81103333  0.56413027  1
  Zn  Zn188  1  0.56223742  0.31110373  0.06302236  1
  Zn  Zn189  1  0.56346777  0.31344192  0.56325792  1
  Zn  Zn190  1  0.55952445  0.81679132  0.06276323  1
  Zn  Zn191  1  0.56200278  0.81283000  0.56197115  1
  O  O192  1  0.11912170  0.11881524  0.11955074  1
  O  O193  1  0.11511032  0.12781378  0.61920326  1
  O  O194  1  0.11964499  0.61950157  0.11946028  1
  O  O195  1  0.11922002  0.61846087  0.61818762  1
  O  O196  1  0.62620135  0.11807625  0.11585664  1
  O  O197  1  0.61739682  0.11774958  0.62422095  1
  O  O198  1  0.62384608  0.61250124  0.12475268  1
  O  O199  1  0.61972798  0.62071830  0.61943548  1
  O  O200  1  0.38003502  0.38015595  0.38035687  1
  O  O201  1  0.38358225  0.37779481  0.88169670  1
  O  O202  1  0.37984740  0.88001724  0.37956221  1
  O  O203  1  0.37487023  0.88430480  0.88018204  1
  O  O204  1  0.88175748  0.38178399  0.37702451  1
  O  O205  1  0.87954662  0.38032995  0.88112654  1
  O  O206  1  0.88259111  0.87921943  0.38041127  1
  O  O207  1  0.88109572  0.87977611  0.88156927  1
  O  O208  1  0.25721965  0.00739945  0.37327863  1
  O  O209  1  0.25981744  0.00208317  0.86583404  1
  O  O210  1  0.25558312  0.50402591  0.36961284  1
  O  O211  1  0.25288247  0.50253903  0.86693324  1
  O  O212  1  0.75669394  0.00230505  0.36799882  1
  O  O213  1  0.75562746  0.00772386  0.87471529  1
  O  O214  1  0.75591759  0.50615165  0.37630016  1
  O  O215  1  0.75568922  0.50179270  0.86964188  1
  O  O216  1  0.24517568  0.49432922  0.12928817  1
  O  O217  1  0.24483745  0.49520941  0.62906038  1
  O  O218  1  0.24210421  0.99315154  0.12658725  1
  O  O219  1  0.25014520  0.99999700  0.63560217  1
  O  O220  1  0.73978621  0.49082304  0.12507613  1
  O  O221  1  0.74351163  0.49870071  0.63154447  1
  O  O222  1  0.73919993  0.99889063  0.13004590  1
  O  O223  1  0.74225633  0.99745115  0.62699654  1
  O  O224  1  0.00176062  0.36780340  0.25666857  1
  O  O225  1  0.00104546  0.36867331  0.75824252  1
  O  O226  1  0.00800102  0.87399538  0.25717360  1
  O  O227  1  0.00070043  0.86786211  0.75729307  1
  O  O228  1  0.50432990  0.36941884  0.25679176  1
  O  O229  1  0.50522740  0.37038610  0.75508747  1
  O  O230  1  0.50706785  0.87464786  0.25752027  1
  O  O231  1  0.51055814  0.86804691  0.75109923  1
  O  O232  1  0.49005373  0.13052259  0.25205858  1
  O  O233  1  0.49455065  0.13135346  0.74380133  1
  O  O234  1  0.49119315  0.62726288  0.24734022  1
  O  O235  1  0.49579816  0.63056628  0.74362391  1
  O  O236  1  0.99502974  0.12852312  0.24428192  1
  O  O237  1  0.99886620  0.13240108  0.74085124  1
  O  O238  1  0.99379547  0.62618877  0.24342454  1
  O  O239  1  0.99510915  0.62911039  0.74490470  1
  O  O240  1  0.36951689  0.25530739  0.00055889  1
  O  O241  1  0.36985965  0.25590656  0.50507044  1
  O  O242  1  0.36965882  0.75619847  0.00467333  1
  O  O243  1  0.36996640  0.75382415  0.50412879  1
  O  O244  1  0.87123615  0.25845396  0.00435436  1
  O  O245  1  0.86727061  0.25064636  0.50884091  1
  O  O246  1  0.86740873  0.75373967  0.00393095  1
  O  O247  1  0.87015179  0.76025698  0.49906585  1
  O  O248  1  0.13116005  0.24444398  0.49421173  1
  O  O249  1  0.12956556  0.24513452  0.99502992  1
  O  O250  1  0.13146709  0.74190322  0.49761176  1
  O  O251  1  0.13022378  0.74443543  0.99521443  1
  O  O252  1  0.63340413  0.24959595  0.49654254  1
  O  O253  1  0.62599960  0.24023472  0.99348966  1
  O  O254  1  0.63023787  0.74492557  0.49437459  1
  O  O255  1  0.63196533  0.75275366  0.99303212  1
  O  O256  1  0.49818862  0.24682789  0.13433497  1
  O  O257  1  0.49427997  0.24584145  0.62986763  1
  O  O258  1  0.49211044  0.74920201  0.12669386  1
  O  O259  1  0.49508574  0.74395565  0.62947176  1
  O  O260  1  0.99920764  0.24292204  0.13166157  1
  O  O261  1  0.99298039  0.24363740  0.62897353  1
  O  O262  1  0.99274216  0.74202022  0.12469940  1
  O  O263  1  0.99817181  0.74186401  0.63168675  1
  O  O264  1  0.00485883  0.25413592  0.37034183  1
  O  O265  1  0.00374182  0.25514786  0.87131696  1
  O  O266  1  0.00198282  0.76269493  0.37184240  1
  O  O267  1  0.00569248  0.75484537  0.87068763  1
  O  O268  1  0.50505596  0.25657090  0.37161154  1
  O  O269  1  0.50574686  0.25489517  0.86829124  1
  O  O270  1  0.50713011  0.75673612  0.37412669  1
  O  O271  1  0.50960099  0.75171945  0.86963269  1
  O  O272  1  0.24592613  0.13181221  0.49518891  1
  O  O273  1  0.24252974  0.13243822  0.99810100  1
  O  O274  1  0.24499189  0.62839852  0.49367114  1
  O  O275  1  0.24362419  0.63174717  0.99980857  1
  O  O276  1  0.74873883  0.13766118  0.49800542  1
  O  O277  1  0.73986671  0.12483259  0.99047959  1
  O  O278  1  0.74457171  0.63047505  0.49498955  1
  O  O279  1  0.74730597  0.63717260  0.99834938  1
  O  O280  1  0.25603636  0.37051028  0.00492924  1
  O  O281  1  0.25586282  0.37021885  0.50475899  1
  O  O282  1  0.25455772  0.86976498  0.00535517  1
  O  O283  1  0.25680304  0.86779265  0.49910000  1
  O  O284  1  0.75413530  0.37457625  0.00903922  1
  O  O285  1  0.75207473  0.36245766  0.50504318  1
  O  O286  1  0.75635818  0.86423292  0.00104389  1
  O  O287  1  0.76092177  0.86956523  0.49780156  1
  O  O288  1  0.13227116  0.49857899  0.24248972  1
  O  O289  1  0.13142405  0.49917247  0.74255266  1
  O  O290  1  0.12552202  0.98900176  0.24346207  1
  O  O291  1  0.13713742  1.00075031  0.75011380  1
  O  O292  1  0.62439153  0.49311693  0.24129112  1
  O  O293  1  0.62963465  0.49623703  0.74584207  1
  O  O294  1  0.62961950  0.99741153  0.24294067  1
  O  O295  1  0.62415111  0.98905021  0.74500071  1
  O  O296  1  0.37501781  0.00936829  0.25656530  1
  O  O297  1  0.36850453  0.00445498  0.75582700  1
  O  O298  1  0.36956433  0.50424714  0.25517692  1
  O  O299  1  0.36989851  0.50721775  0.75004639  1
  O  O300  1  0.87000509  0.00432030  0.25390977  1
  O  O301  1  0.87242640  0.00264239  0.75892071  1
  O  O302  1  0.87311824  0.50704870  0.25796757  1
  O  O303  1  0.87018409  0.50432889  0.75589114  1
  O  O304  1  0.11859197  0.36751764  0.37304755  1
  O  O305  1  0.11664442  0.36903445  0.87582579  1
  O  O306  1  0.11736818  0.87570627  0.36655221  1
  O  O307  1  0.11783818  0.86784598  0.87381027  1
  O  O308  1  0.61919359  0.37057935  0.37072159  1
  O  O309  1  0.61987412  0.36872716  0.86981591  1
  O  O310  1  0.61987687  0.87028317  0.37022598  1
  O  O311  1  0.62404071  0.86616651  0.86699048  1
  O  O312  1  0.37611180  0.12478017  0.13679798  1
  O  O313  1  0.38096499  0.13200517  0.62975092  1
  O  O314  1  0.37545830  0.63217832  0.13117328  1
  O  O315  1  0.38185368  0.63076259  0.62925628  1
  O  O316  1  0.88128278  0.12498629  0.13052015  1
  O  O317  1  0.88379610  0.13467448  0.62537077  1
  O  O318  1  0.87974195  0.62837670  0.13011220  1
  O  O319  1  0.88274073  0.62593309  0.63231150  1
  O  O320  1  0.25139867  0.25644174  0.11754212  1
  O  O321  1  0.25563374  0.25555439  0.61976754  1
  O  O322  1  0.25527412  0.75685923  0.11841805  1
  O  O323  1  0.25746475  0.74913236  0.61697626  1
  O  O324  1  0.74895842  0.26293222  0.12350184  1
  O  O325  1  0.75828549  0.24866114  0.61951163  1
  O  O326  1  0.75481146  0.75093823  0.11561827  1
  O  O327  1  0.75420072  0.75406995  0.61627127  1
  O  O328  1  0.24494958  0.24493090  0.38121148  1
  O  O329  1  0.24314680  0.25062560  0.88129655  1
  O  O330  1  0.24872836  0.74166896  0.38107054  1
  O  O331  1  0.24375444  0.74909838  0.88166067  1
  O  O332  1  0.74516840  0.25074036  0.38457811  1
  O  O333  1  0.74349329  0.23973110  0.87597899  1
  O  O334  1  0.74427030  0.74376654  0.38091474  1
  O  O335  1  0.74192419  0.74967158  0.88393190  1
  O  O336  1  0.00494842  0.11916358  0.00505531  1
  O  O337  1  0.00549458  0.12566725  0.50949910  1
  O  O338  1  0.00501612  0.61858653  0.00590947  1
  O  O339  1  0.00515266  0.61934108  0.50442555  1
  O  O340  1  0.51213023  0.12225343  -0.00053374  1
  O  O341  1  0.50019541  0.11786317  0.50669343  1
  O  O342  1  0.50223356  0.61328047  0.00297917  1
  O  O343  1  0.50543241  0.61987481  0.50439355  1
  O  O344  1  0.49452296  0.38094272  0.49527468  1
  O  O345  1  0.49656616  0.38158170  0.99533102  1
  O  O346  1  0.49385702  0.87998162  0.49408562  1
  O  O347  1  0.49055113  0.88062988  0.99625094  1
  O  O348  1  0.99893761  0.38132467  0.49319295  1
  O  O349  1  0.99365396  0.38092255  0.99644843  1
  O  O350  1  0.99235525  0.87517246  0.49098629  1
  O  O351  1  0.99515433  0.88016783  0.99434325  1
  O  O352  1  0.49470022  0.49450621  0.38063243  1
  O  O353  1  0.50236082  0.49418342  0.88573102  1
  O  O354  1  0.49471584  0.99428320  0.38113254  1
  O  O355  1  0.48592885  0.99857639  0.87400590  1
  O  O356  1  0.99509206  0.49475270  0.38065958  1
  O  O357  1  0.99473933  0.49436391  0.88147327  1
  O  O358  1  0.99427487  0.98830941  0.37560606  1
  O  O359  1  0.99517532  0.99535127  0.88054076  1
  O  O360  1  0.00537285  0.00485169  0.11830027  1
  O  O361  1  0.00000306  0.01422952  0.62485860  1
  O  O362  1  0.00488869  0.50448329  0.11966598  1
  O  O363  1  0.00512364  0.50446652  0.61986792  1
  O  O364  1  0.51303513  0.00479837  0.12397052  1
  O  O365  1  0.50433181  0.00492015  0.61995616  1
  O  O366  1  0.50933210  0.49683947  0.11664616  1
  O  O367  1  0.50577719  0.50622793  0.61923300  1
  O  O368  1  0.24908865  0.38091049  0.24364050  1
  O  O369  1  0.24933892  0.38217751  0.74215784  1
  O  O370  1  0.24059750  0.87654399  0.24457184  1
  O  O371  1  0.24928672  0.88652464  0.74653581  1
  O  O372  1  0.74373709  0.37683271  0.24160075  1
  O  O373  1  0.74299868  0.38159109  0.74942721  1
  O  O374  1  0.74297288  0.88269471  0.24871136  1
  O  O375  1  0.73771323  0.87474781  0.74862843  1
  O  O376  1  0.25936361  0.12474228  0.25635510  1
  O  O377  1  0.25674752  0.11738599  0.75093839  1
  O  O378  1  0.25517696  0.61844236  0.25450539  1
  O  O379  1  0.25756192  0.61864520  0.74964499  1
  O  O380  1  0.75737777  0.11933887  0.25113990  1
  O  O381  1  0.74922173  0.12200549  0.76320912  1
  O  O382  1  0.75620025  0.62166901  0.25765960  1
  O  O383  1  0.75718861  0.61865687  0.75210075  1
  O  O384  1  0.37016260  0.12033076  0.36829662  1
  O  O385  1  0.37332906  0.11653866  0.86795105  1
  O  O386  1  0.36929980  0.61818030  0.36956287  1
  O  O387  1  0.37384197  0.62292701  0.86606994  1
  O  O388  1  0.87552179  0.11774039  0.36810046  1
  O  O389  1  0.86531514  0.11954326  0.87672136  1
  O  O390  1  0.87027076  0.62025322  0.37079937  1
  O  O391  1  0.87493814  0.61733699  0.86882744  1
  O  O392  1  0.13194918  0.38222983  0.12578653  1
  O  O393  1  0.13182241  0.38131064  0.62540935  1
  O  O394  1  0.12840046  0.87922810  0.13136002  1
  O  O395  1  0.12740909  0.87978194  0.62841357  1
  O  O396  1  0.63134623  0.38191703  0.12983627  1
  O  O397  1  0.62498320  0.38273443  0.63273628  1
  O  O398  1  0.62648447  0.88584889  0.13029370  1
  O  O399  1  0.62524755  0.87963861  0.63377742  1
  O  O400  1  0.11807667  0.24938843  0.25710073  1
  O  O401  1  0.11833810  0.25304805  0.75748045  1
  O  O402  1  0.12335276  0.76269060  0.25005799  1
  O  O403  1  0.11859037  0.74927536  0.75679351  1
  O  O404  1  0.61978868  0.25537005  0.25687092  1
  O  O405  1  0.61887546  0.25519502  0.75477365  1
  O  O406  1  0.62490262  0.75732395  0.25641857  1
  O  O407  1  0.62135417  0.75620147  0.75651626  1
  O  O408  1  0.38047193  0.23977260  0.25121505  1
  O  O409  1  0.38020046  0.24623911  0.74460535  1
  O  O410  1  0.37489243  0.74407200  0.24280822  1
  O  O411  1  0.38076643  0.74585917  0.74422647  1
  O  O412  1  0.88170774  0.24256462  0.24819172  1
  O  O413  1  0.88006562  0.24707011  0.74129760  1
  O  O414  1  0.87514776  0.74303254  0.24294110  1
  O  O415  1  0.88225085  0.74341347  0.75057542  1
  O  O416  1  0.38060403  0.49520293  0.49440386  1
  O  O417  1  0.38622418  0.49406308  1.00087052  1
  O  O418  1  0.38041634  0.99430214  0.49472923  1
  O  O419  1  0.37280829  0.99676637  0.99029688  1
  O  O420  1  0.88178815  0.49900351  0.49453156  1
  O  O421  1  0.88005498  0.49515871  0.99505839  1
  O  O422  1  0.87679421  0.99044770  0.49323893  1
  O  O423  1  0.88075291  0.99397595  0.99522167  1
  O  O424  1  0.11977603  0.00501440  0.00383519  1
  O  O425  1  0.12256102  0.00934588  0.50260258  1
  O  O426  1  0.11918799  0.50529613  0.00563410  1
  O  O427  1  0.11969081  0.50545161  0.50514099  1
  O  O428  1  0.62496701  0.00694488  0.00711742  1
  O  O429  1  0.61820589  -0.00048559  0.50604530  1
  O  O430  1  0.61662642  0.49946582  0.00877525  1
  O  O431  1  0.61958395  0.50581510  0.50540930  1
  O  O432  1  0.36844626  0.37250552  0.11814185  1
  O  O433  1  0.37037325  0.37026529  0.61863727  1
  O  O434  1  0.36897345  0.87226985  0.12002693  1
  O  O435  1  0.37457385  0.86740607  0.61690864  1
  O  O436  1  0.86443429  0.37692879  0.12091913  1
  O  O437  1  0.87443282  0.36178377  0.62378690  1
  O  O438  1  0.87388938  0.86824663  0.11818802  1
  O  O439  1  0.87621653  0.87493656  0.61240516  1
  O  O440  1  0.12989403  0.12972764  0.37978929  1
  O  O441  1  0.12534805  0.13288765  0.88269233  1
  O  O442  1  0.13101041  0.62502194  0.38027665  1
  O  O443  1  0.12603730  0.63158707  0.88302039  1
  O  O444  1  0.62787242  0.13408688  0.37848171  1
  O  O445  1  0.63072887  0.12698569  0.88119732  1
  O  O446  1  0.62994052  0.62970277  0.38054422  1
  O  O447  1  0.62715306  0.63891471  0.87674077  1
