# generated using pymatgen
data_V3Zn3O8
_symmetry_space_group_name_H-M   'P 1'
_cell_length_a   17.09302820
_cell_length_b   17.09071923
_cell_length_c   17.09128952
_cell_angle_alpha   89.99403033
_cell_angle_beta   90.00977658
_cell_angle_gamma   90.00815142
_symmetry_Int_Tables_number   1
_chemical_formula_structural   V3Zn3O8
_chemical_formula_sum   'V96 Zn96 O256'
_cell_volume   4992.91493123
_cell_formula_units_Z   32
loop_
 _symmetry_equiv_pos_site_id
 _symmetry_equiv_pos_as_xyz
  1  'x, y, z'
loop_
 _atom_site_type_symbol
 _atom_site_label
 _atom_site_symmetry_multiplicity
 _atom_site_fract_x
 _atom_site_fract_y
 _atom_site_fract_z
 _atom_site_occupancy
  V  V0  1  0.25029189  0.49914026  0.25000467  1
  V  V1  1  -0.00063493  0.62482820  0.12591803  1
  V  V2  1  0.87502313  0.62566605  0.24997575  1
  V  V3  1  0.25008950  0.87405058  0.12557325  1
  V  V4  1  0.49991698  0.87545231  0.87577619  1
  V  V5  1  0.12411307  0.12497248  0.00011586  1
  V  V6  1  0.87534592  0.24933069  0.12506608  1
  V  V7  1  0.24970145  0.25049319  0.49970868  1
  V  V8  1  0.25064619  0.87465846  0.62519361  1
  V  V9  1  0.62525543  0.75080371  0.87677439  1
  V  V10  1  0.37483957  0.25050847  0.62426001  1
  V  V11  1  0.74895962  0.62561147  0.37502634  1
  V  V12  1  0.12529081  0.25027846  0.87418101  1
  V  V13  1  0.75009011  0.37493000  0.12423478  1
  V  V14  1  0.87510591  0.49881108  0.37511170  1
  V  V15  1  0.87493416  0.25069258  0.62432284  1
  V  V16  1  0.49979258  0.49910012  -0.00167414  1
  V  V17  1  0.00041539  0.50070353  -0.00033877  1
  V  V18  1  0.62407463  0.00104962  0.62534235  1
  V  V19  1  0.62572990  0.24907560  0.37481170  1
  V  V20  1  0.12480661  -0.00039069  0.62487999  1
  V  V21  1  0.62480572  0.87666952  0.75067890  1
  V  V22  1  0.87512616  0.50196573  0.87457563  1
  V  V23  1  0.00103834  0.87442411  0.87456581  1
  V  V24  1  0.12460013  0.87392799  0.25197258  1
  V  V25  1  0.12371462  0.87371481  0.75124488  1
  V  V26  1  0.25016534  0.00017701  0.75030774  1
  V  V27  1  0.75016107  0.25024364  -0.00056636  1
  V  V28  1  0.24932724  -0.00057434  0.25047412  1
  V  V29  1  0.00051602  0.25037724  0.74919173  1
  V  V30  1  -0.00054525  0.12570944  0.12452569  1
  V  V31  1  0.87486162  0.12560057  0.75105639  1
  V  V32  1  0.75083361  0.50060928  0.74949988  1
  V  V33  1  0.37636316  0.62476188  0.24836753  1
  V  V34  1  0.75116825  0.25038633  0.50015061  1
  V  V35  1  0.49907584  0.62467501  0.12513461  1
  V  V36  1  0.50093696  0.12631997  0.62482042  1
  V  V37  1  0.62522160  0.37442801  0.24893856  1
  V  V38  1  0.37466940  0.24968152  0.12445936  1
  V  V39  1  0.62470476  0.62583445  -0.00010282  1
  V  V40  1  0.75011537  0.50036487  0.24977924  1
  V  V41  1  0.12450905  0.24900055  0.37473556  1
  V  V42  1  0.49962618  0.62567772  0.62526463  1
  V  V43  1  -0.00143605  0.62593543  0.62634397  1
  V  V44  1  0.37546384  0.37500323  -0.00142557  1
  V  V45  1  0.37336103  0.87408562  0.00128722  1
  V  V46  1  0.37428569  0.87555898  0.49976474  1
  V  V47  1  0.87415859  -0.00043701  0.37468615  1
  V  V48  1  -0.00009138  0.74968271  0.25248287  1
  V  V49  1  0.12542383  0.49970441  0.62360108  1
  V  V50  1  0.12627105  0.37495343  0.74880524  1
  V  V51  1  0.37682241  0.49927196  0.37512061  1
  V  V52  1  0.49956621  0.12499330  0.12485862  1
  V  V53  1  0.37411139  0.00030500  0.87498186  1
  V  V54  1  0.75059237  0.12559161  0.87433738  1
  V  V55  1  0.62450033  0.25037192  0.87388026  1
  V  V56  1  0.62396619  0.12618172  0.50023662  1
  V  V57  1  0.24970396  0.24999475  -0.00082938  1
  V  V58  1  -0.00090975  -0.00340712  0.50036303  1
  V  V59  1  0.00067711  0.49892433  0.49954703  1
  V  V60  1  0.00045369  0.12421347  0.62527809  1
  V  V61  1  0.37547126  0.75065151  0.62627260  1
  V  V62  1  0.25258600  0.50087750  0.74919957  1
  V  V63  1  0.62522427  -0.00069225  0.12617786  1
  V  V64  1  0.12443423  0.37438748  0.24945756  1
  V  V65  1  0.24909023  0.62557365  0.37708960  1
  V  V66  1  0.75067659  0.87351154  0.62446760  1
  V  V67  1  0.00050597  0.00095301  0.00091093  1
  V  V68  1  0.49918540  0.75027906  0.75020785  1
  V  V69  1  0.62521939  0.50038860  0.12415487  1
  V  V70  1  0.12567377  0.62555953  -0.00004938  1
  V  V71  1  0.49878792  0.87621189  0.37603491  1
  V  V72  1  -0.00109209  0.24856667  0.24965141  1
  V  V73  1  0.50051584  0.37468425  0.87484679  1
  V  V74  1  0.87373713  0.87330094  0.00237140  1
  V  V75  1  0.50035441  0.25096090  0.74964504  1
  V  V76  1  -0.00099304  0.37437873  0.37509119  1
  V  V77  1  0.49930432  -0.00022777  -0.00005027  1
  V  V78  1  0.50031801  0.24989393  0.24963074  1
  V  V79  1  0.24978469  0.12520018  0.37331937  1
  V  V80  1  0.87532462  0.37556733  -0.00051822  1
  V  V81  1  0.00056239  0.37579648  0.87445483  1
  V  V82  1  0.74988505  0.62625602  0.87670358  1
  V  V83  1  0.62585428  0.50024372  0.62512278  1
  V  V84  1  0.25010911  0.62468263  0.87528982  1
  V  V85  1  0.62602918  0.87779828  0.25019019  1
  V  V86  1  0.50033060  0.37611297  0.37448450  1
  V  V87  1  0.24898376  0.74951355  0.00050094  1
  V  V88  1  0.50124807  0.50066855  0.49966264  1
  V  V89  1  0.62477085  0.12456947  -0.00013546  1
  V  V90  1  0.24984198  0.37465821  0.12428168  1
  V  V91  1  0.62609014  0.75008705  0.37681558  1
  V  V92  1  0.37375813  0.12442277  0.24993347  1
  V  V93  1  0.12503214  0.49945204  0.12467050  1
  V  V94  1  0.87483343  0.00097320  0.87501279  1
  V  V95  1  0.25013834  0.12473308  0.87457553  1
  Zn  Zn96  1  0.12388253  0.74977288  0.87409803  1
  Zn  Zn97  1  0.74970910  0.12364014  0.37204713  1
  Zn  Zn98  1  0.12521856  0.12330419  0.49919625  1
  Zn  Zn99  1  0.87363780  0.87157526  0.50037836  1
  Zn  Zn100  1  0.87542342  0.75042626  0.62553054  1
  Zn  Zn101  1  0.37681042  0.50067165  0.87337036  1
  Zn  Zn102  1  0.49830649  0.74991543  0.24812053  1
  Zn  Zn103  1  0.37507330  0.12471982  0.75008678  1
  Zn  Zn104  1  0.87310279  0.12341832  0.24969072  1
  Zn  Zn105  1  0.87103867  0.75101082  0.12669230  1
  Zn  Zn106  1  0.74973595  0.87478429  0.12538193  1
  Zn  Zn107  1  0.62538949  0.37493573  0.74994336  1
  Zn  Zn108  1  0.25072421  0.37603262  0.62332789  1
  Zn  Zn109  1  -0.00115884  0.87152581  0.37788285  1
  Zn  Zn110  1  0.87607546  0.62896416  0.75083470  1
  Zn  Zn111  1  0.74989948  0.00056760  0.75002734  1
  Zn  Zn112  1  0.12500027  0.62686339  0.50014371  1
  Zn  Zn113  1  0.75322595  0.74771011  0.50248876  1
  Zn  Zn114  1  0.74948172  0.75084734  0.00298908  1
  Zn  Zn115  1  0.87520687  0.37418575  0.50084693  1
  Zn  Zn116  1  0.24761652  0.74889490  0.50094317  1
  Zn  Zn117  1  0.37558195  0.37602592  0.49887184  1
  Zn  Zn118  1  0.75192719  0.37645172  0.62513723  1
  Zn  Zn119  1  0.37589255  0.74927167  0.12589489  1
  Zn  Zn120  1  -0.00142800  0.74897948  0.75130020  1
  Zn  Zn121  1  0.62672177  0.62591415  0.49990867  1
  Zn  Zn122  1  0.37549374  0.62545951  0.75155982  1
  Zn  Zn123  1  0.49884908  0.00302667  0.50029469  1
  Zn  Zn124  1  0.12407053  0.00060280  0.12561889  1
  Zn  Zn125  1  0.75260453  0.00201978  0.24909361  1
  Zn  Zn126  1  0.37423569  0.00069075  0.37572515  1
  Zn  Zn127  1  0.12506689  0.74837619  0.37799232  1
  Zn  Zn128  1  0.18583306  0.18712151  0.18682635  1
  Zn  Zn129  1  0.18755391  0.18525813  0.68666276  1
  Zn  Zn130  1  0.18822196  0.68790565  0.18789584  1
  Zn  Zn131  1  0.18532076  0.68818011  0.68711131  1
  Zn  Zn132  1  0.68960375  0.18497388  0.18827004  1
  Zn  Zn133  1  0.68819062  0.18798922  0.68718673  1
  Zn  Zn134  1  0.68736696  0.69098419  0.18724050  1
  Zn  Zn135  1  0.68637119  0.68795299  0.69005619  1
  Zn  Zn136  1  0.31333241  0.31260178  0.31257243  1
  Zn  Zn137  1  0.31380309  0.31362118  0.81125233  1
  Zn  Zn138  1  0.31318737  0.80933105  0.31128108  1
  Zn  Zn139  1  0.31103912  0.81203709  0.81364372  1
  Zn  Zn140  1  0.81274769  0.31185367  0.31263316  1
  Zn  Zn141  1  0.81275797  0.31408443  0.81161570  1
  Zn  Zn142  1  0.81241857  0.81469531  0.31455558  1
  Zn  Zn143  1  0.81380447  0.81089304  0.81054376  1
  Zn  Zn144  1  0.18671245  0.43737027  0.43737746  1
  Zn  Zn145  1  0.18805293  0.43856544  0.93581951  1
  Zn  Zn146  1  0.18727879  0.93746032  0.43673422  1
  Zn  Zn147  1  0.18659241  0.93769890  0.93781391  1
  Zn  Zn148  1  0.68740314  0.43665943  0.43778697  1
  Zn  Zn149  1  0.68680799  0.43794649  0.93630034  1
  Zn  Zn150  1  0.68847912  0.93969997  0.44062853  1
  Zn  Zn151  1  0.68917869  0.93881460  0.93744640  1
  Zn  Zn152  1  0.31050422  0.06045622  0.06356929  1
  Zn  Zn153  1  0.31259875  0.06281791  0.56194588  1
  Zn  Zn154  1  0.31357317  0.56177495  0.06167087  1
  Zn  Zn155  1  0.31539300  0.56296843  0.56262224  1
  Zn  Zn156  1  0.81156229  0.06052926  0.06346564  1
  Zn  Zn157  1  0.81170968  0.06177244  0.56287567  1
  Zn  Zn158  1  0.81273526  0.56402360  0.06266135  1
  Zn  Zn159  1  0.81422000  0.56416477  0.55968307  1
  Zn  Zn160  1  0.43735634  0.43809057  0.18660421  1
  Zn  Zn161  1  0.43800158  0.43573708  0.68676310  1
  Zn  Zn162  1  0.43653791  0.93795499  0.18822742  1
  Zn  Zn163  1  0.43807518  0.93881088  0.68780331  1
  Zn  Zn164  1  0.93710902  0.43696148  0.18794208  1
  Zn  Zn165  1  0.93662755  0.43815634  0.68628004  1
  Zn  Zn166  1  0.93925007  0.93825639  0.18770385  1
  Zn  Zn167  1  0.93613875  0.93748553  0.68907463  1
  Zn  Zn168  1  0.06140597  0.06189118  0.31297534  1
  Zn  Zn169  1  0.06227420  0.06112805  0.81276401  1
  Zn  Zn170  1  0.06303128  0.56158152  0.31307468  1
  Zn  Zn171  1  0.06519887  0.56293593  0.81112214  1
  Zn  Zn172  1  0.56124672  0.06229704  0.31402979  1
  Zn  Zn173  1  0.56185648  0.06356192  0.81062925  1
  Zn  Zn174  1  0.56267975  0.56323065  0.31116334  1
  Zn  Zn175  1  0.56332200  0.56377356  0.81186762  1
  Zn  Zn176  1  0.43694349  0.18846942  0.43694829  1
  Zn  Zn177  1  0.43710509  0.18707902  0.93639776  1
  Zn  Zn178  1  0.43781934  0.68782754  0.43836777  1
  Zn  Zn179  1  0.43523760  0.68712139  0.93763402  1
  Zn  Zn180  1  0.93718994  0.18357795  0.43772462  1
  Zn  Zn181  1  0.93781481  0.18813748  0.93736827  1
  Zn  Zn182  1  0.93499128  0.68672079  0.44144292  1
  Zn  Zn183  1  0.93801411  0.68981249  0.93649511  1
  Zn  Zn184  1  0.06225630  0.31228187  0.06201881  1
  Zn  Zn185  1  0.06338531  0.31338424  0.56189232  1
  Zn  Zn186  1  0.06186695  0.81153159  0.06451071  1
  Zn  Zn187  1  0.06551115  0.80937071  0.56290526  1
  Zn  Zn188  1  0.56280148  0.31203227  0.06147992  1
  Zn  Zn189  1  0.56357800  0.31518689  0.56192301  1
  Zn  Zn190  1  0.56080803  0.81069687  0.06369466  1
  Zn  Zn191  1  0.56314471  0.81365928  0.56225324  1
  O  O192  1  0.11792729  0.12555591  0.11709116  1
  O  O193  1  0.11823232  0.11729560  0.62389962  1
  O  O194  1  0.11980567  0.61786596  0.12076200  1
  O  O195  1  0.11676053  0.61674281  0.62354730  1
  O  O196  1  0.61829746  0.12056031  0.11906535  1
  O  O197  1  0.61986133  0.12145700  0.62013028  1
  O  O198  1  0.62009880  0.61861638  0.12041134  1
  O  O199  1  0.61943394  0.61481006  0.62458631  1
  O  O200  1  0.38286682  0.38134400  0.37402367  1
  O  O201  1  0.38214901  0.37533253  0.88180797  1
  O  O202  1  0.38235701  0.87365855  0.38247342  1
  O  O203  1  0.38010128  0.88101966  0.88138462  1
  O  O204  1  0.88199513  0.38130215  0.37448282  1
  O  O205  1  0.88120081  0.38098707  0.88055220  1
  O  O206  1  0.87831794  0.88548633  0.37881000  1
  O  O207  1  0.88049570  0.88135052  0.88280377  1
  O  O208  1  0.25137462  0.00699727  0.36845984  1
  O  O209  1  0.25495330  0.00530961  0.87041598  1
  O  O210  1  0.25625397  0.50513619  0.36912596  1
  O  O211  1  0.25068263  0.50491811  0.86516049  1
  O  O212  1  0.76148477  0.00157044  0.37643454  1
  O  O213  1  0.75637491  0.00873544  0.87368367  1
  O  O214  1  0.75385596  0.50413862  0.36819851  1
  O  O215  1  0.75407391  0.50537604  0.86821530  1
  O  O216  1  0.24440786  0.49357180  0.12987055  1
  O  O217  1  0.24593596  0.49923453  0.63316740  1
  O  O218  1  0.24641320  0.99298797  0.13221128  1
  O  O219  1  0.24523813  0.99496962  0.63012902  1
  O  O220  1  0.74496499  0.49432274  0.13003810  1
  O  O221  1  0.74317215  0.50162789  0.63238502  1
  O  O222  1  0.74003747  0.99619139  0.12692668  1
  O  O223  1  0.74234964  0.99259368  0.62767177  1
  O  O224  1  0.00570452  0.36915897  0.25443107  1
  O  O225  1  0.00584239  0.37029067  0.75554984  1
  O  O226  1  0.00853504  0.86584354  0.25003109  1
  O  O227  1  0.00716077  0.87719302  0.75685747  1
  O  O228  1  0.50588774  0.36962598  0.25337965  1
  O  O229  1  0.50186184  0.36854624  0.75700234  1
  O  O230  1  0.50709908  0.87469317  0.25967020  1
  O  O231  1  0.50490160  0.87045464  0.75661074  1
  O  O232  1  0.49431113  0.13064893  0.24431297  1
  O  O233  1  0.49754399  0.13320734  0.74333309  1
  O  O234  1  0.49370642  0.62382975  0.24296855  1
  O  O235  1  0.49883595  0.63236857  0.74393699  1
  O  O236  1  0.99942521  0.13198103  0.24248708  1
  O  O237  1  0.99514433  0.13127428  0.74577534  1
  O  O238  1  0.99573111  0.63082541  0.24593015  1
  O  O239  1  0.99958401  0.62292514  0.73917826  1
  O  O240  1  0.36938749  0.25461972  0.00525156  1
  O  O241  1  0.36676861  0.25135848  0.50703786  1
  O  O242  1  0.36737371  0.75724473  0.00164660  1
  O  O243  1  0.37432910  0.76109234  0.50637278  1
  O  O244  1  0.86983863  0.25667005  0.00437366  1
  O  O245  1  0.86660316  0.24875700  0.50489819  1
  O  O246  1  0.87521980  0.76230171  0.00213111  1
  O  O247  1  0.87119596  0.75456089  0.50629405  1
  O  O248  1  0.13386647  0.24775144  0.49410328  1
  O  O249  1  0.13039633  0.24600563  0.99354383  1
  O  O250  1  0.13025726  0.74563764  0.49472145  1
  O  O251  1  0.13097627  0.74254863  1.00048921  1
  O  O252  1  0.63227847  0.24649296  0.49536410  1
  O  O253  1  0.63044788  0.24386984  0.99487172  1
  O  O254  1  0.62593908  0.74974499  0.48662442  1
  O  O255  1  0.62474037  0.74377496  0.99346386  1
  O  O256  1  0.49459469  0.24474274  0.12959957  1
  O  O257  1  0.49352372  0.24694698  0.62863689  1
  O  O258  1  0.49720010  0.73990496  0.12704781  1
  O  O259  1  0.49636960  0.74603881  0.63069274  1
  O  O260  1  0.99451105  0.24639032  0.12932355  1
  O  O261  1  0.99605966  0.24439061  0.63015765  1
  O  O262  1  0.99846693  0.74301179  0.13696923  1
  O  O263  1  1.00147201  0.73650853  0.62620481  1
  O  O264  1  0.00483842  0.25381001  0.37012396  1
  O  O265  1  0.00555492  0.25607344  0.86926753  1
  O  O266  1  0.00154373  0.74859292  0.36312739  1
  O  O267  1  0.00397687  0.75892787  0.87325670  1
  O  O268  1  0.50550418  0.25593252  0.36845963  1
  O  O269  1  0.50507792  0.25399308  0.87006789  1
  O  O270  1  0.50790382  0.76014144  0.37409990  1
  O  O271  1  0.50468817  0.75650547  0.87076690  1
  O  O272  1  0.24938141  0.13499402  0.49340115  1
  O  O273  1  0.24456511  0.13076431  0.99492759  1
  O  O274  1  0.25121033  0.62406074  0.48798686  1
  O  O275  1  0.24465210  0.62849211  0.99569756  1
  O  O276  1  0.74353479  0.13676288  0.49989981  1
  O  O277  1  0.74439105  0.13112297  0.99466621  1
  O  O278  1  0.74622860  0.62663928  0.49028413  1
  O  O279  1  0.74238537  0.62496882  0.99402797  1
  O  O280  1  0.25434007  0.36939226  0.00467114  1
  O  O281  1  0.25219245  0.36227982  0.49996802  1
  O  O282  1  0.25372297  0.87032699  0.00542373  1
  O  O283  1  0.25948363  0.87466518  0.50527849  1
  O  O284  1  0.75538925  0.37037994  0.00456949  1
  O  O285  1  0.75101565  0.36185721  0.50088361  1
  O  O286  1  0.76223256  0.87503409  -0.00021075  1
  O  O287  1  0.74830011  0.87330340  0.51360608  1
  O  O288  1  0.12999742  0.49325989  0.24382590  1
  O  O289  1  0.13411593  0.49393850  0.74455174  1
  O  O290  1  0.12945376  0.98993489  0.24921821  1
  O  O291  1  0.13059778  0.99451933  0.74464638  1
  O  O292  1  0.63072596  0.49383031  0.24396071  1
  O  O293  1  0.63356184  0.49970566  0.74224526  1
  O  O294  1  0.62269321  0.99163742  0.24542662  1
  O  O295  1  0.62564070  0.99428939  0.74411462  1
  O  O296  1  0.36782495  0.00706859  0.25164369  1
  O  O297  1  0.36836203  0.00124607  0.75682896  1
  O  O298  1  0.36932659  0.50384793  0.25496951  1
  O  O299  1  0.36359540  0.50004785  0.74968829  1
  O  O300  1  0.87613655  -0.00019726  0.26138678  1
  O  O301  1  0.87432163  0.00875726  0.75776474  1
  O  O302  1  0.86939001  0.50503822  0.25465867  1
  O  O303  1  0.86592011  0.50126062  0.75646235  1
  O  O304  1  0.11930984  0.36919740  0.36796978  1
  O  O305  1  0.11967510  0.36955291  0.86969293  1
  O  O306  1  0.12368330  0.87207793  0.36260344  1
  O  O307  1  0.11854274  0.87603923  0.86881037  1
  O  O308  1  0.61998801  0.36954962  0.36753507  1
  O  O309  1  0.61840043  0.36723211  0.87539867  1
  O  O310  1  0.61779457  0.87058398  0.37002847  1
  O  O311  1  0.61887285  0.87152463  0.87154717  1
  O  O312  1  0.37967679  0.13058730  0.12935565  1
  O  O313  1  0.38061039  0.13607816  0.62496330  1
  O  O314  1  0.38141329  0.62307143  0.13099189  1
  O  O315  1  0.38204414  0.63285937  0.62745521  1
  O  O316  1  0.88167489  0.13238677  0.12346356  1
  O  O317  1  0.88068067  0.13048514  0.63144757  1
  O  O318  1  0.88213960  0.62508065  0.13228034  1
  O  O319  1  0.88739938  0.62258771  0.62706667  1
  O  O320  1  0.25485220  0.25522928  0.11911958  1
  O  O321  1  0.25742667  0.24913762  0.61707409  1
  O  O322  1  0.25177949  0.75605075  0.11874414  1
  O  O323  1  0.25731324  0.75735258  0.62491630  1
  O  O324  1  0.75460766  0.25587524  0.11847178  1
  O  O325  1  0.75511269  0.25189066  0.61638982  1
  O  O326  1  0.75306460  0.75621179  0.12146764  1
  O  O327  1  0.74639302  0.76110993  0.62503411  1
  O  O328  1  0.24518518  0.24575395  0.38084297  1
  O  O329  1  0.24490845  0.24550166  0.87970464  1
  O  O330  1  0.25039945  0.73577488  0.37501380  1
  O  O331  1  0.24731093  0.74298673  0.88206830  1
  O  O332  1  0.74425290  0.24925621  0.38357391  1
  O  O333  1  0.74545267  0.24578770  0.88057556  1
  O  O334  1  0.74025157  0.74503035  0.37447695  1
  O  O335  1  0.74250764  0.74374009  0.87677443  1
  O  O336  1  0.00519233  0.12147804  0.00412883  1
  O  O337  1  0.00223377  0.11391237  0.50706213  1
  O  O338  1  0.00506064  0.61927870  0.00562355  1
  O  O339  1  0.00174315  0.61604195  0.50824053  1
  O  O340  1  0.50488752  0.11989892  0.00509111  1
  O  O341  1  0.50579102  0.12626533  0.50667384  1
  O  O342  1  0.50514973  0.61826858  0.00429013  1
  O  O343  1  0.50311737  0.61866290  0.50652193  1
  O  O344  1  0.50000812  0.38200561  0.49147318  1
  O  O345  1  0.49496153  0.37907563  0.99522676  1
  O  O346  1  0.49154041  0.87626346  0.49248001  1
  O  O347  1  0.49422407  0.88093123  0.99507714  1
  O  O348  1  0.99906393  0.38008895  0.49198865  1
  O  O349  1  0.99540703  0.38073033  0.99445344  1
  O  O350  1  0.99995042  0.88676937  0.50129083  1
  O  O351  1  0.99348709  0.88093830  0.99599685  1
  O  O352  1  0.49671937  0.49553812  0.37915142  1
  O  O353  1  0.50011005  0.49358912  0.88058032  1
  O  O354  1  0.49715917  0.98785729  0.37796223  1
  O  O355  1  0.49461762  0.99544771  0.88065955  1
  O  O356  1  0.99488678  0.49431619  0.37861566  1
  O  O357  1  0.99599886  0.49488409  0.88027571  1
  O  O358  1  0.99390142  0.99853655  0.38505069  1
  O  O359  1  0.99395901  0.99574957  0.88166533  1
  O  O360  1  0.00210933  0.00797557  0.11830630  1
  O  O361  1  0.00437660  0.00439242  0.61862707  1
  O  O362  1  0.00542667  0.50410975  0.11969997  1
  O  O363  1  0.00568849  0.50524667  0.61987109  1
  O  O364  1  0.50424538  0.00625327  0.11930721  1
  O  O365  1  0.50567980  0.00793000  0.62406933  1
  O  O366  1  0.50667115  0.50343074  0.11852845  1
  O  O367  1  0.50732198  0.50472849  0.62126825  1
  O  O368  1  0.24453586  0.37906830  0.24398979  1
  O  O369  1  0.24445709  0.38417354  0.74924895  1
  O  O370  1  0.24320700  0.87846207  0.24630755  1
  O  O371  1  0.24466445  0.88163454  0.74512974  1
  O  O372  1  0.74462246  0.37989638  0.24360988  1
  O  O373  1  0.74754123  0.38847678  0.74969316  1
  O  O374  1  0.73562147  0.87855962  0.25098777  1
  O  O375  1  0.74204907  0.87764348  0.74267978  1
  O  O376  1  0.25428805  0.12056609  0.25352428  1
  O  O377  1  0.25102486  0.11826048  0.75712876  1
  O  O378  1  0.25543170  0.61741852  0.25632648  1
  O  O379  1  0.24924839  0.61489971  0.75519458  1
  O  O380  1  0.75431275  0.12063964  0.25388875  1
  O  O381  1  0.75711805  0.12563470  0.75706757  1
  O  O382  1  0.75485168  0.61916888  0.25436719  1
  O  O383  1  0.74971241  0.61418624  0.75701987  1
  O  O384  1  0.36875243  0.12499695  0.36729810  1
  O  O385  1  0.36787506  0.11850593  0.87446796  1
  O  O386  1  0.36913116  0.61843212  0.36932869  1
  O  O387  1  0.36629786  0.62135698  0.87198699  1
  O  O388  1  0.87450314  0.11261730  0.37298977  1
  O  O389  1  0.87026588  0.12153517  0.87095783  1
  O  O390  1  0.86906513  0.61829441  0.36849782  1
  O  O391  1  0.86888159  0.61798262  0.87571265  1
  O  O392  1  0.13038233  0.37948963  0.12939197  1
  O  O393  1  0.12723316  0.38063141  0.63197001  1
  O  O394  1  0.13033118  0.87565390  0.13669475  1
  O  O395  1  0.13147381  0.88106279  0.63101997  1
  O  O396  1  0.63060650  0.37996709  0.12900863  1
  O  O397  1  0.62696859  0.38907412  0.62757388  1
  O  O398  1  0.62069063  0.88060792  0.13567764  1
  O  O399  1  0.62985485  0.88100251  0.63105085  1
  O  O400  1  0.11942469  0.25588007  0.25460738  1
  O  O401  1  0.12022329  0.25450908  0.75493821  1
  O  O402  1  0.11698403  0.75659452  0.25145845  1
  O  O403  1  0.12264296  0.76001935  0.75247712  1
  O  O404  1  0.61956013  0.25522502  0.25366389  1
  O  O405  1  0.61918411  0.25232979  0.75606291  1
  O  O406  1  0.62177255  0.76007935  0.26025922  1
  O  O407  1  0.61792479  0.75650580  0.75745194  1
  O  O408  1  0.38028951  0.24501016  0.24337593  1
  O  O409  1  0.37985258  0.24840980  0.73998465  1
  O  O410  1  0.37824299  0.74036819  0.24678117  1
  O  O411  1  0.38194849  0.75142745  0.74373801  1
  O  O412  1  0.88177995  0.25010139  0.24234834  1
  O  O413  1  0.88142190  0.24556859  0.74561598  1
  O  O414  1  0.88399665  0.74510104  0.25062646  1
  O  O415  1  0.87975771  0.74602345  0.74439135  1
  O  O416  1  0.38309188  0.49726771  0.49366971  1
  O  O417  1  0.38171603  0.49167690  0.99856609  1
  O  O418  1  0.37674869  0.98793126  0.49867716  1
  O  O419  1  0.37978314  0.99465806  0.99485550  1
  O  O420  1  0.88127782  0.49643232  0.49178143  1
  O  O421  1  0.88079266  0.49443703  0.99504494  1
  O  O422  1  0.88431905  0.99912820  0.49418494  1
  O  O423  1  0.88080245  0.99326261  0.99456551  1
  O  O424  1  0.11847587  0.00760709  0.00114924  1
  O  O425  1  0.11669652  0.00049994  0.50583455  1
  O  O426  1  0.11969901  0.50423689  0.00564550  1
  O  O427  1  0.11873055  0.50007765  0.50626148  1
  O  O428  1  0.61836148  0.00531502  0.00484385  1
  O  O429  1  0.62202559  0.00863926  0.50698189  1
  O  O430  1  0.61973748  0.50501046  0.00527390  1
  O  O431  1  0.62046323  0.50146740  0.50884606  1
  O  O432  1  0.36942059  0.36901824  0.11944838  1
  O  O433  1  0.37382166  0.36172383  0.62158841  1
  O  O434  1  0.36853599  0.87430192  0.11870050  1
  O  O435  1  0.37134871  0.87110328  0.61761379  1
  O  O436  1  0.86951196  0.37039613  0.11876617  1
  O  O437  1  0.87288489  0.36647504  0.62211883  1
  O  O438  1  0.87505240  0.87595050  0.11363120  1
  O  O439  1  0.86146571  0.87686340  0.62563953  1
  O  O440  1  0.13167934  0.13209546  0.37537248  1
  O  O441  1  0.12996917  0.13119820  0.88004857  1
  O  O442  1  0.13825070  0.62263753  0.37473558  1
  O  O443  1  0.13198927  0.62482161  0.88300394  1
  O  O444  1  0.62412052  0.13239568  0.38188777  1
  O  O445  1  0.62978244  0.13041531  0.88070226  1
  O  O446  1  0.62953377  0.63505565  0.37266896  1
  O  O447  1  0.62951769  0.63096646  0.88097755  1
