# generated using pymatgen
data_V3Zn3O8
_symmetry_space_group_name_H-M   'P 1'
_cell_length_a   17.08851836
_cell_length_b   17.08970885
_cell_length_c   17.09046090
_cell_angle_alpha   89.98396631
_cell_angle_beta   90.00562800
_cell_angle_gamma   90.00913526
_symmetry_Int_Tables_number   1
_chemical_formula_structural   V3Zn3O8
_chemical_formula_sum   'V96 Zn96 O256'
_cell_volume   4991.06037657
_cell_formula_units_Z   32
loop_
 _symmetry_equiv_pos_site_id
 _symmetry_equiv_pos_as_xyz
  1  'x, y, z'
loop_
 _atom_site_type_symbol
 _atom_site_label
 _atom_site_symmetry_multiplicity
 _atom_site_fract_x
 _atom_site_fract_y
 _atom_site_fract_z
 _atom_site_occupancy
  V  V0  1  0.75118453  0.37513519  0.62457542  1
  V  V1  1  0.00026936  0.62459405  0.12345424  1
  V  V2  1  0.74764652  0.87615269  0.62519792  1
  V  V3  1  0.24999632  0.87509582  0.12476921  1
  V  V4  1  -0.00023140  0.50040897  -0.00085949  1
  V  V5  1  0.87414575  0.00081852  0.87495508  1
  V  V6  1  0.25006394  0.87499052  0.62553003  1
  V  V7  1  0.12541697  0.75002139  0.37436021  1
  V  V8  1  0.62415199  0.87441765  0.24921395  1
  V  V9  1  0.12434128  0.62534798  -0.00084802  1
  V  V10  1  0.49973278  0.50027947  0.00003662  1
  V  V11  1  0.74963225  0.62433995  0.37392243  1
  V  V12  1  0.74876584  -0.00076127  0.24929668  1
  V  V13  1  0.62298249  0.00068674  0.12349980  1
  V  V14  1  0.50178497  0.00081808  0.50301004  1
  V  V15  1  0.25111942  0.75079889  0.50025216  1
  V  V16  1  0.49972069  0.62554438  0.12487444  1
  V  V17  1  0.37433821  0.62567991  0.24989494  1
  V  V18  1  0.50139351  0.62477899  0.62440709  1
  V  V19  1  0.12457417  0.87524164  0.74975820  1
  V  V20  1  0.25102416  0.12420666  0.87440416  1
  V  V21  1  -0.00036002  0.12493615  0.12546152  1
  V  V22  1  0.75037667  0.74996515  -0.00098630  1
  V  V23  1  0.37552222  0.62542813  0.75076568  1
  V  V24  1  0.12534606  0.62427251  0.49964074  1
  V  V25  1  0.00045030  0.24998482  0.25150265  1
  V  V26  1  0.62518955  0.49978324  0.62483223  1
  V  V27  1  0.87463569  0.49877342  0.37420744  1
  V  V28  1  0.87583583  0.37567443  -0.00064897  1
  V  V29  1  0.87505703  0.12420531  0.24977668  1
  V  V30  1  0.00075427  0.00041455  0.50097394  1
  V  V31  1  0.74865548  0.12467186  0.37506753  1
  V  V32  1  0.25031246  0.25081772  0.00082658  1
  V  V33  1  0.37609693  0.24899322  0.62617182  1
  V  V34  1  0.24992937  0.00121331  0.25193110  1
  V  V35  1  0.12541531  0.00032535  0.12586920  1
  V  V36  1  0.37411229  0.75114845  0.12433877  1
  V  V37  1  0.62575727  0.62574684  -0.00082217  1
  V  V38  1  0.49876356  0.37591750  0.37623748  1
  V  V39  1  0.87456676  0.75053958  0.12331034  1
  V  V40  1  0.62485355  0.49956964  0.12421630  1
  V  V41  1  -0.00019935  0.74933187  0.24927588  1
  V  V42  1  0.49918846  0.87780456  0.87557531  1
  V  V43  1  0.75049609  0.49918144  0.24921370  1
  V  V44  1  0.74945256  0.74793385  0.49745506  1
  V  V45  1  0.62591102  0.24976687  0.87579282  1
  V  V46  1  -0.00061888  0.87505658  0.87419983  1
  V  V47  1  0.37477060  0.37643745  0.00065991  1
  V  V48  1  0.37624748  0.50112900  0.87630348  1
  V  V49  1  -0.00048204  0.87474457  0.37438853  1
  V  V50  1  0.87456761  0.87455079  -0.00039740  1
  V  V51  1  0.37460144  0.87532386  0.50090398  1
  V  V52  1  0.00009449  0.74961100  0.74867156  1
  V  V53  1  0.25069761  0.62538920  0.37513123  1
  V  V54  1  0.87562396  0.12524915  0.74986382  1
  V  V55  1  0.87506877  0.87341243  0.49805964  1
  V  V56  1  0.49827696  0.12502373  0.12589061  1
  V  V57  1  0.50056701  0.24877673  0.75138768  1
  V  V58  1  0.12298742  0.00110412  0.62461300  1
  V  V59  1  0.62602150  0.37464802  0.75078676  1
  V  V60  1  0.25222087  0.37487400  0.62397592  1
  V  V61  1  -0.00004572  0.00015012  0.00012712  1
  V  V62  1  0.25014507  0.00098798  0.75175903  1
  V  V63  1  0.62444972  0.24845939  0.37677429  1
  V  V64  1  0.12511712  0.37487121  0.24964771  1
  V  V65  1  0.00113494  0.62441344  0.62334107  1
  V  V66  1  0.12467120  0.87527284  0.24993751  1
  V  V67  1  0.87504688  0.49971338  0.87434005  1
  V  V68  1  0.37588328  0.49951963  0.37517878  1
  V  V69  1  0.87501229  0.74870271  0.62319726  1
  V  V70  1  0.12534264  0.25133335  0.87548529  1
  V  V71  1  0.62481886  0.37458502  0.25047172  1
  V  V72  1  0.75053049  0.12513828  0.87642106  1
  V  V73  1  0.62517547  0.74875580  0.37285627  1
  V  V74  1  0.87556237  0.62443462  0.24872620  1
  V  V75  1  -0.00024333  0.37370322  0.37475378  1
  V  V76  1  0.75095574  0.50057799  0.75009099  1
  V  V77  1  0.24855103  0.50043866  0.24930154  1
  V  V78  1  0.12519960  0.12615423  0.00047483  1
  V  V79  1  0.87510845  0.37413535  0.50017228  1
  V  V80  1  0.24913279  0.75065962  0.00003957  1
  V  V81  1  0.12468542  0.37574524  0.75155070  1
  V  V82  1  0.12535353  0.75002623  0.87464926  1
  V  V83  1  0.87642699  0.24971782  0.62562110  1
  V  V84  1  0.37353179  0.00237075  0.37560497  1
  V  V85  1  0.50123000  0.75103149  0.74996204  1
  V  V86  1  0.87410666  0.24949607  0.12510711  1
  V  V87  1  0.25189835  0.50159952  0.75118172  1
  V  V88  1  0.74954817  0.37424183  0.12480715  1
  V  V89  1  0.74920727  0.24942066  0.00031927  1
  V  V90  1  0.87460780  -0.00091825  0.37381965  1
  V  V91  1  0.50017475  0.75012302  0.25016952  1
  V  V92  1  0.37406414  0.25039456  0.12715192  1
  V  V93  1  0.62543938  0.75076086  0.87440956  1
  V  V94  1  0.00063248  0.50034016  0.49955857  1
  V  V95  1  0.87524212  0.62380025  0.74908142  1
  Zn  Zn96  1  0.62649756  0.12327466  0.50167435  1
  Zn  Zn97  1  0.12699959  0.50033519  0.62521680  1
  Zn  Zn98  1  0.12586733  0.50019371  0.12294641  1
  Zn  Zn99  1  0.62423295  0.62266981  0.49764722  1
  Zn  Zn100  1  0.75017802  0.24738500  0.50058537  1
  Zn  Zn101  1  0.37453629  0.87731411  -0.00034324  1
  Zn  Zn102  1  0.74984138  0.62574852  0.87352898  1
  Zn  Zn103  1  0.12794025  0.24776962  0.38021288  1
  Zn  Zn104  1  0.37594412  0.75022429  0.62514438  1
  Zn  Zn105  1  0.24613624  0.12793147  0.37887747  1
  Zn  Zn106  1  0.00087570  0.25069439  0.75231653  1
  Zn  Zn107  1  0.37720529  0.12278007  0.75222411  1
  Zn  Zn108  1  0.62362992  0.12503295  -0.00086943  1
  Zn  Zn109  1  0.25054386  0.62697981  0.87475433  1
  Zn  Zn110  1  -0.00021044  0.37450664  0.87514611  1
  Zn  Zn111  1  0.24854743  0.24615625  0.50017272  1
  Zn  Zn112  1  0.49941047  0.50031982  0.50099327  1
  Zn  Zn113  1  0.50117674  0.37477233  0.87713371  1
  Zn  Zn114  1  0.00076221  0.12532267  0.62454680  1
  Zn  Zn115  1  0.49742268  0.24876352  0.25199598  1
  Zn  Zn116  1  0.37594239  0.00155104  0.87647008  1
  Zn  Zn117  1  0.12461078  0.12849802  0.50181588  1
  Zn  Zn118  1  0.37371648  0.37514453  0.49914702  1
  Zn  Zn119  1  0.50032849  0.87438106  0.37575267  1
  Zn  Zn120  1  0.49668783  0.00062079  -0.00135009  1
  Zn  Zn121  1  0.50413742  0.12555950  0.62492215  1
  Zn  Zn122  1  0.37131787  0.12666605  0.25252952  1
  Zn  Zn123  1  0.74931528  0.87544521  0.12366664  1
  Zn  Zn124  1  0.74870091  -0.00147471  0.74968331  1
  Zn  Zn125  1  0.24875862  0.37712978  0.12492578  1
  Zn  Zn126  1  0.62513761  0.87805958  0.74889673  1
  Zn  Zn127  1  0.62664587  0.00457932  0.62609994  1
  Zn  Zn128  1  0.18849169  0.18721727  0.19048469  1
  Zn  Zn129  1  0.18723234  0.18680778  0.68755706  1
  Zn  Zn130  1  0.18691933  0.68712681  0.18595926  1
  Zn  Zn131  1  0.18831128  0.68761777  0.68629912  1
  Zn  Zn132  1  0.68598228  0.18671072  0.18986021  1
  Zn  Zn133  1  0.68812311  0.18614474  0.68723666  1
  Zn  Zn134  1  0.68827931  0.68747736  0.18575429  1
  Zn  Zn135  1  0.68674998  0.68854867  0.68759486  1
  Zn  Zn136  1  0.30961350  0.31199389  0.31337573  1
  Zn  Zn137  1  0.31334942  0.31365600  0.81421389  1
  Zn  Zn138  1  0.31355895  0.81496891  0.31307374  1
  Zn  Zn139  1  0.31438615  0.81263238  0.81219269  1
  Zn  Zn140  1  0.81154045  0.31102800  0.31290833  1
  Zn  Zn141  1  0.81210934  0.31248600  0.81299794  1
  Zn  Zn142  1  0.81076620  0.81257510  0.30982549  1
  Zn  Zn143  1  0.81243779  0.81116246  0.81148923  1
  Zn  Zn144  1  0.18729604  0.43665503  0.43700500  1
  Zn  Zn145  1  0.18965131  0.43936143  0.93712969  1
  Zn  Zn146  1  0.18728365  0.93926878  0.43916127  1
  Zn  Zn147  1  0.18751515  0.93761158  0.93773350  1
  Zn  Zn148  1  0.68680803  0.43685458  0.43983139  1
  Zn  Zn149  1  0.68843577  0.43711686  0.93619523  1
  Zn  Zn150  1  0.68624994  0.93530263  0.43689348  1
  Zn  Zn151  1  0.68658118  0.93743621  0.93771797  1
  Zn  Zn152  1  0.31357024  0.06141926  0.06039379  1
  Zn  Zn153  1  0.31164011  0.06486368  0.56441020  1
  Zn  Zn154  1  0.31058395  0.56380608  0.06284229  1
  Zn  Zn155  1  0.31519584  0.56101684  0.56186283  1
  Zn  Zn156  1  0.81099413  0.06226393  0.06218283  1
  Zn  Zn157  1  0.81330463  0.06239489  0.55976533  1
  Zn  Zn158  1  0.81212623  0.56304357  0.06100039  1
  Zn  Zn159  1  0.81239994  0.56170659  0.56142858  1
  Zn  Zn160  1  0.43708548  0.43722090  0.18897751  1
  Zn  Zn161  1  0.43865919  0.43707692  0.69033965  1
  Zn  Zn162  1  0.43670625  0.93682031  0.18934383  1
  Zn  Zn163  1  0.43600111  0.93780146  0.68887105  1
  Zn  Zn164  1  0.93878836  0.43740418  0.18547061  1
  Zn  Zn165  1  0.93927365  0.43836085  0.68643907  1
  Zn  Zn166  1  0.93738121  0.93676064  0.18650462  1
  Zn  Zn167  1  0.93513315  0.93741454  0.68656526  1
  Zn  Zn168  1  0.06371912  0.06382642  0.31545222  1
  Zn  Zn169  1  0.06291468  0.06349262  0.81248564  1
  Zn  Zn170  1  0.06291162  0.56132365  0.31264296  1
  Zn  Zn171  1  0.06286357  0.56173164  0.81321584  1
  Zn  Zn172  1  0.55909001  0.06220741  0.31221784  1
  Zn  Zn173  1  0.56730968  0.06103996  0.80970686  1
  Zn  Zn174  1  0.56236767  0.56218825  0.31135107  1
  Zn  Zn175  1  0.56301971  0.56287360  0.81289451  1
  Zn  Zn176  1  0.43623100  0.18683125  0.44167469  1
  Zn  Zn177  1  0.43702164  0.18707228  0.93869982  1
  Zn  Zn178  1  0.43824863  0.68771448  0.43811613  1
  Zn  Zn179  1  0.43702207  0.68967714  0.93708423  1
  Zn  Zn180  1  0.93897481  0.18581556  0.43845843  1
  Zn  Zn181  1  0.93897046  0.18938858  0.93674208  1
  Zn  Zn182  1  0.93703842  0.68647496  0.43616353  1
  Zn  Zn183  1  0.93737159  0.68659845  0.93549471  1
  Zn  Zn184  1  0.06166461  0.31337866  0.06355292  1
  Zn  Zn185  1  0.06311810  0.31261887  0.56374004  1
  Zn  Zn186  1  0.06240276  0.81234078  0.06189362  1
  Zn  Zn187  1  0.06372744  0.81325247  0.56189942  1
  Zn  Zn188  1  0.56084228  0.31183734  0.06172764  1
  Zn  Zn189  1  0.56241817  0.31361943  0.56210081  1
  Zn  Zn190  1  0.56216103  0.81336573  0.06068566  1
  Zn  Zn191  1  0.56307841  0.81160514  0.55940286  1
  O  O192  1  0.11906391  0.12012479  0.12022362  1
  O  O193  1  0.11966502  0.11552734  0.62679867  1
  O  O194  1  0.11690196  0.62490658  0.11797080  1
  O  O195  1  0.11891350  0.62371881  0.61751034  1
  O  O196  1  0.61606407  0.11724792  0.12668354  1
  O  O197  1  0.62323816  0.12364078  0.61885652  1
  O  O198  1  0.61946265  0.61900644  0.11997017  1
  O  O199  1  0.61578421  0.61917690  0.62526759  1
  O  O200  1  0.38450499  0.38049295  0.37324894  1
  O  O201  1  0.37719981  0.38235807  0.88319071  1
  O  O202  1  0.37604127  0.88510005  0.38187288  1
  O  O203  1  0.38760228  0.87531202  0.87616362  1
  O  O204  1  0.87930056  0.38003198  0.37932526  1
  O  O205  1  0.87582865  0.38108804  0.88173810  1
  O  O206  1  0.87976715  0.87901950  0.37805207  1
  O  O207  1  0.88067903  0.88015469  0.87954827  1
  O  O208  1  0.25939922  -0.00223416  0.36998252  1
  O  O209  1  0.24736804  0.00659097  0.86889775  1
  O  O210  1  0.25554123  0.50587152  0.36925667  1
  O  O211  1  0.25842696  0.50371340  0.86893918  1
  O  O212  1  0.75523924  0.00395650  0.36863144  1
  O  O213  1  0.75761578  0.00656111  0.87553696  1
  O  O214  1  0.75520528  0.50354256  0.36853271  1
  O  O215  1  0.75670186  0.50193883  0.86761068  1
  O  O216  1  0.24690500  0.49850968  0.13370512  1
  O  O217  1  0.25115006  0.49099825  0.63232176  1
  O  O218  1  0.24362901  0.99507823  0.13069869  1
  O  O219  1  0.24340939  0.99341433  0.63213519  1
  O  O220  1  0.74498716  0.49405774  0.12941299  1
  O  O221  1  0.74608444  0.49454869  0.63066049  1
  O  O222  1  0.73926351  1.00107361  0.13082330  1
  O  O223  1  0.75291602  0.98613623  0.62277825  1
  O  O224  1  0.00567596  0.37055992  0.25450517  1
  O  O225  1  0.01355279  0.37592218  0.75072031  1
  O  O226  1  0.00488793  0.86898065  0.25467402  1
  O  O227  1  0.00376845  0.86905830  0.75470105  1
  O  O228  1  0.50643924  0.37402111  0.26023309  1
  O  O229  1  0.50757101  0.36500917  0.75264241  1
  O  O230  1  0.50621593  0.86725118  0.25157894  1
  O  O231  1  0.50154717  0.86882188  0.75799422  1
  O  O232  1  0.49476984  0.12701800  0.23814816  1
  O  O233  1  0.50087280  0.13902827  0.74894117  1
  O  O234  1  0.49410349  0.62981597  0.24381959  1
  O  O235  1  0.49608243  0.62986014  0.74199276  1
  O  O236  1  0.99390108  0.12918522  0.24420376  1
  O  O237  1  0.98629930  0.12707505  0.74974983  1
  O  O238  1  0.99473646  0.63002046  0.24518265  1
  O  O239  1  0.99558460  0.63000133  0.74303091  1
  O  O240  1  0.37024298  0.25594726  0.00863601  1
  O  O241  1  0.37551945  0.25509349  0.51488549  1
  O  O242  1  0.36752742  0.75134688  0.00749503  1
  O  O243  1  0.36804036  0.75654295  0.50010228  1
  O  O244  1  0.86973737  0.25525220  0.00617958  1
  O  O245  1  0.87462939  0.25551199  0.50936459  1
  O  O246  1  0.87114357  0.75503737  0.00365728  1
  O  O247  1  0.86998875  0.75394890  0.50308373  1
  O  O248  1  0.12752300  0.24839919  0.49995526  1
  O  O249  1  0.13013357  0.24536875  0.99684773  1
  O  O250  1  0.13041281  0.74466935  0.49305776  1
  O  O251  1  0.12848442  0.74521175  0.99413178  1
  O  O252  1  0.62645827  0.25062751  0.48639696  1
  O  O253  1  0.63202237  0.24957260  0.99462901  1
  O  O254  1  0.63215610  0.74667610  0.49076916  1
  O  O255  1  0.63057643  0.74463263  0.99536340  1
  O  O256  1  0.49129397  0.24282787  0.12648177  1
  O  O257  1  0.49299557  0.25356175  0.63446303  1
  O  O258  1  0.49489139  0.74433868  0.13004613  1
  O  O259  1  0.50062195  0.74048035  0.63033401  1
  O  O260  1  0.99329353  0.24389394  0.13057930  1
  O  O261  1  0.98630200  0.24992904  0.62930445  1
  O  O262  1  0.99430058  0.74485739  0.13002586  1
  O  O263  1  0.99479943  0.74485372  0.62875863  1
  O  O264  1  -0.00217512  0.25748963  0.36745362  1
  O  O265  1  0.00902701  0.25438061  0.87337635  1
  O  O266  1  0.00515660  0.75455183  0.36878348  1
  O  O267  1  0.00454720  0.75593909  0.86830122  1
  O  O268  1  0.50612955  0.25775582  0.37372569  1
  O  O269  1  0.50626402  0.25149402  0.86760344  1
  O  O270  1  0.50627578  0.74964809  0.36744636  1
  O  O271  1  0.50586285  0.75739578  0.86998790  1
  O  O272  1  0.24508410  0.12706860  0.49944286  1
  O  O273  1  0.24296868  0.13094952  0.99566586  1
  O  O274  1  0.24561840  0.62980961  0.49436552  1
  O  O275  1  0.24231874  0.63300383  0.99886524  1
  O  O276  1  0.74844998  0.12681465  0.48958077  1
  O  O277  1  0.74960668  0.13263104  0.99432663  1
  O  O278  1  0.75028995  0.63034533  0.49167176  1
  O  O279  1  0.74343510  0.63146662  0.99803723  1
  O  O280  1  0.25609947  0.36908347  0.00324323  1
  O  O281  1  0.25027928  0.37555228  0.51488877  1
  O  O282  1  0.24807772  0.86802069  0.00785054  1
  O  O283  1  0.25419043  0.86977612  0.50574409  1
  O  O284  1  0.75586066  0.36964951  0.00639569  1
  O  O285  1  0.75802777  0.37310774  0.50682287  1
  O  O286  1  0.75724304  0.86875901  0.00170035  1
  O  O287  1  0.75650290  0.86768994  0.50461339  1
  O  O288  1  0.12940963  0.49143810  0.24929282  1
  O  O289  1  0.13237785  0.49180920  0.74978210  1
  O  O290  1  0.12850204  0.99366142  0.24468983  1
  O  O291  1  0.12836151  0.99313564  0.74539359  1
  O  O292  1  0.63123228  0.49469052  0.24338239  1
  O  O293  1  0.63103991  0.49445153  0.74527876  1
  O  O294  1  0.62852140  0.99518094  0.24272350  1
  O  O295  1  0.63213888  0.99540018  0.74329043  1
  O  O296  1  0.36886673  -0.00123195  0.26027103  1
  O  O297  1  0.36534208  0.00268611  0.75370485  1
  O  O298  1  0.36923414  0.50664530  0.25510564  1
  O  O299  1  0.37162028  0.50542640  0.75704625  1
  O  O300  1  0.87004694  0.00448698  0.25401751  1
  O  O301  1  0.87337351  0.00872344  0.75619154  1
  O  O302  1  0.87007500  0.50449527  0.25411908  1
  O  O303  1  0.87055735  0.50433021  0.75384045  1
  O  O304  1  0.11776562  0.37546867  0.36411857  1
  O  O305  1  0.12739467  0.37018884  0.86566043  1
  O  O306  1  0.11926077  0.86941412  0.36938827  1
  O  O307  1  0.11780389  0.87004833  0.86937039  1
  O  O308  1  0.61878559  0.36866207  0.37012761  1
  O  O309  1  0.62505202  0.36790500  0.86844440  1
  O  O310  1  0.62412907  0.86650535  0.36660155  1
  O  O311  1  0.61662445  0.86859432  0.87390087  1
  O  O312  1  0.38158627  0.13424932  0.12464368  1
  O  O313  1  0.37825890  0.13839337  0.63079411  1
  O  O314  1  0.38029573  0.63105771  0.13083372  1
  O  O315  1  0.38596010  0.62542856  0.63111022  1
  O  O316  1  0.87998039  0.12953141  0.13018434  1
  O  O317  1  0.87357278  0.13282129  0.63343087  1
  O  O318  1  0.88019313  0.63048951  0.12976803  1
  O  O319  1  0.88122317  0.62972672  0.62868415  1
  O  O320  1  0.25937838  0.25010987  0.11959061  1
  O  O321  1  0.26055969  0.26019201  0.63082900  1
  O  O322  1  0.25428348  0.75571169  0.12075725  1
  O  O323  1  0.25098848  0.75682010  0.61768705  1
  O  O324  1  0.75466454  0.25444126  0.12145308  1
  O  O325  1  0.76140258  0.25664635  0.62475754  1
  O  O326  1  0.75723499  0.75126395  0.11796300  1
  O  O327  1  0.75606400  0.75532153  0.61779493  1
  O  O328  1  0.24840294  0.24795955  0.38071440  1
  O  O329  1  0.24482968  0.24503542  0.88136177  1
  O  O330  1  0.24459579  0.74501659  0.37952148  1
  O  O331  1  0.24250089  0.75042271  0.88107354  1
  O  O332  1  0.74061707  0.24422146  0.37474768  1
  O  O333  1  0.74576059  0.24508299  0.88104303  1
  O  O334  1  0.74577935  0.74343150  0.37729890  1
  O  O335  1  0.74431832  0.74885344  0.88113571  1
  O  O336  1  0.00488661  0.11986930  0.00604769  1
  O  O337  1  -0.00154023  0.11325527  0.50400575  1
  O  O338  1  0.00434960  0.62055451  0.00442077  1
  O  O339  1  0.00526600  0.62040016  0.50322631  1
  O  O340  1  0.50253081  0.12415806  0.01373181  1
  O  O341  1  0.50175465  0.11298870  0.50181614  1
  O  O342  1  0.50558876  0.62066562  0.00645686  1
  O  O343  1  0.50154479  0.62349729  0.51216134  1
  O  O344  1  0.49937111  0.37736688  0.48635489  1
  O  O345  1  0.49341190  0.38291202  1.00006177  1
  O  O346  1  0.49313843  0.88253023  0.49816996  1
  O  O347  1  0.49862359  0.87537266  0.98803558  1
  O  O348  1  0.99413179  0.38128384  0.49499612  1
  O  O349  1  0.99281909  0.38182388  1.00020186  1
  O  O350  1  0.99395524  0.87831203  0.49312535  1
  O  O351  1  0.99521283  0.88056404  0.99393240  1
  O  O352  1  0.49519457  0.49147859  0.37375289  1
  O  O353  1  0.49482320  0.49875561  0.88263530  1
  O  O354  1  0.49054658  0.99771758  0.38283883  1
  O  O355  1  0.50176360  0.98973109  0.87499762  1
  O  O356  1  0.99327686  0.49451159  0.37952310  1
  O  O357  1  0.99283281  0.49786565  0.88136115  1
  O  O358  1  0.99329290  0.99252957  0.37915615  1
  O  O359  1  0.99486186  0.99488739  0.88107094  1
  O  O360  1  0.00531763  0.00531987  0.11989748  1
  O  O361  1  0.00463584  -0.00238633  0.61816890  1
  O  O362  1  -0.00009717  0.50789563  0.11733168  1
  O  O363  1  0.00201340  0.50690265  0.61700746  1
  O  O364  1  0.50738551  0.00775290  0.12679858  1
  O  O365  1  0.49973144  0.00055244  0.61416079  1
  O  O366  1  0.50528742  0.50606641  0.12077213  1
  O  O367  1  0.50597577  0.50861621  0.62672878  1
  O  O368  1  0.23982132  0.38161372  0.24923750  1
  O  O369  1  0.24377752  0.38071381  0.74383286  1
  O  O370  1  0.24301896  0.88001920  0.24454257  1
  O  O371  1  0.24321339  0.87942954  0.74566198  1
  O  O372  1  0.74531239  0.38022076  0.24420563  1
  O  O373  1  0.74575368  0.38067698  0.74383005  1
  O  O374  1  0.74333854  0.88174177  0.24600631  1
  O  O375  1  0.75174448  0.87404699  0.73661563  1
  O  O376  1  0.25188385  0.11485674  0.25309331  1
  O  O377  1  0.24906930  0.11831970  0.75803032  1
  O  O378  1  0.25448862  0.62166588  0.25624646  1
  O  O379  1  0.25688493  0.61959996  0.75001326  1
  O  O380  1  0.75600215  0.11887752  0.25492693  1
  O  O381  1  0.76241844  0.12541338  0.75703615  1
  O  O382  1  0.75639252  0.61854443  0.25358864  1
  O  O383  1  0.75754944  0.61868164  0.74913859  1
  O  O384  1  0.37444098  0.11216507  0.37446434  1
  O  O385  1  0.36588210  0.12476367  0.87336386  1
  O  O386  1  0.36985267  0.62058766  0.36884627  1
  O  O387  1  0.37466857  0.61947716  0.86846643  1
  O  O388  1  0.86992697  0.11856946  0.36819702  1
  O  O389  1  0.87115824  0.12127489  0.86862677  1
  O  O390  1  0.87017340  0.61864210  0.36784259  1
  O  O391  1  0.87395866  0.61842625  0.86651796  1
  O  O392  1  0.12476229  0.37729945  0.13776804  1
  O  O393  1  0.13470369  0.37629444  0.63582674  1
  O  O394  1  0.12885070  0.88043453  0.13076852  1
  O  O395  1  0.12996332  0.87974236  0.63132075  1
  O  O396  1  0.62996614  0.37965472  0.13008097  1
  O  O397  1  0.63126763  0.37930763  0.63088067  1
  O  O398  1  0.62449343  0.88518647  0.13016974  1
  O  O399  1  0.63884305  0.87357147  0.62304012  1
  O  O400  1  0.11810835  0.25988810  0.24997510  1
  O  O401  1  0.12533723  0.26033929  0.75605323  1
  O  O402  1  0.11932504  0.75511291  0.25494898  1
  O  O403  1  0.11908752  0.75547868  0.75426342  1
  O  O404  1  0.62329827  0.25626769  0.26066887  1
  O  O405  1  0.61939443  0.25540337  0.75534657  1
  O  O406  1  0.62004745  0.75402739  0.25268053  1
  O  O407  1  0.61881369  0.75208130  0.75680703  1
  O  O408  1  0.37493368  0.24934462  0.23777675  1
  O  O409  1  0.38548502  0.25218186  0.74431553  1
  O  O410  1  0.37942002  0.74456786  0.24511720  1
  O  O411  1  0.38285131  0.74314481  0.74807231  1
  O  O412  1  0.87956376  0.24428914  0.24402876  1
  O  O413  1  0.87560816  0.24296237  0.74288315  1
  O  O414  1  0.88049505  0.74422716  0.24422564  1
  O  O415  1  0.88149741  0.74385545  0.74344317  1
  O  O416  1  0.37840115  0.49607878  0.49071137  1
  O  O417  1  0.38047964  0.49697072  0.99671690  1
  O  O418  1  0.38149047  0.99478579  0.49394581  1
  O  O419  1  0.37838397  0.99497494  0.99563172  1
  O  O420  1  0.88050637  0.49433030  0.49352221  1
  O  O421  1  0.87926790  0.49518619  0.99453762  1
  O  O422  1  0.88042820  0.99225589  0.49237510  1
  O  O423  1  0.88092666  0.99524949  0.99542410  1
  O  O424  1  0.11892254  0.00598749  0.00621617  1
  O  O425  1  0.11606610  -0.00364479  0.50828843  1
  O  O426  1  0.11854266  0.50672840  0.00009235  1
  O  O427  1  0.11857755  0.50689915  0.50031016  1
  O  O428  1  0.62267591  0.00227782  0.01322023  1
  O  O429  1  0.61300463  -0.00132071  0.49927423  1
  O  O430  1  0.62045577  0.50477592  0.00559161  1
  O  O431  1  0.62236186  0.50232016  0.50899315  1
  O  O432  1  0.37495602  0.36545481  0.12035079  1
  O  O433  1  0.36721256  0.36825457  0.62754855  1
  O  O434  1  0.36764163  0.86797925  0.12560781  1
  O  O435  1  0.36725540  0.87300890  0.61870320  1
  O  O436  1  0.86883778  0.36920017  0.12024887  1
  O  O437  1  0.87108105  0.36838306  0.62113366  1
  O  O438  1  0.87470361  0.86855791  0.11746621  1
  O  O439  1  0.86836146  0.86744349  0.61774509  1
  O  O440  1  0.12613740  0.12836851  0.38057383  1
  O  O441  1  0.12974745  0.13098373  0.88172801  1
  O  O442  1  0.13048584  0.63069405  0.37940495  1
  O  O443  1  0.12560418  0.63295457  0.88068503  1
  O  O444  1  0.62900436  0.13419312  0.37324811  1
  O  O445  1  0.63276647  0.13197903  0.87693526  1
  O  O446  1  0.63263414  0.63002673  0.37336083  1
  O  O447  1  0.62591817  0.63208887  0.88186934  1
