# generated using pymatgen
data_V3Zn3O8
_symmetry_space_group_name_H-M   'P 1'
_cell_length_a   17.08755366
_cell_length_b   17.08636609
_cell_length_c   17.08723195
_cell_angle_alpha   90.00694721
_cell_angle_beta   89.99582334
_cell_angle_gamma   90.00135821
_symmetry_Int_Tables_number   1
_chemical_formula_structural   V3Zn3O8
_chemical_formula_sum   'V96 Zn96 O256'
_cell_volume   4988.85991129
_cell_formula_units_Z   32
loop_
 _symmetry_equiv_pos_site_id
 _symmetry_equiv_pos_as_xyz
  1  'x, y, z'
loop_
 _atom_site_type_symbol
 _atom_site_label
 _atom_site_symmetry_multiplicity
 _atom_site_fract_x
 _atom_site_fract_y
 _atom_site_fract_z
 _atom_site_occupancy
  V  V0  1  0.87562845  0.50030713  0.87268779  1
  V  V1  1  0.74886060  0.12467929  0.87684369  1
  V  V2  1  0.49880124  -0.00041347  0.00070443  1
  V  V3  1  0.25048027  0.25020920  0.49956628  1
  V  V4  1  0.50026295  0.62396683  0.12482714  1
  V  V5  1  0.00070560  0.75080721  0.74820668  1
  V  V6  1  0.74887516  0.87474423  0.62647657  1
  V  V7  1  0.75145949  0.25083880  0.50227710  1
  V  V8  1  0.62583629  0.74902348  0.37477020  1
  V  V9  1  0.87618145  0.74858040  0.12484640  1
  V  V10  1  0.87476116  0.75043472  0.62436539  1
  V  V11  1  0.12466001  0.62483656  -0.00091489  1
  V  V12  1  0.62705613  0.49978263  0.62496549  1
  V  V13  1  0.24873678  0.87489181  0.12586123  1
  V  V14  1  0.00024371  0.00026813  0.00071321  1
  V  V15  1  0.87500288  0.50007229  0.37481485  1
  V  V16  1  0.50054792  0.87409152  0.87608476  1
  V  V17  1  0.62425145  0.12520784  0.00038610  1
  V  V18  1  0.49923980  0.24924728  0.25037229  1
  V  V19  1  -0.00119856  0.24987269  0.24928993  1
  V  V20  1  0.37565332  -0.00208677  0.37669473  1
  V  V21  1  0.49940843  0.87556746  0.37586923  1
  V  V22  1  0.50090354  0.74986931  0.74989007  1
  V  V23  1  0.37720316  0.62639282  0.74877931  1
  V  V24  1  0.00171502  0.37587199  0.87311614  1
  V  V25  1  0.62596120  0.49793994  0.12599683  1
  V  V26  1  0.49928727  0.37402351  0.37447516  1
  V  V27  1  0.62464600  -0.00032034  0.62698182  1
  V  V28  1  -0.00058493  0.12488254  0.12504169  1
  V  V29  1  0.24899097  0.62562480  0.37406060  1
  V  V30  1  0.00019183  0.49968843  0.49945681  1
  V  V31  1  0.37456971  0.87461617  0.00044958  1
  V  V32  1  0.50027334  0.25018332  0.75074407  1
  V  V33  1  0.37636537  0.50047402  0.87441835  1
  V  V34  1  0.74997369  0.49825944  0.25004007  1
  V  V35  1  0.87589534  0.12795621  0.74970304  1
  V  V36  1  0.12476907  0.75041636  0.37572630  1
  V  V37  1  0.75141655  0.62401068  0.87328684  1
  V  V38  1  0.62529827  0.87415629  0.24981428  1
  V  V39  1  0.74984990  0.00039003  0.75231037  1
  V  V40  1  0.62603486  0.37606208  0.75000855  1
  V  V41  1  0.25185894  0.50095022  0.74912103  1
  V  V42  1  0.37509355  0.12525070  0.75089854  1
  V  V43  1  0.24928388  0.12609167  0.87612174  1
  V  V44  1  0.12602817  0.37585008  0.74977915  1
  V  V45  1  0.00124795  0.50107907  -0.00164559  1
  V  V46  1  0.62429324  -0.00036664  0.12537987  1
  V  V47  1  0.12523770  0.75107599  0.87329063  1
  V  V48  1  0.62646625  0.62421082  0.00021512  1
  V  V49  1  0.24895407  -0.00035442  0.74938230  1
  V  V50  1  0.24870331  -0.00070526  0.24968658  1
  V  V51  1  0.50040826  0.37541313  0.87545977  1
  V  V52  1  -0.00092135  0.87418358  0.37427261  1
  V  V53  1  0.62413458  0.37370334  0.24995237  1
  V  V54  1  0.12572900  0.00002577  0.62542886  1
  V  V55  1  0.49828331  0.12479733  0.12611292  1
  V  V56  1  0.12477387  0.25017834  0.37490253  1
  V  V57  1  0.12534475  0.62481737  0.49965060  1
  V  V58  1  0.24965174  0.37419542  0.12425975  1
  V  V59  1  -0.00076196  0.62551615  0.12329342  1
  V  V60  1  0.87464613  0.37181570  0.00057083  1
  V  V61  1  0.25014488  0.12430258  0.37433715  1
  V  V62  1  0.74840236  0.12386397  0.37591884  1
  V  V63  1  0.75024994  0.62459194  0.37389585  1
  V  V64  1  0.74945431  -0.00002837  0.25063864  1
  V  V65  1  0.12479754  0.37570597  0.24929980  1
  V  V66  1  0.12447295  0.12537590  0.49959680  1
  V  V67  1  0.12539788  0.50078350  0.62350525  1
  V  V68  1  0.37352821  0.62444709  0.24986437  1
  V  V69  1  0.62515857  0.62449215  0.49853922  1
  V  V70  1  0.50039972  0.74940867  0.24899660  1
  V  V71  1  0.12644446  0.25035595  0.87557189  1
  V  V72  1  0.50097728  0.49970056  0.00014200  1
  V  V73  1  0.75053419  0.74979442  -0.00053614  1
  V  V74  1  0.24999087  0.74953032  -0.00057492  1
  V  V75  1  0.37595123  0.24969016  0.62520988  1
  V  V76  1  0.25151488  0.37554987  0.62449966  1
  V  V77  1  0.62449733  0.24955414  0.87654135  1
  V  V78  1  0.37482704  0.12486226  0.24973737  1
  V  V79  1  -0.00036410  0.00200708  0.49992817  1
  V  V80  1  0.87585102  0.87623647  -0.00054521  1
  V  V81  1  0.62448422  0.12364018  0.50110918  1
  V  V82  1  -0.00087193  0.37582828  0.37508301  1
  V  V83  1  0.37418691  0.37513858  0.00076502  1
  V  V84  1  0.25097376  0.62547244  0.87462452  1
  V  V85  1  0.87446743  0.12572617  0.24968309  1
  V  V86  1  0.50080261  0.12400502  0.62564664  1
  V  V87  1  0.37642736  0.37566495  0.49943775  1
  V  V88  1  0.37454796  0.74927073  0.12445595  1
  V  V89  1  0.12426646  -0.00038898  0.12567944  1
  V  V90  1  0.24927797  0.50023947  0.25011361  1
  V  V91  1  0.37341641  0.00054129  0.87591170  1
  V  V92  1  0.00062783  0.87631196  0.87495662  1
  V  V93  1  0.75061123  0.87447580  0.12444501  1
  V  V94  1  0.87464267  -0.00052487  0.37595940  1
  V  V95  1  0.50070379  0.49915429  0.49883889  1
  Zn  Zn96  1  0.62618997  0.75088343  0.87589855  1
  Zn  Zn97  1  0.62431450  0.24846322  0.37546063  1
  Zn  Zn98  1  0.87309681  0.25015188  0.12521440  1
  Zn  Zn99  1  0.37381963  0.24890134  0.12411854  1
  Zn  Zn100  1  0.49832293  -0.00220062  0.50252353  1
  Zn  Zn101  1  0.62514253  0.87412382  0.75384970  1
  Zn  Zn102  1  0.87414889  0.37537028  0.50296797  1
  Zn  Zn103  1  0.37430739  0.50123814  0.37575809  1
  Zn  Zn104  1  0.37410907  0.75284537  0.62313905  1
  Zn  Zn105  1  0.87612512  0.00154525  0.87585794  1
  Zn  Zn106  1  0.87550399  0.62451791  0.24909287  1
  Zn  Zn107  1  -0.00090388  0.62426831  0.62424094  1
  Zn  Zn108  1  0.75276800  0.49867304  0.74799239  1
  Zn  Zn109  1  0.75097708  0.37219582  0.12577468  1
  Zn  Zn110  1  0.25379753  0.87369375  0.62259768  1
  Zn  Zn111  1  0.74951715  0.75063346  0.49963220  1
  Zn  Zn112  1  0.87824170  0.25345643  0.62555253  1
  Zn  Zn113  1  0.49931387  0.62765684  0.62202862  1
  Zn  Zn114  1  -0.00119707  0.12760252  0.62554766  1
  Zn  Zn115  1  0.37518547  0.87219529  0.50254061  1
  Zn  Zn116  1  0.12723485  0.87570679  0.74814660  1
  Zn  Zn117  1  -0.00183980  0.74747936  0.25027310  1
  Zn  Zn118  1  0.74910173  0.24967172  0.00320146  1
  Zn  Zn119  1  -0.00038889  0.25076582  0.74707625  1
  Zn  Zn120  1  0.12358450  0.50104036  0.12431546  1
  Zn  Zn121  1  0.25496121  0.75099128  0.50330902  1
  Zn  Zn122  1  0.12538917  0.12548454  0.00077991  1
  Zn  Zn123  1  0.75315837  0.37398459  0.62733201  1
  Zn  Zn124  1  0.25119163  0.24835380  0.00139019  1
  Zn  Zn125  1  0.87315256  0.87606151  0.50024495  1
  Zn  Zn126  1  0.87507244  0.62297020  0.74762560  1
  Zn  Zn127  1  0.12412214  0.87371483  0.24974940  1
  Zn  Zn128  1  0.18571574  0.18723810  0.18768188  1
  Zn  Zn129  1  0.18771766  0.18676895  0.68788218  1
  Zn  Zn130  1  0.18435997  0.68808224  0.18815240  1
  Zn  Zn131  1  0.18868219  0.68815326  0.68513112  1
  Zn  Zn132  1  0.68766136  0.18966085  0.18632022  1
  Zn  Zn133  1  0.68852223  0.18743866  0.68795928  1
  Zn  Zn134  1  0.68918095  0.68568392  0.18755297  1
  Zn  Zn135  1  0.68508953  0.68703003  0.68846224  1
  Zn  Zn136  1  0.31384179  0.31251519  0.31203590  1
  Zn  Zn137  1  0.31238457  0.31304201  0.81277929  1
  Zn  Zn138  1  0.31187199  0.81257338  0.31355787  1
  Zn  Zn139  1  0.31307646  0.81440124  0.80937975  1
  Zn  Zn140  1  0.81185217  0.31231546  0.31523145  1
  Zn  Zn141  1  0.81015769  0.31188492  0.81474564  1
  Zn  Zn142  1  0.81323365  0.81058913  0.31105171  1
  Zn  Zn143  1  0.81487453  0.81258175  0.81272906  1
  Zn  Zn144  1  0.18764068  0.43821831  0.43646267  1
  Zn  Zn145  1  0.18836749  0.43846987  0.93759127  1
  Zn  Zn146  1  0.18921429  0.93545048  0.44000832  1
  Zn  Zn147  1  0.18561955  0.93769350  0.93798552  1
  Zn  Zn148  1  0.68691249  0.43539798  0.43596865  1
  Zn  Zn149  1  0.68968970  0.43736086  0.93746077  1
  Zn  Zn150  1  0.68590659  0.93684813  0.44037035  1
  Zn  Zn151  1  0.68711309  0.93804001  0.93723101  1
  Zn  Zn152  1  0.31050261  0.06287137  0.06282624  1
  Zn  Zn153  1  0.31263115  0.06088024  0.56156736  1
  Zn  Zn154  1  0.31208539  0.56087750  0.06284203  1
  Zn  Zn155  1  0.31380054  0.56600423  0.56176862  1
  Zn  Zn156  1  0.81302751  0.06269030  0.06287148  1
  Zn  Zn157  1  0.81263500  0.06320728  0.56442390  1
  Zn  Zn158  1  0.81330197  0.55945459  0.06166429  1
  Zn  Zn159  1  0.81251862  0.56413838  0.55964268  1
  Zn  Zn160  1  0.43584324  0.43741137  0.18840278  1
  Zn  Zn161  1  0.44034135  0.43885601  0.68635427  1
  Zn  Zn162  1  0.43625222  0.93732746  0.18930783  1
  Zn  Zn163  1  0.43672150  0.93579105  0.68829893  1
  Zn  Zn164  1  0.93749317  0.43936617  0.18628451  1
  Zn  Zn165  1  0.93711152  0.43619004  0.68569425  1
  Zn  Zn166  1  0.93719160  0.93717393  0.18850213  1
  Zn  Zn167  1  0.93723530  0.93989591  0.68850294  1
  Zn  Zn168  1  0.06225709  0.06221457  0.31151794  1
  Zn  Zn169  1  0.06171544  0.06388708  0.81270987  1
  Zn  Zn170  1  0.06139737  0.56294908  0.31031222  1
  Zn  Zn171  1  0.06274680  0.56428793  0.81049331  1
  Zn  Zn172  1  0.56199363  0.06227842  0.31392889  1
  Zn  Zn173  1  0.56248446  0.06122175  0.81299685  1
  Zn  Zn174  1  0.56216703  0.56066292  0.31271916  1
  Zn  Zn175  1  0.56439797  0.56371474  0.81206632  1
  Zn  Zn176  1  0.43842322  0.18601649  0.43749478  1
  Zn  Zn177  1  0.43630430  0.18895440  0.93927786  1
  Zn  Zn178  1  0.43752075  0.68761750  0.43711414  1
  Zn  Zn179  1  0.43850631  0.68735671  0.93640215  1
  Zn  Zn180  1  0.93627498  0.18730787  0.43672795  1
  Zn  Zn181  1  0.93998883  0.18740241  0.93505031  1
  Zn  Zn182  1  0.93651905  0.68601005  0.43943041  1
  Zn  Zn183  1  0.93690144  0.68866006  0.93660585  1
  Zn  Zn184  1  0.06194398  0.31213205  0.06204464  1
  Zn  Zn185  1  0.06082407  0.31262394  0.56352703  1
  Zn  Zn186  1  0.06263390  0.81247011  0.06176648  1
  Zn  Zn187  1  0.06334916  0.81502810  0.56012890  1
  Zn  Zn188  1  0.56130469  0.31153969  0.06437749  1
  Zn  Zn189  1  0.56523091  0.31220694  0.56238312  1
  Zn  Zn190  1  0.56367982  0.81127292  0.06168670  1
  Zn  Zn191  1  0.56161591  0.81237893  0.56208536  1
  O  O192  1  0.11791565  0.11811452  0.12433412  1
  O  O193  1  0.12496897  0.11620525  0.61837398  1
  O  O194  1  0.11837519  0.62486301  0.11618868  1
  O  O195  1  0.12439440  0.61760832  0.61786249  1
  O  O196  1  0.61827804  0.11811882  0.12055142  1
  O  O197  1  0.61973823  0.11927641  0.62188314  1
  O  O198  1  0.61946172  0.61829532  0.12010723  1
  O  O199  1  0.62362794  0.61607321  0.61838807  1
  O  O200  1  0.38054668  0.37661568  0.38215606  1
  O  O201  1  0.38095972  0.38148293  0.87933596  1
  O  O202  1  0.38306621  0.88172404  0.37180358  1
  O  O203  1  0.37950201  0.88124555  0.88215346  1
  O  O204  1  0.88240846  0.38205015  0.37737942  1
  O  O205  1  0.88154363  0.38036526  0.88103613  1
  O  O206  1  0.88234020  0.88005099  0.37650788  1
  O  O207  1  0.88229464  0.87694522  0.88207632  1
  O  O208  1  0.25446905  0.00577076  0.36906036  1
  O  O209  1  0.25420455  0.00589105  0.87053560  1
  O  O210  1  0.25066494  0.50713697  0.36750977  1
  O  O211  1  0.25653050  0.50553381  0.86907275  1
  O  O212  1  0.75445313  0.00343220  0.37004406  1
  O  O213  1  0.75056591  0.00678752  0.86991125  1
  O  O214  1  0.75460444  0.50481260  0.36985442  1
  O  O215  1  0.75639217  0.51001790  0.87566784  1
  O  O216  1  0.24782937  0.49012536  0.13018721  1
  O  O217  1  0.24599145  0.49464622  0.62976828  1
  O  O218  1  0.24446634  0.99407583  0.12995553  1
  O  O219  1  0.24024354  1.00304252  0.63135120  1
  O  O220  1  0.74334298  0.49751159  0.13106194  1
  O  O221  1  0.73745622  0.49991036  0.62466818  1
  O  O222  1  0.74393101  0.99414857  0.13072100  1
  O  O223  1  0.74564671  0.99217649  0.63158641  1
  O  O224  1  0.00556781  0.37032969  0.25497269  1
  O  O225  1  0.00927003  0.37537212  0.75656362  1
  O  O226  1  0.00079425  0.87378180  0.26332778  1
  O  O227  1  0.00155701  0.86599653  0.75542900  1
  O  O228  1  0.50345015  0.36952958  0.25455298  1
  O  O229  1  0.50512120  0.36952655  0.75634066  1
  O  O230  1  0.50639540  0.86865370  0.25357124  1
  O  O231  1  0.50046101  0.86603109  0.75858266  1
  O  O232  1  0.49461604  0.12873213  0.24510501  1
  O  O233  1  0.49415070  0.13107651  0.74620608  1
  O  O234  1  0.49485935  0.62983111  0.24382682  1
  O  O235  1  0.49470616  0.63401110  0.75235835  1
  O  O236  1  0.99399659  0.12985825  0.24580705  1
  O  O237  1  0.98755876  0.12669856  0.75102722  1
  O  O238  1  0.99690450  0.62605365  0.23868983  1
  O  O239  1  0.99888203  0.63869556  0.74774696  1
  O  O240  1  0.37184692  0.25935593  0.00297323  1
  O  O241  1  0.36985675  0.25471704  0.50611654  1
  O  O242  1  0.36973402  0.75440169  0.00511293  1
  O  O243  1  0.37429003  0.75122785  0.50352167  1
  O  O244  1  0.87703031  0.26218181  -0.00127128  1
  O  O245  1  0.86312022  0.24894516  0.50027809  1
  O  O246  1  0.86969007  0.75683439  0.00511235  1
  O  O247  1  0.87315124  0.75348548  0.51253071  1
  O  O248  1  0.13157583  0.24561463  0.49416111  1
  O  O249  1  0.12722118  0.25079589  0.98665130  1
  O  O250  1  0.12330926  0.74382863  0.48838954  1
  O  O251  1  0.13125931  0.74470047  0.99314767  1
  O  O252  1  0.63344026  0.24194525  0.49873637  1
  O  O253  1  0.62224998  0.24257502  0.99368803  1
  O  O254  1  0.62557711  0.74263543  0.49248032  1
  O  O255  1  0.63243386  0.74189300  0.99989911  1
  O  O256  1  0.49706691  0.24215257  0.13203093  1
  O  O257  1  0.49523262  0.24500840  0.63143444  1
  O  O258  1  0.49457676  0.74404628  0.12920426  1
  O  O259  1  0.50078238  0.74824013  0.63885203  1
  O  O260  1  0.99903544  0.24341281  0.13216015  1
  O  O261  1  0.99824696  0.24513468  0.62945232  1
  O  O262  1  0.99367025  0.74347656  0.12379547  1
  O  O263  1  0.99255468  0.75314839  0.63207448  1
  O  O264  1  0.00599856  0.25500404  0.36943142  1
  O  O265  1  0.01172797  0.25683749  0.87207516  1
  O  O266  1  0.00587001  0.75803683  0.37592875  1
  O  O267  1  0.00443023  0.75531425  0.86714845  1
  O  O268  1  0.50092669  0.25535790  0.36840082  1
  O  O269  1  0.50426634  0.25563838  0.86958178  1
  O  O270  1  0.50667571  0.75470374  0.36635450  1
  O  O271  1  0.50133023  0.75562530  0.86847523  1
  O  O272  1  0.24503979  0.13150674  0.49349197  1
  O  O273  1  0.24673045  0.12782651  0.99238245  1
  O  O274  1  0.24211608  0.62511494  0.49117173  1
  O  O275  1  0.24608710  0.63007215  0.99409790  1
  O  O276  1  0.74442189  0.13055124  0.49559310  1
  O  O277  1  0.74173482  0.12443833  0.99513399  1
  O  O278  1  0.74218704  0.62751728  0.49154737  1
  O  O279  1  0.74636847  0.62924325  0.99245382  1
  O  O280  1  0.25547095  0.37673934  0.00920000  1
  O  O281  1  0.25573131  0.36960663  0.50491348  1
  O  O282  1  0.25567662  0.86909242  0.00540618  1
  O  O283  1  0.25488549  0.87036359  0.50202094  1
  O  O284  1  0.76269950  0.37381310  -0.00043521  1
  O  O285  1  0.74944190  0.36213618  0.49943818  1
  O  O286  1  0.75509003  0.87042862  0.00574353  1
  O  O287  1  0.75096079  0.87342329  0.51394178  1
  O  O288  1  0.13134113  0.49293926  0.24747570  1
  O  O289  1  0.13250337  0.49588691  0.74464945  1
  O  O290  1  0.13141594  0.99800746  0.24393602  1
  O  O291  1  0.12975609  1.00234101  0.74050025  1
  O  O292  1  0.62929611  0.49356459  0.24455710  1
  O  O293  1  0.62466331  0.49507920  0.74028723  1
  O  O294  1  0.63003206  0.99391027  0.24445919  1
  O  O295  1  0.63196462  0.99853967  0.74437039  1
  O  O296  1  0.36854937  0.00554994  0.25584740  1
  O  O297  1  0.36986505  0.00703296  0.75767634  1
  O  O298  1  0.36772598  0.50745529  0.25091635  1
  O  O299  1  0.37177849  0.50492338  0.75555335  1
  O  O300  1  0.86828808  0.00528549  0.25593399  1
  O  O301  1  0.86803256  0.00955449  0.75299581  1
  O  O302  1  0.86792908  0.50068291  0.25664695  1
  O  O303  1  0.87370811  0.50342832  0.75719011  1
  O  O304  1  0.12025871  0.36903079  0.36898589  1
  O  O305  1  0.12282899  0.36953882  0.86929325  1
  O  O306  1  0.11572980  0.86723347  0.37509055  1
  O  O307  1  0.11851216  0.86763290  0.87362423  1
  O  O308  1  0.61646139  0.37265159  0.36742251  1
  O  O309  1  0.61850542  0.37048112  0.87123800  1
  O  O310  1  0.62076825  0.86973857  0.36824552  1
  O  O311  1  0.61657488  0.87252669  0.87508412  1
  O  O312  1  0.38036440  0.12462382  0.13182835  1
  O  O313  1  0.37974213  0.13060127  0.63109411  1
  O  O314  1  0.38018599  0.63007068  0.12895533  1
  O  O315  1  0.37955866  0.62513813  0.63580354  1
  O  O316  1  0.88151734  0.12531822  0.13257862  1
  O  O317  1  0.87479893  0.12666419  0.63817858  1
  O  O318  1  0.88176792  0.63113591  0.12207619  1
  O  O319  1  0.87586489  0.63732365  0.62678401  1
  O  O320  1  0.24992056  0.26240958  0.12472422  1
  O  O321  1  0.25614533  0.25530576  0.61973588  1
  O  O322  1  0.25492557  0.75428056  0.11927305  1
  O  O323  1  0.25325119  0.75408605  0.62317896  1
  O  O324  1  0.75474430  0.25390306  0.12063420  1
  O  O325  1  0.75042121  0.25001498  0.61358173  1
  O  O326  1  0.75508609  0.75511706  0.11915288  1
  O  O327  1  0.75763379  0.75830299  0.62800730  1
  O  O328  1  0.24469922  0.24477309  0.37973069  1
  O  O329  1  0.24205756  0.24581760  0.87521602  1
  O  O330  1  0.23850037  0.74415138  0.37366075  1
  O  O331  1  0.24591781  0.74509140  0.87976450  1
  O  O332  1  0.74739401  0.24145663  0.38388443  1
  O  O333  1  0.74052239  0.24276031  0.87932989  1
  O  O334  1  0.74323370  0.74414424  0.37539897  1
  O  O335  1  0.75091991  0.74083691  0.88115651  1
  O  O336  1  0.00144386  0.11838978  0.00665651  1
  O  O337  1  0.00751770  0.11897018  0.49854937  1
  O  O338  1  0.00560241  0.62070394  0.00280913  1
  O  O339  1  0.00760430  0.61764077  0.50143206  1
  O  O340  1  0.50350233  0.11829381  0.00560602  1
  O  O341  1  0.50636855  0.12415295  0.50842544  1
  O  O342  1  0.50527726  0.61920257  0.00530971  1
  O  O343  1  0.50809032  0.61678558  0.49905937  1
  O  O344  1  0.49543777  0.37844737  0.49488118  1
  O  O345  1  0.49489845  0.38111703  0.99503059  1
  O  O346  1  0.50011626  0.87799719  0.48952336  1
  O  O347  1  0.49371248  0.87988694  0.99722825  1
  O  O348  1  1.00109306  0.38201774  0.49157561  1
  O  O349  1  0.99454392  0.38094513  0.99264263  1
  O  O350  1  0.99820069  0.88246088  0.48860482  1
  O  O351  1  0.99465363  0.88014764  0.99509917  1
  O  O352  1  0.49781299  0.49233277  0.38114927  1
  O  O353  1  0.49604753  0.49512035  0.88051101  1
  O  O354  1  0.49313393  0.99291893  0.37408355  1
  O  O355  1  0.49306238  0.99512818  0.88132857  1
  O  O356  1  0.99541829  0.49509037  0.37914581  1
  O  O357  1  0.99593247  0.49601681  0.87907931  1
  O  O358  1  0.99521264  0.99257832  0.37910638  1
  O  O359  1  1.00027903  0.99365306  0.88235239  1
  O  O360  1  0.00488797  0.00452995  0.12122916  1
  O  O361  1  0.00853000  0.00306856  0.61906179  1
  O  O362  1  0.00182476  0.50725959  0.11625413  1
  O  O363  1  0.00813447  0.50102880  0.61823750  1
  O  O364  1  0.50455938  0.00415583  0.12042800  1
  O  O365  1  0.50677188  0.00722693  0.62690677  1
  O  O366  1  0.50501978  0.50530745  0.11982544  1
  O  O367  1  0.51183789  0.50097251  0.61831484  1
  O  O368  1  0.24549848  0.37941332  0.24287763  1
  O  O369  1  0.24694101  0.38193207  0.74384090  1
  O  O370  1  0.24873124  0.88130399  0.24294031  1
  O  O371  1  0.24639512  0.88592988  0.74901811  1
  O  O372  1  0.74241971  0.38080952  0.25032119  1
  O  O373  1  0.74027233  0.37835246  0.75010307  1
  O  O374  1  0.74467685  0.88028207  0.24398969  1
  O  O375  1  0.74950654  0.88023461  0.74200961  1
  O  O376  1  0.25462613  0.11975091  0.25522188  1
  O  O377  1  0.25676628  0.12005702  0.75631793  1
  O  O378  1  0.25375345  0.62009662  0.25326848  1
  O  O379  1  0.25633634  0.61960438  0.75644630  1
  O  O380  1  0.75370912  0.11860504  0.25542665  1
  O  O381  1  0.75599918  0.12041186  0.75707403  1
  O  O382  1  0.75023863  0.61626925  0.25642802  1
  O  O383  1  0.75081816  0.62385259  0.76284855  1
  O  O384  1  0.36921864  0.11890104  0.36926998  1
  O  O385  1  0.37018884  0.12015850  0.87046096  1
  O  O386  1  0.36745296  0.62467359  0.36617726  1
  O  O387  1  0.37001241  0.61894249  0.87014565  1
  O  O388  1  0.86884937  0.11810670  0.36859311  1
  O  O389  1  0.86787804  0.12373324  0.86791014  1
  O  O390  1  0.86820775  0.61865447  0.37343972  1
  O  O391  1  0.86597102  0.61987085  0.87572379  1
  O  O392  1  0.13319288  0.37660632  0.13013943  1
  O  O393  1  0.13299489  0.38055443  0.62961263  1
  O  O394  1  0.13111689  0.87994863  0.12690831  1
  O  O395  1  0.12526360  0.89063035  0.62481708  1
  O  O396  1  0.62472224  0.38153309  0.13140811  1
  O  O397  1  0.62588171  0.38440450  0.63119537  1
  O  O398  1  0.63044566  0.87990680  0.12984787  1
  O  O399  1  0.63468102  0.87945705  0.62833726  1
  O  O400  1  0.11905448  0.25553551  0.25642766  1
  O  O401  1  0.12767346  0.25693572  0.75996862  1
  O  O402  1  0.12046688  0.75164469  0.26313069  1
  O  O403  1  0.11580387  0.75158847  0.75458211  1
  O  O404  1  0.61693303  0.25537853  0.25166774  1
  O  O405  1  0.61867806  0.25481356  0.75637600  1
  O  O406  1  0.61997495  0.75480662  0.25341579  1
  O  O407  1  0.61404918  0.75072609  0.75486807  1
  O  O408  1  0.38083265  0.24219046  0.24847809  1
  O  O409  1  0.38042176  0.24549781  0.74502765  1
  O  O410  1  0.38041514  0.74446890  0.24303022  1
  O  O411  1  0.38560007  0.74316940  0.75303448  1
  O  O412  1  0.88173136  0.24337111  0.25093942  1
  O  O413  1  0.87432043  0.23923423  0.75146820  1
  O  O414  1  0.87690439  0.74628575  0.23993024  1
  O  O415  1  0.88448466  0.74984089  0.74153590  1
  O  O416  1  0.38217067  0.49319333  0.49978474  1
  O  O417  1  0.38143114  0.49551727  0.99391025  1
  O  O418  1  0.37786080  1.00028768  0.48924730  1
  O  O419  1  0.37946051  0.99415529  0.99563941  1
  O  O420  1  0.88229183  0.49976779  0.49260482  1
  O  O421  1  0.88169416  0.49116446  0.99243329  1
  O  O422  1  0.88102181  0.99999258  0.49361466  1
  O  O423  1  0.88209459  0.99322707  0.99996385  1
  O  O424  1  0.11805494  0.00085128  0.00794782  1
  O  O425  1  0.12051531  0.00656846  0.50631325  1
  O  O426  1  0.11888185  0.50762018  -0.00110772  1
  O  O427  1  0.12031146  0.50481256  0.50416655  1
  O  O428  1  0.61792820  0.00495652  0.00651072  1
  O  O429  1  0.62367369  0.00678843  0.50920828  1
  O  O430  1  0.61955345  0.50420948  0.00581578  1
  O  O431  1  0.62054135  0.50360157  0.50650860  1
  O  O432  1  0.36508534  0.37503859  0.12003687  1
  O  O433  1  0.37123589  0.36916839  0.62028624  1
  O  O434  1  0.36953677  0.86899860  0.11974249  1
  O  O435  1  0.37287506  0.87332011  0.62188355  1
  O  O436  1  0.87611892  0.37436716  0.11216135  1
  O  O437  1  0.86999756  0.37187338  0.62068721  1
  O  O438  1  0.86931149  0.86998558  0.11968164  1
  O  O439  1  0.86617582  0.86829872  0.62579893  1
  O  O440  1  0.13085029  0.13053184  0.37915494  1
  O  O441  1  0.13048075  0.13530510  0.87475646  1
  O  O442  1  0.12794593  0.63271172  0.37894803  1
  O  O443  1  0.13176169  0.63142260  0.87944496  1
  O  O444  1  0.63127177  0.12392156  0.38218718  1
  O  O445  1  0.62796284  0.12961088  0.88109135  1
  O  O446  1  0.63018610  0.62957904  0.37847204  1
  O  O447  1  0.63554519  0.62426146  0.88253506  1
