# generated using pymatgen
data_V3Zn3O8
_symmetry_space_group_name_H-M   'P 1'
_cell_length_a   17.08834156
_cell_length_b   17.08758068
_cell_length_c   17.08707897
_cell_angle_alpha   89.99085745
_cell_angle_beta   89.99415575
_cell_angle_gamma   90.00369821
_symmetry_Int_Tables_number   1
_chemical_formula_structural   V3Zn3O8
_chemical_formula_sum   'V96 Zn96 O256'
_cell_volume   4989.39987720
_cell_formula_units_Z   32
loop_
 _symmetry_equiv_pos_site_id
 _symmetry_equiv_pos_as_xyz
  1  'x, y, z'
loop_
 _atom_site_type_symbol
 _atom_site_label
 _atom_site_symmetry_multiplicity
 _atom_site_fract_x
 _atom_site_fract_y
 _atom_site_fract_z
 _atom_site_occupancy
  V  V0  1  0.12493299  0.75068126  0.87575009  1
  V  V1  1  -0.00120626  0.00118251  -0.00114829  1
  V  V2  1  0.25020321  0.25162339  0.00070697  1
  V  V3  1  0.74927131  0.12465752  0.37488832  1
  V  V4  1  0.37535780  0.37560899  0.00046681  1
  V  V5  1  0.87572635  0.87390717  0.49963362  1
  V  V6  1  0.50016467  0.12538314  0.12544296  1
  V  V7  1  0.62406205  0.87477725  0.74921888  1
  V  V8  1  0.50004153  0.37517374  0.37592595  1
  V  V9  1  -0.00159392  0.12529870  0.12364614  1
  V  V10  1  0.00039311  0.74913186  0.25015559  1
  V  V11  1  0.87616639  0.74930651  0.12563405  1
  V  V12  1  0.37457533  0.12560430  0.75010442  1
  V  V13  1  -0.00019533  0.87502597  0.37589483  1
  V  V14  1  0.62494440  0.75007606  0.37494750  1
  V  V15  1  0.62440744  0.62581824  0.50005956  1
  V  V16  1  0.62538537  0.37541300  0.75061890  1
  V  V17  1  0.62520685  0.49982745  0.12566028  1
  V  V18  1  0.00022506  0.37544278  0.87473705  1
  V  V19  1  0.49984119  -0.00057076  -0.00070901  1
  V  V20  1  0.12501250  0.12448847  0.50006776  1
  V  V21  1  0.24998576  0.12594114  0.87424073  1
  V  V22  1  0.12458573  -0.00002030  0.62504743  1
  V  V23  1  0.50022970  0.50061205  0.50045846  1
  V  V24  1  0.87531069  0.74902403  0.62606332  1
  V  V25  1  0.87482382  0.50070641  0.87544816  1
  V  V26  1  0.25056182  0.49844299  0.25020382  1
  V  V27  1  0.62613617  -0.00075154  0.12542218  1
  V  V28  1  0.00048492  0.49860737  0.49978055  1
  V  V29  1  0.74959409  0.12390316  0.87309932  1
  V  V30  1  0.12492439  0.50024307  0.62440472  1
  V  V31  1  0.50049661  0.49942431  0.00020783  1
  V  V32  1  0.74941722  -0.00010290  0.74891521  1
  V  V33  1  -0.00073804  0.24964241  0.74847894  1
  V  V34  1  0.74997019  0.24995838  -0.00032569  1
  V  V35  1  0.74980345  0.74953312  -0.00056121  1
  V  V36  1  0.25078195  0.37525292  0.62507633  1
  V  V37  1  0.12585717  0.49894403  0.12649604  1
  V  V38  1  0.62444652  0.37536868  0.25060876  1
  V  V39  1  0.25079957  0.25003848  0.50071160  1
  V  V40  1  0.87614864  0.49730544  0.37615172  1
  V  V41  1  0.62460974  0.12452342  -0.00039425  1
  V  V42  1  0.37513906  0.50020778  0.37581220  1
  V  V43  1  0.25056414  0.62437997  0.37546652  1
  V  V44  1  0.37529364  0.87534989  -0.00028864  1
  V  V45  1  0.74942735  0.25032089  0.50006967  1
  V  V46  1  0.37429488  0.75030497  0.62536017  1
  V  V47  1  0.87385634  0.00027181  0.87330365  1
  V  V48  1  0.87445143  0.37479246  0.00016687  1
  V  V49  1  0.12489120  0.25140112  0.87531481  1
  V  V50  1  0.24954212  0.00090100  0.75038049  1
  V  V51  1  0.49985315  0.24973664  0.25072766  1
  V  V52  1  0.62370570  0.00031909  0.62342853  1
  V  V53  1  0.50124544  0.62563128  0.12524467  1
  V  V54  1  0.24963604  0.12500610  0.37366123  1
  V  V55  1  0.12535922  0.37619957  0.75024085  1
  V  V56  1  -0.00008123  0.12566181  0.62439168  1
  V  V57  1  0.12525198  0.87579768  0.75005041  1
  V  V58  1  0.62606363  0.74961731  0.87608448  1
  V  V59  1  0.12645784  -0.00175688  0.12550909  1
  V  V60  1  0.49994257  0.37607853  0.87581229  1
  V  V61  1  0.24996814  0.75140292  0.00046885  1
  V  V62  1  0.12499694  0.74945525  0.37482689  1
  V  V63  1  0.75072334  0.49999713  0.75086121  1
  V  V64  1  0.75122784  0.37475345  0.62469261  1
  V  V65  1  0.87330412  0.12430737  0.24964210  1
  V  V66  1  0.74958341  0.74855324  0.50001551  1
  V  V67  1  0.12399238  0.12654868  -0.00121794  1
  V  V68  1  0.49932040  0.75001150  0.74956285  1
  V  V69  1  0.49988892  0.87507217  0.87531823  1
  V  V70  1  0.75025505  0.49895178  0.25006478  1
  V  V71  1  0.75068371  0.87519298  0.12583160  1
  V  V72  1  0.00038807  0.50026838  0.00094504  1
  V  V73  1  0.25119438  0.62464367  0.87484969  1
  V  V74  1  0.49937428  0.25012680  0.74963431  1
  V  V75  1  0.00200985  0.25115004  0.25158378  1
  V  V76  1  0.12470387  0.62378935  0.50082350  1
  V  V77  1  0.74966020  0.87496578  0.62402785  1
  V  V78  1  0.87403982  0.25013356  0.12383019  1
  V  V79  1  0.25091793  0.50164474  0.75156230  1
  V  V80  1  0.37545541  0.24955321  0.12475982  1
  V  V81  1  -0.00042646  0.87565758  0.87477770  1
  V  V82  1  0.37507152  0.25085331  0.62608671  1
  V  V83  1  0.87463170  0.62517720  0.75095589  1
  V  V84  1  0.37456478  -0.00045989  0.37339151  1
  V  V85  1  0.50011745  0.00118767  0.50037937  1
  V  V86  1  0.49986258  0.62580074  0.62523323  1
  V  V87  1  0.12514503  0.62512348  0.00068286  1
  V  V88  1  0.62516106  0.87355258  0.25083343  1
  V  V89  1  0.87530887  0.62383639  0.25007674  1
  V  V90  1  -0.00048036  0.74980598  0.75015322  1
  V  V91  1  0.62461281  0.24949356  0.87478215  1
  V  V92  1  0.25008114  0.75020132  0.50075961  1
  V  V93  1  0.37503517  0.75047025  0.12630537  1
  V  V94  1  0.37320980  0.87479134  0.50049843  1
  V  V95  1  0.87475956  0.87484430  0.00026182  1
  Zn  Zn96  1  0.62772810  0.62391964  -0.00110570  1
  Zn  Zn97  1  0.00392336  0.37241657  0.37710254  1
  Zn  Zn98  1  0.74937520  0.37475759  0.12515739  1
  Zn  Zn99  1  -0.00017344  0.62405781  0.62542270  1
  Zn  Zn100  1  0.37591085  0.62634523  0.25105794  1
  Zn  Zn101  1  0.62456586  0.12516086  0.49990501  1
  Zn  Zn102  1  0.62464256  0.50163797  0.62587634  1
  Zn  Zn103  1  0.37588631  0.62477853  0.75193523  1
  Zn  Zn104  1  0.62304248  0.24967106  0.37568614  1
  Zn  Zn105  1  -0.00115820  0.00126286  0.49906258  1
  Zn  Zn106  1  0.00033852  0.62525619  0.12576920  1
  Zn  Zn107  1  0.37482775  0.00015605  0.87443566  1
  Zn  Zn108  1  0.25002147  0.87599200  0.12667931  1
  Zn  Zn109  1  0.37618702  0.37488787  0.50110802  1
  Zn  Zn110  1  0.25076564  -0.00174823  0.24795512  1
  Zn  Zn111  1  0.24870914  0.87498400  0.62611965  1
  Zn  Zn112  1  0.87523978  -0.00070276  0.37472585  1
  Zn  Zn113  1  0.87575888  0.24814748  0.62492525  1
  Zn  Zn114  1  0.12675541  0.87470982  0.24957630  1
  Zn  Zn115  1  0.75141258  0.00021013  0.25131404  1
  Zn  Zn116  1  0.25055629  0.37300480  0.12621564  1
  Zn  Zn117  1  0.37493790  0.12414994  0.24861859  1
  Zn  Zn118  1  0.74909146  0.62345129  0.37591552  1
  Zn  Zn119  1  0.50087164  0.12689041  0.62460533  1
  Zn  Zn120  1  0.87385138  0.12578616  0.74656648  1
  Zn  Zn121  1  0.12574469  0.25046268  0.37422020  1
  Zn  Zn122  1  0.49912758  0.87368629  0.37331316  1
  Zn  Zn123  1  0.87733480  0.37403654  0.50066343  1
  Zn  Zn124  1  0.37660723  0.50233587  0.87477598  1
  Zn  Zn125  1  0.74911504  0.62490305  0.87661895  1
  Zn  Zn126  1  0.49938080  0.74950733  0.25179489  1
  Zn  Zn127  1  0.12599509  0.37240283  0.25172875  1
  Zn  Zn128  1  0.18812908  0.18386029  0.18657344  1
  Zn  Zn129  1  0.18671266  0.18797759  0.68709650  1
  Zn  Zn130  1  0.18802353  0.68601446  0.18870206  1
  Zn  Zn131  1  0.18766743  0.68679045  0.68772972  1
  Zn  Zn132  1  0.68619944  0.18907576  0.18807883  1
  Zn  Zn133  1  0.68563973  0.18632339  0.68589745  1
  Zn  Zn134  1  0.68947689  0.68654544  0.18816065  1
  Zn  Zn135  1  0.68719836  0.68668646  0.68821433  1
  Zn  Zn136  1  0.31528503  0.31313446  0.31257079  1
  Zn  Zn137  1  0.31347096  0.31452124  0.81329904  1
  Zn  Zn138  1  0.30896505  0.81526659  0.31049716  1
  Zn  Zn139  1  0.31279302  0.81283824  0.81243843  1
  Zn  Zn140  1  0.81236169  0.31251180  0.31203630  1
  Zn  Zn141  1  0.81396774  0.31169633  0.81167188  1
  Zn  Zn142  1  0.81188922  0.81001704  0.31302014  1
  Zn  Zn143  1  0.81132417  0.81296549  0.81230234  1
  Zn  Zn144  1  0.18598112  0.43377445  0.43665837  1
  Zn  Zn145  1  0.18901079  0.43811231  0.93811884  1
  Zn  Zn146  1  0.18652335  0.93731497  0.43921461  1
  Zn  Zn147  1  0.18847213  0.93820312  0.93801048  1
  Zn  Zn148  1  0.68619350  0.43846049  0.43734005  1
  Zn  Zn149  1  0.68762466  0.43758297  0.93810541  1
  Zn  Zn150  1  0.68862208  0.93772728  0.43677530  1
  Zn  Zn151  1  0.68716176  0.93622176  0.93728094  1
  Zn  Zn152  1  0.31282849  0.06386744  0.06037560  1
  Zn  Zn153  1  0.31197793  0.06367863  0.56398863  1
  Zn  Zn154  1  0.31343958  0.56317842  0.06177964  1
  Zn  Zn155  1  0.31397241  0.56314866  0.56322238  1
  Zn  Zn156  1  0.81113084  0.06247659  0.06214026  1
  Zn  Zn157  1  0.81490402  0.06141902  0.56039590  1
  Zn  Zn158  1  0.81177975  0.56333026  0.06374501  1
  Zn  Zn159  1  0.81275674  0.56266213  0.56316337  1
  Zn  Zn160  1  0.43716541  0.43665971  0.18775456  1
  Zn  Zn161  1  0.43654829  0.43918240  0.68811077  1
  Zn  Zn162  1  0.43929767  0.93719766  0.18706173  1
  Zn  Zn163  1  0.43547195  0.93775952  0.68685781  1
  Zn  Zn164  1  0.93754472  0.43574718  0.18738369  1
  Zn  Zn165  1  0.93707727  0.43781529  0.68698422  1
  Zn  Zn166  1  0.93788295  0.93765039  0.18973497  1
  Zn  Zn167  1  0.93765936  0.93832142  0.68633803  1
  Zn  Zn168  1  0.06159837  0.06259665  0.31129165  1
  Zn  Zn169  1  0.06228280  0.06373002  0.81061844  1
  Zn  Zn170  1  0.06174533  0.56280569  0.31328618  1
  Zn  Zn171  1  0.06268330  0.56374530  0.81261680  1
  Zn  Zn172  1  0.56391908  0.06254212  0.31208092  1
  Zn  Zn173  1  0.56123934  0.06222438  0.81159288  1
  Zn  Zn174  1  0.56258408  0.56291404  0.31276503  1
  Zn  Zn175  1  0.56416629  0.56368425  0.81266919  1
  Zn  Zn176  1  0.43579824  0.18770190  0.43810010  1
  Zn  Zn177  1  0.43674880  0.18794255  0.93726064  1
  Zn  Zn178  1  0.43819991  0.68784373  0.43709420  1
  Zn  Zn179  1  0.43800190  0.68736622  0.93821486  1
  Zn  Zn180  1  0.93525715  0.18684690  0.43776091  1
  Zn  Zn181  1  0.93596785  0.18755897  0.93488532  1
  Zn  Zn182  1  0.93775618  0.68494556  0.43774049  1
  Zn  Zn183  1  0.93744537  0.68616507  0.93768820  1
  Zn  Zn184  1  0.06201283  0.31425721  0.06411248  1
  Zn  Zn185  1  0.06414463  0.31204676  0.56124938  1
  Zn  Zn186  1  0.06075688  0.81339726  0.06240011  1
  Zn  Zn187  1  0.06255176  0.81169723  0.56323209  1
  Zn  Zn188  1  0.56248769  0.31309635  0.06366320  1
  Zn  Zn189  1  0.56389177  0.31364538  0.56259514  1
  Zn  Zn190  1  0.56321725  0.81221569  0.06219111  1
  Zn  Zn191  1  0.56085830  0.81345017  0.56098205  1
  O  O192  1  0.11830803  0.11750227  0.11723567  1
  O  O193  1  0.11941911  0.11981867  0.61991471  1
  O  O194  1  0.12444357  0.61477254  0.11940620  1
  O  O195  1  0.12365183  0.61799840  0.61865134  1
  O  O196  1  0.62030891  0.11957541  0.11879056  1
  O  O197  1  0.62145171  0.11569868  0.62129472  1
  O  O198  1  0.61582742  0.62003925  0.12418626  1
  O  O199  1  0.61767958  0.62520214  0.61848379  1
  O  O200  1  0.38224703  0.38265020  0.37767578  1
  O  O201  1  0.38283455  0.37608939  0.88262982  1
  O  O202  1  0.37482558  0.88492592  0.38071683  1
  O  O203  1  0.38239052  0.87562398  0.88197221  1
  O  O204  1  0.87705152  0.38748453  0.37574000  1
  O  O205  1  0.88138660  0.38041865  0.88030101  1
  O  O206  1  0.88480789  0.87225821  0.38034756  1
  O  O207  1  0.88015688  0.88063681  0.88039864  1
  O  O208  1  0.25874375  0.00825698  0.37726316  1
  O  O209  1  0.25021567  0.00841576  0.86912064  1
  O  O210  1  0.25408592  0.50437181  0.36806875  1
  O  O211  1  0.25027757  0.50704460  0.86972243  1
  O  O212  1  0.75256578  0.01187293  0.37423754  1
  O  O213  1  0.75384431  0.00402432  0.86927479  1
  O  O214  1  0.75941441  0.50112400  0.36972631  1
  O  O215  1  0.75758362  0.49967552  0.86883558  1
  O  O216  1  0.24274899  0.50065442  0.13308688  1
  O  O217  1  0.24449177  0.49523859  0.63043472  1
  O  O218  1  0.23804310  1.00133498  0.12314905  1
  O  O219  1  0.24258225  0.99942343  0.63224992  1
  O  O220  1  0.74339300  0.49795220  0.13170568  1
  O  O221  1  0.74884552  0.49030870  0.63112143  1
  O  O222  1  0.74332508  0.99310319  0.12542662  1
  O  O223  1  0.74425019  0.99366864  0.62860403  1
  O  O224  1  0.00068412  0.36118092  0.24973206  1
  O  O225  1  0.00616334  0.37087522  0.75540144  1
  O  O226  1  0.00118884  0.86794449  0.26036377  1
  O  O227  1  0.00503431  0.86993416  0.75641176  1
  O  O228  1  0.50475525  0.37018617  0.25612375  1
  O  O229  1  0.50562994  0.36990662  0.75569045  1
  O  O230  1  0.51423419  0.87337570  0.24975917  1
  O  O231  1  0.50505419  0.87024456  0.75481518  1
  O  O232  1  0.49957210  0.13085076  0.24301115  1
  O  O233  1  0.49321401  0.13243061  0.74968233  1
  O  O234  1  0.49777987  0.62611503  0.23672650  1
  O  O235  1  0.49983903  0.63286405  0.74369140  1
  O  O236  1  0.99370657  0.13232834  0.24360370  1
  O  O237  1  1.00002174  0.13196535  0.74211557  1
  O  O238  1  0.99339632  0.63169406  0.24920150  1
  O  O239  1  0.99362551  0.63221834  0.74948114  1
  O  O240  1  0.37002962  0.25531638  0.00536934  1
  O  O241  1  0.36842249  0.25099844  0.50817244  1
  O  O242  1  0.37059015  0.75515888  0.00845714  1
  O  O243  1  0.36961028  0.75555859  0.50473280  1
  O  O244  1  0.86995523  0.25464908  0.00361657  1
  O  O245  1  0.86177447  0.25350460  0.50145934  1
  O  O246  1  0.87139691  0.75631458  0.00517312  1
  O  O247  1  0.86979089  0.75338315  0.50608437  1
  O  O248  1  0.13347125  0.24168136  0.49847100  1
  O  O249  1  0.12906797  0.24611932  0.99515625  1
  O  O250  1  0.13011940  0.74381329  0.49485635  1
  O  O251  1  0.12932033  0.74572160  0.99539594  1
  O  O252  1  0.63708581  0.24779362  0.49831817  1
  O  O253  1  0.62946004  0.24423066  0.99435980  1
  O  O254  1  0.62995750  0.74639099  0.49475731  1
  O  O255  1  0.63235857  0.75074746  0.99406732  1
  O  O256  1  0.49519841  0.24415649  0.12976371  1
  O  O257  1  0.49430105  0.25014113  0.63190813  1
  O  O258  1  0.49189332  0.74206467  0.12429075  1
  O  O259  1  0.49446495  0.74616683  0.62974364  1
  O  O260  1  0.99432982  0.24402215  0.13058000  1
  O  O261  1  1.00029410  0.24334843  0.63060380  1
  O  O262  1  0.99395213  0.74935386  0.13143778  1
  O  O263  1  0.99312452  0.74902043  0.63272147  1
  O  O264  1  0.00029818  0.24769328  0.36261710  1
  O  O265  1  0.00591433  0.25600749  0.87017542  1
  O  O266  1  0.00502273  0.75631333  0.37058653  1
  O  O267  1  0.00523559  0.75635799  0.87074670  1
  O  O268  1  0.50013208  0.25578259  0.36971156  1
  O  O269  1  0.50592783  0.25570537  0.87000468  1
  O  O270  1  0.50775039  0.75356619  0.37179648  1
  O  O271  1  0.50567170  0.75592274  0.87037158  1
  O  O272  1  0.24541973  0.12969933  0.49234833  1
  O  O273  1  0.24378193  0.13218052  0.99360424  1
  O  O274  1  0.24437863  0.62999762  0.49436354  1
  O  O275  1  0.24403941  0.63127957  0.99494669  1
  O  O276  1  0.75020255  0.13311529  0.49208711  1
  O  O277  1  0.74368502  0.12984412  0.99319685  1
  O  O278  1  0.74287074  0.63144917  0.50054664  1
  O  O279  1  0.74856847  0.63399476  0.99830430  1
  O  O280  1  0.25644943  0.36853638  0.00153009  1
  O  O281  1  0.25162018  0.36815971  0.50751030  1
  O  O282  1  0.25653814  0.86853034  0.00176573  1
  O  O283  1  0.25541906  0.86763774  0.50178444  1
  O  O284  1  0.75676790  0.36718775  0.00042576  1
  O  O285  1  0.74936149  0.36816514  0.50859797  1
  O  O286  1  0.75628232  0.87024814  0.00586944  1
  O  O287  1  0.75538770  0.86858226  0.50522737  1
  O  O288  1  0.13293492  0.50102701  0.24214281  1
  O  O289  1  0.12990853  0.49490508  0.74502931  1
  O  O290  1  0.12357541  1.00062237  0.23538067  1
  O  O291  1  0.12989008  0.99504270  0.74542447  1
  O  O292  1  0.63006353  0.49504459  0.24524034  1
  O  O293  1  0.63228979  0.49265309  0.74911898  1
  O  O294  1  0.62749460  0.99036716  0.24388511  1
  O  O295  1  0.62937097  0.99348784  0.74416355  1
  O  O296  1  0.37573749  0.00110935  0.26174023  1
  O  O297  1  0.36807991  0.00679080  0.75168132  1
  O  O298  1  0.36537428  0.50159795  0.25485849  1
  O  O299  1  0.36644879  0.50330232  0.75356807  1
  O  O300  1  0.87190375  0.00844252  0.25199774  1
  O  O301  1  0.86689219  -0.00048431  0.75607232  1
  O  O302  1  0.87154691  0.50362438  0.25680848  1
  O  O303  1  0.87082990  0.50482807  0.75612714  1
  O  O304  1  0.12190992  0.36812858  0.36922197  1
  O  O305  1  0.11954551  0.37077146  0.87035690  1
  O  O306  1  0.11514576  0.86832987  0.37594523  1
  O  O307  1  0.11863051  0.87034622  0.87088277  1
  O  O308  1  0.61753615  0.37449362  0.36791534  1
  O  O309  1  0.61980782  0.36830156  0.87037933  1
  O  O310  1  0.62586958  0.86990734  0.36556497  1
  O  O311  1  0.61933682  0.86998127  0.86869480  1
  O  O312  1  0.38258237  0.13085140  0.12487069  1
  O  O313  1  0.37599012  0.13285285  0.63263085  1
  O  O314  1  0.38344832  0.63442858  0.12455377  1
  O  O315  1  0.38217127  0.63318059  0.62641981  1
  O  O316  1  0.87952011  0.13037836  0.12826089  1
  O  O317  1  0.88444834  0.12628535  0.62611387  1
  O  O318  1  0.87800255  0.63128629  0.13181994  1
  O  O319  1  0.87671903  0.63169716  0.63253413  1
  O  O320  1  0.25604169  0.24967721  0.11866750  1
  O  O321  1  0.25487963  0.25588019  0.62121412  1
  O  O322  1  0.25955967  0.74869569  0.11898295  1
  O  O323  1  0.25547740  0.75091844  0.61840997  1
  O  O324  1  0.75611609  0.25038808  0.11730932  1
  O  O325  1  0.75025190  0.25749570  0.61783253  1
  O  O326  1  0.75677450  0.75629672  0.12003799  1
  O  O327  1  0.75519408  0.75639437  0.62036923  1
  O  O328  1  0.25277993  0.23846562  0.37976851  1
  O  O329  1  0.24339776  0.24605271  0.88022903  1
  O  O330  1  0.24511934  0.74426333  0.38034779  1
  O  O331  1  0.24359311  0.74554274  0.88070120  1
  O  O332  1  0.74879351  0.24286581  0.38279765  1
  O  O333  1  0.74405710  0.24420480  0.87949782  1
  O  O334  1  0.74368657  0.74705124  0.38284627  1
  O  O335  1  0.74384972  0.75118733  0.88159354  1
  O  O336  1  0.00423006  0.12072431  0.00360323  1
  O  O337  1  0.00672301  0.12472441  0.50590552  1
  O  O338  1  0.00736999  0.61804673  0.00144627  1
  O  O339  1  0.00739039  0.61727308  0.50182068  1
  O  O340  1  0.50609086  0.12000717  0.00456713  1
  O  O341  1  0.50064874  0.11239377  0.50059142  1
  O  O342  1  0.50176158  0.61960479  0.01121700  1
  O  O343  1  0.50544905  0.62055421  0.50592617  1
  O  O344  1  0.49978894  0.38204151  0.49409819  1
  O  O345  1  0.49539721  0.37964047  0.99496403  1
  O  O346  1  0.49296369  0.88614155  0.49746299  1
  O  O347  1  0.49569437  0.88009373  0.99501712  1
  O  O348  1  0.99716542  0.38203755  0.49822686  1
  O  O349  1  0.99470936  0.38050771  0.99388840  1
  O  O350  1  0.99465187  0.87277713  0.49011583  1
  O  O351  1  0.99375446  0.88103284  0.99351660  1
  O  O352  1  0.49428117  0.49590720  0.38002415  1
  O  O353  1  0.50056583  0.49364661  0.88177364  1
  O  O354  1  0.49092391  0.99962133  0.38272145  1
  O  O355  1  0.49960112  0.99284923  0.88156170  1
  O  O356  1  0.99168559  0.49820014  0.38053104  1
  O  O357  1  0.99566401  0.49422440  0.88066593  1
  O  O358  1  0.99922994  0.98739667  0.37575864  1
  O  O359  1  0.99479995  0.99550561  0.87951130  1
  O  O360  1  0.00569256  0.00550930  0.11800052  1
  O  O361  1  0.00710361  0.00730461  0.62396736  1
  O  O362  1  0.00983337  0.50077323  0.12019571  1
  O  O363  1  0.00703692  0.50050727  0.61873733  1
  O  O364  1  0.50655531  0.00530186  0.11870263  1
  O  O365  1  0.50404414  0.00053355  0.61518024  1
  O  O366  1  0.50426552  0.50793105  0.12080617  1
  O  O367  1  0.50162956  0.50678640  0.61918677  1
  O  O368  1  0.24911584  0.38702417  0.24833967  1
  O  O369  1  0.24362074  0.38074047  0.74578986  1
  O  O370  1  0.24367889  0.88126654  0.24458245  1
  O  O371  1  0.24234428  0.88199455  0.75061537  1
  O  O372  1  0.74316414  0.38089281  0.24833951  1
  O  O373  1  0.74545181  0.37867640  0.74344481  1
  O  O374  1  0.74130369  0.87538120  0.24447971  1
  O  O375  1  0.74341884  0.88001806  0.74350857  1
  O  O376  1  0.25276714  0.12064372  0.26122825  1
  O  O377  1  0.25417005  0.12114433  0.75573783  1
  O  O378  1  0.25138639  0.61415140  0.25652402  1
  O  O379  1  0.24978836  0.61944619  0.75778613  1
  O  O380  1  0.75481553  0.12671856  0.25886399  1
  O  O381  1  0.74957243  0.11769979  0.75578677  1
  O  O382  1  0.75742195  0.61712265  0.25225644  1
  O  O383  1  0.75672707  0.61834464  0.75177143  1
  O  O384  1  0.36607560  0.11507706  0.37580398  1
  O  O385  1  0.36764822  0.12487725  0.86868767  1
  O  O386  1  0.36840201  0.61903272  0.37326428  1
  O  O387  1  0.36676624  0.62413657  0.87410082  1
  O  O388  1  0.86471108  0.12420082  0.36886426  1
  O  O389  1  0.86753531  0.11750691  0.87289284  1
  O  O390  1  0.87398948  0.61332879  0.36940482  1
  O  O391  1  0.87365117  0.61817401  0.86900566  1
  O  O392  1  0.12792848  0.38784991  0.12660697  1
  O  O393  1  0.13153366  0.38071483  0.63129518  1
  O  O394  1  0.12424843  0.88755487  0.12338767  1
  O  O395  1  0.12525410  0.88104741  0.63252486  1
  O  O396  1  0.62512742  0.38213896  0.13229732  1
  O  O397  1  0.63629139  0.37600276  0.63212939  1
  O  O398  1  0.63071906  0.87880835  0.13203561  1
  O  O399  1  0.63012044  0.87994913  0.62955251  1
  O  O400  1  0.11345216  0.24807484  0.24779927  1
  O  O401  1  0.12013376  0.25707150  0.75602045  1
  O  O402  1  0.11910209  0.74992290  0.25697039  1
  O  O403  1  0.11962484  0.75541291  0.75645741  1
  O  O404  1  0.61721330  0.25749764  0.25094012  1
  O  O405  1  0.61980837  0.25534552  0.75581624  1
  O  O406  1  0.62580184  0.75877118  0.25495375  1
  O  O407  1  0.61939949  0.75687393  0.75469986  1
  O  O408  1  0.38210443  0.24799692  0.24276556  1
  O  O409  1  0.37983235  0.24578350  0.74568180  1
  O  O410  1  0.37609206  0.74937945  0.23818062  1
  O  O411  1  0.38194974  0.74979491  0.74370095  1
  O  O412  1  0.88211250  0.24444549  0.24359029  1
  O  O413  1  0.88388809  0.24725316  0.74803628  1
  O  O414  1  0.87990213  0.74394392  0.24503652  1
  O  O415  1  0.87984586  0.74602419  0.74585440  1
  O  O416  1  0.38188919  0.49898194  0.49355516  1
  O  O417  1  0.38236169  0.49367301  0.99952627  1
  O  O418  1  0.38086301  0.99587500  0.49334503  1
  O  O419  1  0.38222344  0.99376132  0.99858860  1
  O  O420  1  0.88072864  0.49999900  0.49132791  1
  O  O421  1  0.88065644  0.49480728  0.99581941  1
  O  O422  1  0.87860416  0.98916654  0.49657642  1
  O  O423  1  0.87947231  0.99453576  0.99405114  1
  O  O424  1  0.11814121  0.00658095  0.00554867  1
  O  O425  1  0.12337455  0.00685757  0.50708450  1
  O  O426  1  0.12115783  0.50470807  0.00795171  1
  O  O427  1  0.12054074  0.50464001  0.50482880  1
  O  O428  1  0.61985733  0.00466886  0.00509265  1
  O  O429  1  0.61488606  -0.00157664  0.50431570  1
  O  O430  1  0.61856040  0.50065676  0.00735170  1
  O  O431  1  0.61826246  0.50772056  0.50161959  1
  O  O432  1  0.37423606  0.36768367  0.11805574  1
  O  O433  1  0.36792644  0.36847243  0.62519647  1
  O  O434  1  0.37646215  0.86530770  0.11872100  1
  O  O435  1  0.37187024  0.86840335  0.61838471  1
  O  O436  1  0.87368704  0.36800448  0.11720738  1
  O  O437  1  0.86158877  0.37296585  0.62469631  1
  O  O438  1  0.87096672  0.86987504  0.11983343  1
  O  O439  1  0.86923067  0.86888698  0.62025306  1
  O  O440  1  0.13540660  0.12384145  0.37997095  1
  O  O441  1  0.12927751  0.13203940  0.87989094  1
  O  O442  1  0.13100398  0.62978537  0.38132609  1
  O  O443  1  0.13022584  0.63153133  0.88134498  1
  O  O444  1  0.63674226  0.12711916  0.37657984  1
  O  O445  1  0.62977017  0.12975887  0.88007968  1
  O  O446  1  0.62599310  0.63205833  0.38160658  1
  O  O447  1  0.62773777  0.63431228  0.87805571  1
