# generated using pymatgen
data_V3Zn3O8
_symmetry_space_group_name_H-M   'P 1'
_cell_length_a   17.08255503
_cell_length_b   17.08551087
_cell_length_c   17.08322718
_cell_angle_alpha   89.99766996
_cell_angle_beta   89.99188958
_cell_angle_gamma   89.99647586
_symmetry_Int_Tables_number   1
_chemical_formula_structural   V3Zn3O8
_chemical_formula_sum   'V96 Zn96 O256'
_cell_volume   4985.98202246
_cell_formula_units_Z   32
loop_
 _symmetry_equiv_pos_site_id
 _symmetry_equiv_pos_as_xyz
  1  'x, y, z'
loop_
 _atom_site_type_symbol
 _atom_site_label
 _atom_site_symmetry_multiplicity
 _atom_site_fract_x
 _atom_site_fract_y
 _atom_site_fract_z
 _atom_site_occupancy
  V  V0  1  0.87565423  0.24972327  0.12401658  1
  V  V1  1  0.49988630  0.25125316  0.25011684  1
  V  V2  1  0.62585294  0.50072301  0.12521659  1
  V  V3  1  0.24915287  0.25036906  0.49844409  1
  V  V4  1  0.00066194  0.37412267  0.87428455  1
  V  V5  1  0.50039148  0.74993410  0.25040013  1
  V  V6  1  -0.00036834  0.50024794  -0.00091585  1
  V  V7  1  0.25099688  0.62429587  0.87488016  1
  V  V8  1  0.12508386  0.87536535  0.25056686  1
  V  V9  1  0.12575973  0.24866727  0.87589571  1
  V  V10  1  0.50024056  0.87496651  0.37590953  1
  V  V11  1  0.87519579  0.37489088  -0.00084202  1
  V  V12  1  0.62328088  0.25040806  0.87433811  1
  V  V13  1  0.12498776  0.25014881  0.37506493  1
  V  V14  1  0.49985100  0.87596533  0.87482000  1
  V  V15  1  0.62369093  0.37388600  0.75056122  1
  V  V16  1  0.50161763  0.50154629  0.50003219  1
  V  V17  1  0.37386106  0.12429913  0.25078326  1
  V  V18  1  0.25082380  0.75026652  0.00081469  1
  V  V19  1  0.00083126  0.12481123  0.12394412  1
  V  V20  1  0.37341046  0.24974179  0.62371005  1
  V  V21  1  0.37419823  0.12506866  0.74882402  1
  V  V22  1  0.00022395  0.87490597  0.87581506  1
  V  V23  1  -0.00020059  0.75000857  0.25042135  1
  V  V24  1  0.75061423  0.37337190  0.62468914  1
  V  V25  1  0.37507385  0.37580723  0.49894707  1
  V  V26  1  0.12553904  -0.00228089  0.62546033  1
  V  V27  1  0.87409868  0.49992312  0.87326488  1
  V  V28  1  0.87535120  0.00105188  0.37407971  1
  V  V29  1  0.24912085  0.12423456  0.87488485  1
  V  V30  1  0.75040945  0.24967969  0.49966472  1
  V  V31  1  0.62588316  0.75051931  0.87613965  1
  V  V32  1  0.87410983  0.75129165  0.12482920  1
  V  V33  1  0.37434499  0.00061727  0.87385571  1
  V  V34  1  0.62697752  0.75018735  0.37716932  1
  V  V35  1  0.62554534  0.87573631  0.75041494  1
  V  V36  1  -0.00042927  0.12417155  0.62489543  1
  V  V37  1  0.74997461  0.49919287  0.75099493  1
  V  V38  1  0.37687197  0.87486646  0.49999661  1
  V  V39  1  0.62456383  0.25053248  0.37440414  1
  V  V40  1  0.49762085  0.49862346  -0.00108213  1
  V  V41  1  0.49949758  0.12468065  0.62373099  1
  V  V42  1  0.62507049  0.00060135  0.12605873  1
  V  V43  1  0.24854727  0.37483187  0.62485226  1
  V  V44  1  0.37618368  0.75085920  0.62553710  1
  V  V45  1  0.87477498  0.12452612  0.25044380  1
  V  V46  1  0.50009292  0.75067782  0.75045071  1
  V  V47  1  0.87375569  0.37407578  0.49890915  1
  V  V48  1  -0.00051121  0.62543268  0.12487930  1
  V  V49  1  0.25042683  0.87371631  0.62420493  1
  V  V50  1  0.12691375  0.62542853  0.49936584  1
  V  V51  1  0.37448680  0.87454882  -0.00005087  1
  V  V52  1  -0.00091278  0.74967950  0.75055375  1
  V  V53  1  0.12469406  0.00003012  0.12600873  1
  V  V54  1  0.49907991  0.12610369  0.12518342  1
  V  V55  1  0.00073431  -0.00014710  -0.00012398  1
  V  V56  1  0.62462800  0.49944201  0.62537460  1
  V  V57  1  0.25036103  0.37428458  0.12334544  1
  V  V58  1  0.37514383  0.62337797  0.75090243  1
  V  V59  1  -0.00090253  0.62471508  0.62618389  1
  V  V60  1  0.87475963  0.87371323  0.50127549  1
  V  V61  1  0.49922723  0.25066971  0.74986902  1
  V  V62  1  0.62492862  0.12430225  0.50027711  1
  V  V63  1  -0.00243035  0.37478758  0.37435378  1
  V  V64  1  0.50049182  0.62620211  0.12660521  1
  V  V65  1  0.74980821  0.50002638  0.24911244  1
  V  V66  1  0.12628337  0.49887343  0.62673621  1
  V  V67  1  0.74962093  0.75059017  0.00038553  1
  V  V68  1  0.49927636  0.00078616  0.00008622  1
  V  V69  1  0.12464781  0.49957171  0.12469203  1
  V  V70  1  0.25106806  0.50234945  0.25116550  1
  V  V71  1  0.37487076  -0.00072170  0.37482964  1
  V  V72  1  0.12434935  0.75002840  0.87625920  1
  V  V73  1  0.74971831  0.87608405  0.12561841  1
  V  V74  1  0.24947156  -0.00041194  0.25064697  1
  V  V75  1  -0.00002876  0.87497619  0.37596171  1
  V  V76  1  0.49981838  0.37579940  0.37421351  1
  V  V77  1  0.87581315  0.00017125  0.87547001  1
  V  V78  1  0.00000552  -0.00078435  0.50092646  1
  V  V79  1  0.62580402  0.62614637  -0.00026892  1
  V  V80  1  0.62560015  0.87652935  0.25070271  1
  V  V81  1  0.74995546  0.37582451  0.12452240  1
  V  V82  1  0.75093900  0.87358424  0.62538124  1
  V  V83  1  0.75000155  -0.00004802  0.75139254  1
  V  V84  1  0.12530408  0.74843586  0.37554955  1
  V  V85  1  0.74957826  0.25003930  -0.00069038  1
  V  V86  1  -0.00082224  0.24939235  0.74878720  1
  V  V87  1  0.37600423  0.75044832  0.12559676  1
  V  V88  1  0.37370867  0.25076041  0.12469054  1
  V  V89  1  0.62420894  0.12573115  0.00025627  1
  V  V90  1  0.87498212  0.62525931  0.25066493  1
  V  V91  1  0.12511227  0.62557209  -0.00000677  1
  V  V92  1  -0.00013074  0.25118439  0.24892533  1
  V  V93  1  0.75022583  0.62616476  0.37666152  1
  V  V94  1  0.75003513  0.12433682  0.87450046  1
  V  V95  1  0.87488995  0.49949798  0.37490386  1
  Zn  Zn96  1  0.12641978  0.12406951  0.00151860  1
  Zn  Zn97  1  0.62467341  0.37523314  0.24931704  1
  Zn  Zn98  1  -0.00127400  0.49878242  0.49989124  1
  Zn  Zn99  1  0.24973971  0.12477487  0.37613979  1
  Zn  Zn100  1  0.49622392  0.37547991  0.87456331  1
  Zn  Zn101  1  0.75047135  0.12442105  0.37391781  1
  Zn  Zn102  1  0.37315905  0.49712318  0.87560318  1
  Zn  Zn103  1  0.12686124  0.12466249  0.49948381  1
  Zn  Zn104  1  0.87583046  0.24964172  0.62319008  1
  Zn  Zn105  1  0.37436131  0.50312878  0.37545902  1
  Zn  Zn106  1  0.87267775  0.62339515  0.74990728  1
  Zn  Zn107  1  0.25131857  0.62482919  0.37412644  1
  Zn  Zn108  1  0.25011919  -0.00169165  0.74929786  1
  Zn  Zn109  1  0.75147732  0.62589552  0.87296358  1
  Zn  Zn110  1  0.12691839  0.37630460  0.75098720  1
  Zn  Zn111  1  0.12382127  0.37613839  0.24966149  1
  Zn  Zn112  1  0.37571316  0.62643673  0.25422269  1
  Zn  Zn113  1  0.87427956  0.74789398  0.62451456  1
  Zn  Zn114  1  0.12667770  0.87369748  0.75110295  1
  Zn  Zn115  1  0.87472593  0.87513375  0.00056417  1
  Zn  Zn116  1  0.25383705  0.74757217  0.49670724  1
  Zn  Zn117  1  0.62432646  -0.00019390  0.62451455  1
  Zn  Zn118  1  0.87308441  0.12492511  0.74920060  1
  Zn  Zn119  1  0.62738994  0.62683100  0.50288761  1
  Zn  Zn120  1  0.75092674  0.74791295  0.50181150  1
  Zn  Zn121  1  0.74970896  0.00247827  0.25108722  1
  Zn  Zn122  1  0.50172196  0.62601876  0.62506525  1
  Zn  Zn123  1  0.50088321  -0.00007071  0.50025675  1
  Zn  Zn124  1  0.37495881  0.37310351  -0.00332560  1
  Zn  Zn125  1  0.25127307  0.25004432  -0.00006702  1
  Zn  Zn126  1  0.24986053  0.87490314  0.12516332  1
  Zn  Zn127  1  0.25195610  0.49691885  0.75244637  1
  Zn  Zn128  1  0.18731468  0.18671955  0.18972251  1
  Zn  Zn129  1  0.18663198  0.18696430  0.68770309  1
  Zn  Zn130  1  0.18761394  0.68814308  0.18679188  1
  Zn  Zn131  1  0.18859699  0.68818564  0.68843201  1
  Zn  Zn132  1  0.68784909  0.18768414  0.18857016  1
  Zn  Zn133  1  0.68694182  0.18783367  0.68672321  1
  Zn  Zn134  1  0.68733714  0.68857113  0.18858520  1
  Zn  Zn135  1  0.68664585  0.68565106  0.68855570  1
  Zn  Zn136  1  0.31303862  0.31555231  0.31145964  1
  Zn  Zn137  1  0.31284433  0.31432635  0.81164410  1
  Zn  Zn138  1  0.31131742  0.81187174  0.31276734  1
  Zn  Zn139  1  0.31202102  0.81154401  0.81214137  1
  Zn  Zn140  1  0.81057427  0.31124063  0.31221260  1
  Zn  Zn141  1  0.81273252  0.31226001  0.81160632  1
  Zn  Zn142  1  0.81145394  0.81381159  0.31298361  1
  Zn  Zn143  1  0.81448913  0.81282739  0.81342718  1
  Zn  Zn144  1  0.18575331  0.43674647  0.43767570  1
  Zn  Zn145  1  0.18789231  0.43799756  0.93723888  1
  Zn  Zn146  1  0.18865083  0.93625557  0.43829773  1
  Zn  Zn147  1  0.18642167  0.93715702  0.93863955  1
  Zn  Zn148  1  0.68683470  0.43702291  0.43684573  1
  Zn  Zn149  1  0.68607528  0.43753248  0.93645987  1
  Zn  Zn150  1  0.68982484  0.93877064  0.43727569  1
  Zn  Zn151  1  0.68782942  0.93752987  0.93889836  1
  Zn  Zn152  1  0.31122545  0.06184142  0.06299962  1
  Zn  Zn153  1  0.31178386  0.06283227  0.55882285  1
  Zn  Zn154  1  0.31419544  0.56439502  0.06477619  1
  Zn  Zn155  1  0.31361114  0.56223343  0.56460035  1
  Zn  Zn156  1  0.81316098  0.06153617  0.06213415  1
  Zn  Zn157  1  0.81241841  0.06060191  0.56259357  1
  Zn  Zn158  1  0.81240053  0.56393207  0.06112681  1
  Zn  Zn159  1  0.81160966  0.56022133  0.56225474  1
  Zn  Zn160  1  0.43584181  0.43831783  0.18723930  1
  Zn  Zn161  1  0.43756105  0.43687291  0.68580300  1
  Zn  Zn162  1  0.43740731  0.93642358  0.18814058  1
  Zn  Zn163  1  0.43857748  0.94004615  0.68653173  1
  Zn  Zn164  1  0.93678645  0.43700381  0.18763238  1
  Zn  Zn165  1  0.93715872  0.43625938  0.68710072  1
  Zn  Zn166  1  0.93748111  0.93790116  0.18770906  1
  Zn  Zn167  1  0.93592231  0.93606518  0.69026459  1
  Zn  Zn168  1  0.06174274  0.06393140  0.31190990  1
  Zn  Zn169  1  0.06290880  0.06143536  0.81076586  1
  Zn  Zn170  1  0.06256435  0.56080359  0.31220062  1
  Zn  Zn171  1  0.06313472  0.56298525  0.81233597  1
  Zn  Zn172  1  0.56102139  0.06280674  0.31332376  1
  Zn  Zn173  1  0.56273394  0.06336098  0.81090480  1
  Zn  Zn174  1  0.56475945  0.56393578  0.31362799  1
  Zn  Zn175  1  0.56306221  0.56300099  0.81369416  1
  Zn  Zn176  1  0.43756220  0.18762223  0.43633504  1
  Zn  Zn177  1  0.43574644  0.18910397  0.93769005  1
  Zn  Zn178  1  0.43709037  0.68612497  0.43662312  1
  Zn  Zn179  1  0.43812037  0.68656677  0.93781260  1
  Zn  Zn180  1  0.93816674  0.18671579  0.43784129  1
  Zn  Zn181  1  0.93749818  0.18478572  0.93774039  1
  Zn  Zn182  1  0.93705369  0.68811153  0.43940014  1
  Zn  Zn183  1  0.93503438  0.68650010  0.93727888  1
  Zn  Zn184  1  0.06440272  0.31260681  0.06098982  1
  Zn  Zn185  1  0.06177239  0.31356302  0.56008934  1
  Zn  Zn186  1  0.06217245  0.81425449  0.06304951  1
  Zn  Zn187  1  0.06303131  0.81080503  0.56170017  1
  Zn  Zn188  1  0.56241853  0.31420035  0.06304726  1
  Zn  Zn189  1  0.56228378  0.31243972  0.56235943  1
  Zn  Zn190  1  0.56282743  0.81353333  0.06320328  1
  Zn  Zn191  1  0.56354216  0.81196016  0.56215788  1
  O  O192  1  0.11848859  0.11907341  0.12470139  1
  O  O193  1  0.11637694  0.11527823  0.62461933  1
  O  O194  1  0.11835175  0.62026773  0.11888102  1
  O  O195  1  0.11894081  0.61906356  0.61899109  1
  O  O196  1  0.61854329  0.12122031  0.11949903  1
  O  O197  1  0.61914203  0.12598540  0.61503043  1
  O  O198  1  0.62021194  0.62053041  0.11948764  1
  O  O199  1  0.62160737  0.61563525  0.62372797  1
  O  O200  1  0.38195308  0.37785909  0.38189590  1
  O  O201  1  0.37777875  0.37917296  0.87869915  1
  O  O202  1  0.38070483  0.87880326  0.38020998  1
  O  O203  1  0.38021550  0.88031625  0.87954663  1
  O  O204  1  0.87835496  0.37985934  0.37896810  1
  O  O205  1  0.88112257  0.37894533  0.88069516  1
  O  O206  1  0.88161787  0.88018107  0.38020202  1
  O  O207  1  0.88267354  0.88200558  0.87722247  1
  O  O208  1  0.25602055  0.00056704  0.36883992  1
  O  O209  1  0.25451969  0.00775843  0.87270141  1
  O  O210  1  0.24812571  0.49894419  0.36279560  1
  O  O211  1  0.25121567  0.50880099  0.87249734  1
  O  O212  1  0.75992815  0.00309904  0.37243828  1
  O  O213  1  0.75475816  0.00496000  0.87124614  1
  O  O214  1  0.75537078  0.50492407  0.36869585  1
  O  O215  1  0.75608189  0.49930313  0.86865188  1
  O  O216  1  0.24500103  0.49356395  0.13073586  1
  O  O217  1  0.24049872  0.49437981  0.62569105  1
  O  O218  1  0.24326035  0.99823066  0.13186446  1
  O  O219  1  0.24216906  0.99190568  0.62414403  1
  O  O220  1  0.74626574  0.49559708  0.12903716  1
  O  O221  1  0.74440172  0.49240323  0.63065753  1
  O  O222  1  0.74239765  0.99460658  0.12542909  1
  O  O223  1  0.74916541  0.98965116  0.63202952  1
  O  O224  1  -0.00001847  0.36839867  0.25537649  1
  O  O225  1  0.00271104  0.36488646  0.75511103  1
  O  O226  1  0.00508020  0.86923468  0.25644293  1
  O  O227  1  0.00224293  0.86460903  0.75545283  1
  O  O228  1  0.50098169  0.36910219  0.25543526  1
  O  O229  1  0.50589218  0.36796036  0.74992334  1
  O  O230  1  0.50627408  0.86957499  0.25582633  1
  O  O231  1  0.50485269  0.87079923  0.75571505  1
  O  O232  1  0.49385414  0.13088782  0.24395135  1
  O  O233  1  0.49425907  0.13102763  0.74407856  1
  O  O234  1  0.50098819  0.63234740  0.24384035  1
  O  O235  1  0.49088808  0.63177733  0.75033158  1
  O  O236  1  0.99446241  0.13171413  0.24322043  1
  O  O237  1  0.99987092  0.13241823  0.74140252  1
  O  O238  1  0.99473402  0.63007481  0.24444071  1
  O  O239  1  1.00103159  0.63250197  0.74122721  1
  O  O240  1  0.37163690  0.25199869  0.00902739  1
  O  O241  1  0.36960317  0.25596430  0.50448296  1
  O  O242  1  0.37077740  0.75530971  0.00470643  1
  O  O243  1  0.37499451  0.75627377  0.50748711  1
  O  O244  1  0.87002072  0.25521191  0.00403781  1
  O  O245  1  0.86863547  0.25590766  0.50031039  1
  O  O246  1  0.86867179  0.75110955  0.00741658  1
  O  O247  1  0.87359164  0.75873163  0.50401321  1
  O  O248  1  0.12970455  0.24989470  0.49044500  1
  O  O249  1  0.12617929  0.24649441  0.98671825  1
  O  O250  1  0.12559106  0.74019865  0.49481864  1
  O  O251  1  0.12971571  0.74437331  0.99606233  1
  O  O252  1  0.62941992  0.24248705  0.49521563  1
  O  O253  1  0.62985318  0.24471372  0.99533507  1
  O  O254  1  0.62825230  0.74778904  0.49234876  1
  O  O255  1  0.62949846  0.74586664  0.99560650  1
  O  O256  1  0.49489313  0.24498507  0.12995323  1
  O  O257  1  0.49277689  0.24521097  0.62995071  1
  O  O258  1  0.49632646  0.74589269  0.13054931  1
  O  O259  1  0.49415498  0.75014763  0.63316112  1
  O  O260  1  0.99513348  0.24587961  0.12822013  1
  O  O261  1  1.00296302  0.24142707  0.63245253  1
  O  O262  1  0.99489175  0.74462353  0.13076745  1
  O  O263  1  1.00211863  0.74139319  0.63392475  1
  O  O264  1  0.00642307  0.25495264  0.36939635  1
  O  O265  1  0.00668507  0.25244038  0.86809165  1
  O  O266  1  0.00502949  0.75506180  0.36948096  1
  O  O267  1  0.00474377  0.75323461  0.86893350  1
  O  O268  1  0.50437905  0.25645331  0.36934570  1
  O  O269  1  0.50608230  0.24965506  0.86785295  1
  O  O270  1  0.50651988  0.75583769  0.36995996  1
  O  O271  1  0.50541416  0.75719311  0.87064944  1
  O  O272  1  0.24713514  0.13431384  0.49645640  1
  O  O273  1  0.24891567  0.12627148  0.98644221  1
  O  O274  1  0.23712897  0.62535513  0.50103698  1
  O  O275  1  0.24454215  0.63053020  0.99574818  1
  O  O276  1  0.74087752  0.13048759  0.50029731  1
  O  O277  1  0.74374625  0.13076956  0.99507407  1
  O  O278  1  0.74895588  0.62653585  0.49264886  1
  O  O279  1  0.74298562  0.63235393  0.99904168  1
  O  O280  1  0.25065473  0.37506406  0.01307789  1
  O  O281  1  0.25507642  0.37051975  0.50544158  1
  O  O282  1  0.25692465  0.86823395  0.00047723  1
  O  O283  1  0.25663463  0.87271254  0.51035134  1
  O  O284  1  0.75574306  0.36947209  0.00430960  1
  O  O285  1  0.75392928  0.36903313  0.50504263  1
  O  O286  1  0.75053971  0.86840861  0.00775632  1
  O  O287  1  0.75560646  0.87544827  0.51089186  1
  O  O288  1  0.13259973  0.49810537  0.24248746  1
  O  O289  1  0.12688259  0.50007589  0.73771292  1
  O  O290  1  0.12884586  0.99476697  0.24618132  1
  O  O291  1  0.12599972  0.99599572  0.73675871  1
  O  O292  1  0.63245117  0.49937465  0.24274689  1
  O  O293  1  0.62900605  0.49327251  0.74561238  1
  O  O294  1  0.62489801  0.99483950  0.24342527  1
  O  O295  1  0.63184510  0.99318515  0.74993250  1
  O  O296  1  0.36967814  0.00421063  0.25478585  1
  O  O297  1  0.37393628  0.00738895  0.75656315  1
  O  O298  1  0.36354039  0.50274312  0.25070508  1
  O  O299  1  0.37510896  0.51251642  0.74981362  1
  O  O300  1  0.87591143  0.00714454  0.25623584  1
  O  O301  1  0.86850449  0.00205665  0.75781160  1
  O  O302  1  0.86963428  0.50635779  0.25448108  1
  O  O303  1  0.86860111  0.49810943  0.75615230  1
  O  O304  1  0.11727271  0.36529176  0.37373419  1
  O  O305  1  0.11966160  0.36539966  0.87415423  1
  O  O306  1  0.11844531  0.86941017  0.37089045  1
  O  O307  1  0.11899073  0.86772141  0.87332474  1
  O  O308  1  0.61822371  0.36784445  0.37310372  1
  O  O309  1  0.62267166  0.36732321  0.86836625  1
  O  O310  1  0.62065882  0.87085345  0.37043473  1
  O  O311  1  0.61889091  0.87062968  0.87064329  1
  O  O312  1  0.37995800  0.12979503  0.13054176  1
  O  O313  1  0.37878593  0.13062712  0.62858096  1
  O  O314  1  0.38319480  0.63369408  0.12725834  1
  O  O315  1  0.37613969  0.63185118  0.63492270  1
  O  O316  1  0.88122154  0.13114244  0.12903449  1
  O  O317  1  0.88819460  0.12541281  0.62655718  1
  O  O318  1  0.88045362  0.63051427  0.13073799  1
  O  O319  1  0.88844026  0.62438717  0.62568040  1
  O  O320  1  0.25336975  0.25881207  0.12561197  1
  O  O321  1  0.25319335  0.25454149  0.61889632  1
  O  O322  1  0.25638366  0.75163811  0.11808220  1
  O  O323  1  0.25567596  0.75940380  0.62366365  1
  O  O324  1  0.75577691  0.25509552  0.11825611  1
  O  O325  1  0.75240019  0.25597757  0.61890391  1
  O  O326  1  0.75467721  0.75585569  0.12060637  1
  O  O327  1  0.75239832  0.76182362  0.62696272  1
  O  O328  1  0.24018992  0.25242946  0.37891715  1
  O  O329  1  0.24104244  0.24181226  0.87351031  1
  O  O330  1  0.24037116  0.74663412  0.37678707  1
  O  O331  1  0.24424226  0.74463637  0.88109175  1
  O  O332  1  0.74290529  0.24816145  0.38181732  1
  O  O333  1  0.74435941  0.24470511  0.88012105  1
  O  O334  1  0.74473376  0.74428821  0.37608795  1
  O  O335  1  0.74357901  0.75044623  0.88142823  1
  O  O336  1  0.00223900  0.11832299  0.00656208  1
  O  O337  1  0.00247540  0.11872130  0.51016607  1
  O  O338  1  0.00510143  0.61975222  0.00546733  1
  O  O339  1  0.00954157  0.62444694  0.51012799  1
  O  O340  1  0.50453219  0.12032255  0.00533896  1
  O  O341  1  0.50922470  0.12624469  0.50518377  1
  O  O342  1  0.50633183  0.61871971  0.00631141  1
  O  O343  1  0.50214933  0.61247186  0.50229032  1
  O  O344  1  0.49520641  0.38228322  0.49520779  1
  O  O345  1  0.49936514  0.38712824  1.00006838  1
  O  O346  1  0.49449003  0.87664673  0.49366297  1
  O  O347  1  0.49484890  0.88130287  0.99420172  1
  O  O348  1  0.99172449  0.37602211  0.49266944  1
  O  O349  1  0.99480166  0.38034144  0.99448944  1
  O  O350  1  0.99531217  0.87961921  0.49571475  1
  O  O351  1  0.99848138  0.88154927  0.99356991  1
  O  O352  1  0.50154258  0.49446488  0.38464843  1
  O  O353  1  0.49974693  0.50004530  0.88795052  1
  O  O354  1  0.49271566  0.99224580  0.37550891  1
  O  O355  1  0.49438971  0.99606600  0.88048075  1
  O  O356  1  0.99276365  0.49312335  0.37515672  1
  O  O357  1  0.99647352  0.49372495  0.87971717  1
  O  O358  1  0.99633699  0.99420392  0.38134736  1
  O  O359  1  0.99655292  0.99520858  0.87906408  1
  O  O360  1  0.00532167  0.00547516  0.12058729  1
  O  O361  1  0.00656065  0.00455376  0.62183461  1
  O  O362  1  0.00389732  0.50533417  0.11916995  1
  O  O363  1  0.00889203  0.50837189  0.62484910  1
  O  O364  1  0.50442901  0.00626787  0.11950845  1
  O  O365  1  0.50360663  0.00882667  0.62190561  1
  O  O366  1  0.50587052  0.50560410  0.11860648  1
  O  O367  1  0.50618699  0.49857060  0.61497858  1
  O  O368  1  0.24819919  0.38377704  0.23901165  1
  O  O369  1  0.24633450  0.37658923  0.74042889  1
  O  O370  1  0.24221901  0.88142033  0.24880559  1
  O  O371  1  0.24885241  0.87591736  0.73734903  1
  O  O372  1  0.74966942  0.38175497  0.24194755  1
  O  O373  1  0.74373774  0.37835984  0.74453642  1
  O  O374  1  0.74294761  0.87741644  0.24332068  1
  O  O375  1  0.74576589  0.87970240  0.74403993  1
  O  O376  1  0.25669366  0.11783737  0.25240557  1
  O  O377  1  0.25526088  0.12358053  0.75905432  1
  O  O378  1  0.24961052  0.61315127  0.24887076  1
  O  O379  1  0.26037949  0.62630728  0.75570141  1
  O  O380  1  0.75901104  0.12390525  0.25185457  1
  O  O381  1  0.75006195  0.11928798  0.75614368  1
  O  O382  1  0.75652411  0.62004967  0.25506642  1
  O  O383  1  0.75276865  0.61546613  0.75153645  1
  O  O384  1  0.37441175  0.11869816  0.36766177  1
  O  O385  1  0.36712985  0.12099153  0.86927805  1
  O  O386  1  0.36914974  0.62091015  0.37256940  1
  O  O387  1  0.36964210  0.62562093  0.86582452  1
  O  O388  1  0.87661085  0.11856599  0.36854709  1
  O  O389  1  0.86765776  0.11893676  0.87334051  1
  O  O390  1  0.87137580  0.62000787  0.36946796  1
  O  O391  1  0.87343854  0.61509826  0.87211781  1
  O  O392  1  0.13308370  0.38070731  0.12543859  1
  O  O393  1  0.12870045  0.38481252  0.62381384  1
  O  O394  1  0.12523423  0.88169156  0.13319818  1
  O  O395  1  0.13295315  0.88142427  0.62413564  1
  O  O396  1  0.63299792  0.38206744  0.12560365  1
  O  O397  1  0.63072726  0.37892134  0.63101437  1
  O  O398  1  0.62897591  0.88134539  0.13074113  1
  O  O399  1  0.63451892  0.87619231  0.63167466  1
  O  O400  1  0.11862282  0.25245207  0.25884491  1
  O  O401  1  0.11519378  0.24993935  0.75906355  1
  O  O402  1  0.11843715  0.75445264  0.25484228  1
  O  O403  1  0.11475325  0.74922223  0.75667978  1
  O  O404  1  0.61745406  0.25068890  0.25577168  1
  O  O405  1  0.61880790  0.25419258  0.75480717  1
  O  O406  1  0.62007219  0.75702735  0.25620588  1
  O  O407  1  0.61962612  0.75622124  0.75630579  1
  O  O408  1  0.38007127  0.24462738  0.24457868  1
  O  O409  1  0.37934252  0.24398147  0.74289828  1
  O  O410  1  0.38272371  0.75074991  0.24358652  1
  O  O411  1  0.38077576  0.74281991  0.74615232  1
  O  O412  1  0.88054429  0.24547289  0.24321297  1
  O  O413  1  0.88815660  0.24779817  0.74826268  1
  O  O414  1  0.88069600  0.74466934  0.24521819  1
  O  O415  1  0.88835457  0.74669489  0.74906888  1
  O  O416  1  0.38467508  0.49379022  0.50129794  1
  O  O417  1  0.38754676  0.50089342  1.00100139  1
  O  O418  1  0.37662766  0.99308902  0.49265037  1
  O  O419  1  0.38040227  0.99538102  0.99407410  1
  O  O420  1  0.87620169  0.49242108  0.49221049  1
  O  O421  1  0.88069711  0.49422227  0.99474842  1
  O  O422  1  0.88162054  0.99372658  0.49489769  1
  O  O423  1  0.88255205  0.99865393  0.99350947  1
  O  O424  1  0.11875276  0.00162099  0.00727754  1
  O  O425  1  0.11912418  -0.00028000  0.51040766  1
  O  O426  1  0.11868111  0.50600562  0.00489223  1
  O  O427  1  0.12224525  0.50783242  0.50972444  1
  O  O428  1  0.61827939  0.00626294  0.00538769  1
  O  O429  1  0.62397282  0.01267288  0.50087424  1
  O  O430  1  0.61828018  0.50563652  0.00562017  1
  O  O431  1  0.61601835  0.49856692  0.50635444  1
  O  O432  1  0.36497565  0.36889677  0.12459350  1
  O  O433  1  0.36863248  0.36858049  0.61886832  1
  O  O434  1  0.37455807  0.86892464  0.11725989  1
  O  O435  1  0.36835799  0.87154100  0.62085418  1
  O  O436  1  0.87021798  0.36946545  0.11797183  1
  O  O437  1  0.86883525  0.37328739  0.61725090  1
  O  O438  1  0.86890314  0.86841075  0.12475116  1
  O  O439  1  0.86649550  0.87421913  0.62080868  1
  O  O440  1  0.12493943  0.13784370  0.37692503  1
  O  O441  1  0.13252477  0.13167085  0.87364962  1
  O  O442  1  0.12284987  0.62864888  0.38554080  1
  O  O443  1  0.12973056  0.63032498  0.88143723  1
  O  O444  1  0.62431277  0.13151714  0.38488827  1
  O  O445  1  0.62997180  0.13047065  0.88113734  1
  O  O446  1  0.63331090  0.63250109  0.37627346  1
  O  O447  1  0.62641032  0.63345148  0.88175285  1
