# generated using pymatgen
data_V3Zn3O8
_symmetry_space_group_name_H-M   'P 1'
_cell_length_a   17.08966280
_cell_length_b   17.08884381
_cell_length_c   17.09118864
_cell_angle_alpha   89.99822873
_cell_angle_beta   89.99018644
_cell_angle_gamma   90.00711150
_symmetry_Int_Tables_number   1
_chemical_formula_structural   V3Zn3O8
_chemical_formula_sum   'V96 Zn96 O256'
_cell_volume   4991.35468536
_cell_formula_units_Z   32
loop_
 _symmetry_equiv_pos_site_id
 _symmetry_equiv_pos_as_xyz
  1  'x, y, z'
loop_
 _atom_site_type_symbol
 _atom_site_label
 _atom_site_symmetry_multiplicity
 _atom_site_fract_x
 _atom_site_fract_y
 _atom_site_fract_z
 _atom_site_occupancy
  V  V0  1  -0.00026561  0.62381893  0.12481557  1
  V  V1  1  0.12465251  0.87432234  0.25051559  1
  V  V2  1  0.24936415  0.50007159  0.75026016  1
  V  V3  1  -0.00002764  -0.00080726  0.49936570  1
  V  V4  1  0.37444371  0.50075292  0.87567787  1
  V  V5  1  0.49965317  0.87729187  0.87740985  1
  V  V6  1  0.62610304  0.74885549  0.37537196  1
  V  V7  1  0.50042707  0.74880167  0.24994303  1
  V  V8  1  0.75114703  0.87359424  0.12573416  1
  V  V9  1  0.12518647  0.12526892  0.49895016  1
  V  V10  1  -0.00030734  0.37464565  0.87411957  1
  V  V11  1  0.75093788  0.24961397  0.50071255  1
  V  V12  1  0.74883109  0.12609985  0.87509087  1
  V  V13  1  0.25005897  0.37572652  0.12494186  1
  V  V14  1  0.37406111  0.62509347  0.24877433  1
  V  V15  1  0.87625262  0.74823924  0.12502149  1
  V  V16  1  0.75069094  -0.00053272  0.25043766  1
  V  V17  1  0.37377294  0.37544072  0.50048263  1
  V  V18  1  0.62539253  -0.00006741  0.62463637  1
  V  V19  1  0.75006969  0.87504488  0.62513476  1
  V  V20  1  0.24941642  0.62634252  0.87475175  1
  V  V21  1  0.12573822  0.12518474  -0.00074730  1
  V  V22  1  0.00019159  0.37364613  0.37450838  1
  V  V23  1  0.37434652  0.62677773  0.74957769  1
  V  V24  1  -0.00061232  0.49888934  -0.00064243  1
  V  V25  1  0.87503516  0.49871315  0.87491867  1
  V  V26  1  0.62451036  0.50108167  0.12554462  1
  V  V27  1  0.12461577  0.87508456  0.74960684  1
  V  V28  1  0.37505391  0.50026185  0.37556882  1
  V  V29  1  0.37483550  0.00308375  0.87545377  1
  V  V30  1  0.75094144  0.62348239  0.37566488  1
  V  V31  1  0.74924847  0.62479048  0.87456941  1
  V  V32  1  0.37512992  0.87556991  0.49989732  1
  V  V33  1  0.62536953  0.87536054  0.75090734  1
  V  V34  1  0.25053108  0.37483360  0.62449244  1
  V  V35  1  0.87522318  0.37351867  0.50000910  1
  V  V36  1  0.25099471  0.00090884  0.25034772  1
  V  V37  1  0.49912237  0.37645343  0.87478430  1
  V  V38  1  0.49779471  0.12716880  0.62685073  1
  V  V39  1  0.62637881  0.87283543  0.25113820  1
  V  V40  1  -0.00031553  0.24924098  0.24866826  1
  V  V41  1  0.75071814  0.37402059  0.12409876  1
  V  V42  1  0.00004676  -0.00026801  -0.00019531  1
  V  V43  1  0.00048402  0.75011020  0.75049108  1
  V  V44  1  0.74941946  0.49989361  0.75012698  1
  V  V45  1  0.24975153  0.25017288  0.49986341  1
  V  V46  1  0.37490856  0.00054769  0.37499210  1
  V  V47  1  0.62513605  0.25010707  0.87627745  1
  V  V48  1  0.87627871  0.87468699  -0.00036190  1
  V  V49  1  -0.00113452  0.12515519  0.12520546  1
  V  V50  1  0.75066290  0.12419491  0.37440474  1
  V  V51  1  -0.00053830  0.12507749  0.62483860  1
  V  V52  1  0.75009235  0.74983519  0.50064762  1
  V  V53  1  0.00018057  0.24956760  0.74991385  1
  V  V54  1  0.12566374  -0.00005671  0.12499220  1
  V  V55  1  0.25044506  0.87476592  0.12527396  1
  V  V56  1  0.87587185  0.12491110  0.74942127  1
  V  V57  1  0.74965218  0.37451846  0.62463106  1
  V  V58  1  0.12561814  0.62445298  0.49971146  1
  V  V59  1  0.62578712  0.12397312  0.49984971  1
  V  V60  1  0.25034813  0.87576862  0.62469572  1
  V  V61  1  0.87465739  0.49969060  0.37432482  1
  V  V62  1  0.25063562  0.12497649  0.37456944  1
  V  V63  1  0.49955577  0.62638197  0.62581435  1
  V  V64  1  0.62170773  0.00075376  0.12395940  1
  V  V65  1  0.87484967  0.12465883  0.24895443  1
  V  V66  1  0.12481295  0.50013166  0.62444577  1
  V  V67  1  0.24979590  0.74975597  0.49968431  1
  V  V68  1  0.62414063  0.50125319  0.62534509  1
  V  V69  1  0.62473589  0.75101824  0.87531815  1
  V  V70  1  0.62363111  0.25136968  0.37353170  1
  V  V71  1  0.24990071  0.62509676  0.37527458  1
  V  V72  1  0.00035415  0.87387535  0.37493444  1
  V  V73  1  0.12534893  0.00020635  0.62510649  1
  V  V74  1  0.75085328  0.74931940  0.00028199  1
  V  V75  1  0.75069452  0.00045177  0.74996079  1
  V  V76  1  0.12448288  0.37442592  0.74992778  1
  V  V77  1  0.12464740  0.37466682  0.24935171  1
  V  V78  1  0.62403959  0.62505429  0.00041135  1
  V  V79  1  0.25071791  0.00172867  0.75018070  1
  V  V80  1  0.50016405  0.37550086  0.37471528  1
  V  V81  1  0.37522335  0.75051349  0.62569470  1
  V  V82  1  0.00032222  0.74919747  0.24939180  1
  V  V83  1  0.87509281  -0.00011451  0.87563722  1
  V  V84  1  0.37430545  0.37631740  0.00007135  1
  V  V85  1  0.25051040  0.75173875  0.00076202  1
  V  V86  1  0.49975277  -0.00075921  0.49903307  1
  V  V87  1  0.87510126  0.74928946  0.62532225  1
  V  V88  1  0.62365258  0.37571921  0.75033040  1
  V  V89  1  0.12345520  0.49924078  0.12439677  1
  V  V90  1  0.12503991  0.75076228  0.87392479  1
  V  V91  1  0.87470728  0.62478397  0.74954971  1
  V  V92  1  0.62443683  0.62513478  0.50170775  1
  V  V93  1  0.00066897  0.62400355  0.62406877  1
  V  V94  1  0.25050177  0.24935419  -0.00008734  1
  V  V95  1  0.87607964  0.87473833  0.49982186  1
  Zn  Zn96  1  0.49659432  0.25116032  0.75023992  1
  Zn  Zn97  1  0.12484697  0.74839687  0.37448116  1
  Zn  Zn98  1  0.75218246  0.24872580  0.00055988  1
  Zn  Zn99  1  0.37796105  0.12621633  0.24574903  1
  Zn  Zn100  1  0.24996909  0.12679497  0.87317830  1
  Zn  Zn101  1  0.37275762  0.12880587  0.75011404  1
  Zn  Zn102  1  0.49774879  0.50261901  0.00064714  1
  Zn  Zn103  1  0.49741241  0.24717671  0.24800931  1
  Zn  Zn104  1  0.49854261  0.62448235  0.12263533  1
  Zn  Zn105  1  0.87474500  0.24977383  0.62488262  1
  Zn  Zn106  1  0.74880841  0.49968940  0.25074736  1
  Zn  Zn107  1  0.87473986  0.37191368  -0.00056677  1
  Zn  Zn108  1  0.49942895  0.50105099  0.50145713  1
  Zn  Zn109  1  0.87284557  0.25017415  0.12241366  1
  Zn  Zn110  1  0.62504374  0.37601546  0.24894412  1
  Zn  Zn111  1  0.00130875  0.49826895  0.49986442  1
  Zn  Zn112  1  0.50051734  0.87511855  0.37601713  1
  Zn  Zn113  1  0.49813062  0.00457990  0.00273802  1
  Zn  Zn114  1  0.87524261  -0.00067039  0.37445149  1
  Zn  Zn115  1  0.12437521  0.62478982  -0.00034824  1
  Zn  Zn116  1  0.49904424  0.75165316  0.75073661  1
  Zn  Zn117  1  0.24903551  0.49945139  0.24910835  1
  Zn  Zn118  1  0.87436447  0.62401643  0.24996865  1
  Zn  Zn119  1  0.37488409  0.25152048  0.62733963  1
  Zn  Zn120  1  0.37648294  0.87702569  0.00352757  1
  Zn  Zn121  1  0.00006029  0.87484810  0.87479876  1
  Zn  Zn122  1  0.12490982  0.24821948  0.87436367  1
  Zn  Zn123  1  0.62517981  0.12403932  0.00100480  1
  Zn  Zn124  1  0.12545543  0.25021480  0.37402279  1
  Zn  Zn125  1  0.38062149  0.24942844  0.12691265  1
  Zn  Zn126  1  0.37598357  0.75076063  0.12387438  1
  Zn  Zn127  1  0.50029913  0.13188908  0.12397349  1
  Zn  Zn128  1  0.18837022  0.18815389  0.18715454  1
  Zn  Zn129  1  0.18738397  0.18802956  0.68702096  1
  Zn  Zn130  1  0.18576691  0.68691435  0.18637015  1
  Zn  Zn131  1  0.18764310  0.68784368  0.68662167  1
  Zn  Zn132  1  0.68633715  0.18752565  0.18882604  1
  Zn  Zn133  1  0.68619247  0.18867594  0.68883209  1
  Zn  Zn134  1  0.68961181  0.68436568  0.18888815  1
  Zn  Zn135  1  0.68651873  0.68844427  0.68862478  1
  Zn  Zn136  1  0.31277083  0.31050241  0.31121515  1
  Zn  Zn137  1  0.31346492  0.31140460  0.81236325  1
  Zn  Zn138  1  0.31227267  0.81304435  0.31375042  1
  Zn  Zn139  1  0.31275044  0.81501749  0.81304479  1
  Zn  Zn140  1  0.81211969  0.31251363  0.30901739  1
  Zn  Zn141  1  0.81297607  0.31151710  0.81145060  1
  Zn  Zn142  1  0.81442615  0.81118643  0.31293395  1
  Zn  Zn143  1  0.81298290  0.81293903  0.81315778  1
  Zn  Zn144  1  0.18774369  0.43826998  0.43561236  1
  Zn  Zn145  1  0.18575334  0.43682562  0.93741653  1
  Zn  Zn146  1  0.18702486  0.93734607  0.43648442  1
  Zn  Zn147  1  0.18802938  0.93740104  0.93664721  1
  Zn  Zn148  1  0.68782937  0.43801430  0.44001556  1
  Zn  Zn149  1  0.68682878  0.43705852  0.94031429  1
  Zn  Zn150  1  0.68788757  0.93691500  0.43642326  1
  Zn  Zn151  1  0.68875066  0.93777195  0.93926360  1
  Zn  Zn152  1  0.31526867  0.06426897  0.06258918  1
  Zn  Zn153  1  0.31301635  0.06319667  0.56134364  1
  Zn  Zn154  1  0.30995124  0.56302231  0.06267099  1
  Zn  Zn155  1  0.31269589  0.56187991  0.56218854  1
  Zn  Zn156  1  0.81031843  0.06322026  0.06190355  1
  Zn  Zn157  1  0.81400753  0.06214805  0.56205021  1
  Zn  Zn158  1  0.81259184  0.56051343  0.06153250  1
  Zn  Zn159  1  0.81247908  0.56086127  0.56144821  1
  Zn  Zn160  1  0.43784953  0.43684609  0.18685683  1
  Zn  Zn161  1  0.43718563  0.43907972  0.68823677  1
  Zn  Zn162  1  0.43639116  0.93560948  0.19018684  1
  Zn  Zn163  1  0.43786136  0.93933310  0.68928616  1
  Zn  Zn164  1  0.93659712  0.43629311  0.18778818  1
  Zn  Zn165  1  0.93722991  0.43674687  0.68693460  1
  Zn  Zn166  1  0.93766716  0.93737518  0.18740855  1
  Zn  Zn167  1  0.93831418  0.93751697  0.68749128  1
  Zn  Zn168  1  0.06292444  0.06202995  0.31298233  1
  Zn  Zn169  1  0.06305474  0.06303588  0.81416369  1
  Zn  Zn170  1  0.06177468  0.56145270  0.31175321  1
  Zn  Zn171  1  0.06266477  0.56251480  0.81264306  1
  Zn  Zn172  1  0.56055322  0.06283872  0.30984607  1
  Zn  Zn173  1  0.56194611  0.06336226  0.81182346  1
  Zn  Zn174  1  0.56215095  0.56155753  0.31251452  1
  Zn  Zn175  1  0.56027882  0.56332087  0.81250464  1
  Zn  Zn176  1  0.43551272  0.18779886  0.43870201  1
  Zn  Zn177  1  0.44112556  0.18717189  0.94218178  1
  Zn  Zn178  1  0.43780580  0.68766520  0.43744533  1
  Zn  Zn179  1  0.43756661  0.68860388  0.93729955  1
  Zn  Zn180  1  0.93729974  0.18761891  0.43562043  1
  Zn  Zn181  1  0.93639037  0.18899922  0.93825723  1
  Zn  Zn182  1  0.93895517  0.68676490  0.43731551  1
  Zn  Zn183  1  0.93845370  0.68591171  0.93751374  1
  Zn  Zn184  1  0.06212018  0.31186739  0.06185931  1
  Zn  Zn185  1  0.06263436  0.31107892  0.56210040  1
  Zn  Zn186  1  0.06349580  0.81247329  0.06246622  1
  Zn  Zn187  1  0.06330338  0.81111087  0.56250825  1
  Zn  Zn188  1  0.56212631  0.31583213  0.06059913  1
  Zn  Zn189  1  0.56205461  0.31273889  0.56080689  1
  Zn  Zn190  1  0.56304011  0.81336950  0.06349619  1
  Zn  Zn191  1  0.56156375  0.81224514  0.56299947  1
  O  O192  1  0.11932728  0.11820471  0.11947277  1
  O  O193  1  0.11895631  0.11870657  0.61890368  1
  O  O194  1  0.11766140  0.61735753  0.12331239  1
  O  O195  1  0.12045597  0.61963950  0.62032924  1
  O  O196  1  0.62743374  0.11035204  0.12614320  1
  O  O197  1  0.61876088  0.11912667  0.61962502  1
  O  O198  1  0.62619669  0.61672793  0.11894608  1
  O  O199  1  0.62007732  0.62134197  0.62147324  1
  O  O200  1  0.38212688  0.38037387  0.38048709  1
  O  O201  1  0.37879868  0.38230743  0.87974059  1
  O  O202  1  0.37606050  0.88178249  0.38286577  1
  O  O203  1  0.38436936  0.88400865  0.87415487  1
  O  O204  1  0.87876764  0.38151281  0.37971477  1
  O  O205  1  0.88149886  0.38261108  0.87283526  1
  O  O206  1  0.88161562  0.87557085  0.38272436  1
  O  O207  1  0.87592561  0.88147250  0.88164828  1
  O  O208  1  0.25495686  0.00478870  0.37037259  1
  O  O209  1  0.25970808  -0.00067390  0.86896053  1
  O  O210  1  0.25756677  0.50714115  0.37167592  1
  O  O211  1  0.25415072  0.50596605  0.86937233  1
  O  O212  1  0.75053181  0.00634240  0.36845785  1
  O  O213  1  0.75494336  0.00475358  0.86867723  1
  O  O214  1  0.75884738  0.50447808  0.37655412  1
  O  O215  1  0.75400779  0.50550694  0.86916430  1
  O  O216  1  0.24175272  0.49363335  0.12589563  1
  O  O217  1  0.24447812  0.49526814  0.63132930  1
  O  O218  1  0.24405673  0.99418802  0.12996982  1
  O  O219  1  0.24463678  0.99477936  0.62921718  1
  O  O220  1  0.74138630  0.49346123  0.12548606  1
  O  O221  1  0.74412855  0.49509319  0.63094409  1
  O  O222  1  0.74309734  0.99234288  0.13096693  1
  O  O223  1  0.74496487  0.99440228  0.62987119  1
  O  O224  1  0.00471092  0.36878742  0.25444878  1
  O  O225  1  0.00502201  0.36973757  0.75372990  1
  O  O226  1  0.00522378  0.86965677  0.25446780  1
  O  O227  1  0.00643436  0.86774751  0.74991292  1
  O  O228  1  0.50165785  0.37526911  0.26623055  1
  O  O229  1  0.50673427  0.37579423  0.75630931  1
  O  O230  1  0.50669020  0.86346026  0.25353035  1
  O  O231  1  0.50695714  0.87530336  0.76009232  1
  O  O232  1  0.49760754  0.12788133  0.24520791  1
  O  O233  1  0.49992476  0.12500986  0.73637541  1
  O  O234  1  0.49137318  0.63334461  0.25068359  1
  O  O235  1  0.49228047  0.62840267  0.74417193  1
  O  O236  1  0.99537293  0.12856648  0.24473032  1
  O  O237  1  0.99551774  0.12891585  0.74438831  1
  O  O238  1  0.99776656  0.63139520  0.24321512  1
  O  O239  1  0.99405740  0.63037832  0.74396473  1
  O  O240  1  0.36503166  0.25787128  -0.00040905  1
  O  O241  1  0.36740657  0.25793349  0.50268419  1
  O  O242  1  0.36197319  0.75278430  0.00035694  1
  O  O243  1  0.36949867  0.75541071  0.50581555  1
  O  O244  1  0.87056931  0.25386579  0.00402907  1
  O  O245  1  0.86787801  0.25535017  0.50120984  1
  O  O246  1  0.87011370  0.75432791  0.00489028  1
  O  O247  1  0.86974726  0.75472221  0.50659543  1
  O  O248  1  0.13139362  0.24257832  0.49814889  1
  O  O249  1  0.13371982  0.24408225  0.99898923  1
  O  O250  1  0.13254669  0.74272342  0.49969128  1
  O  O251  1  0.13486705  0.74968855  0.99336607  1
  O  O252  1  0.63102037  0.24430273  0.49157252  1
  O  O253  1  0.62819003  0.25212654  0.98407164  1
  O  O254  1  0.63118229  0.74532835  0.49602419  1
  O  O255  1  0.63199108  0.74589114  0.99499421  1
  O  O256  1  0.50113552  0.25270254  0.12955601  1
  O  O257  1  0.50088115  0.23869976  0.62446344  1
  O  O258  1  0.49958648  0.74794744  0.13809712  1
  O  O259  1  0.49302694  0.74496040  0.62791446  1
  O  O260  1  0.99911957  0.24211735  0.13129495  1
  O  O261  1  0.99836976  0.24246734  0.63154302  1
  O  O262  1  0.99537737  0.74439934  0.12897376  1
  O  O263  1  0.99423272  0.74404753  0.63074148  1
  O  O264  1  0.00147540  0.25613115  0.36689818  1
  O  O265  1  0.00137101  0.25638666  0.86729880  1
  O  O266  1  0.00164100  0.75587415  0.36824495  1
  O  O267  1  0.00597823  0.75063608  0.86788588  1
  O  O268  1  0.50932461  0.25877385  0.37957133  1
  O  O269  1  0.50924133  0.25719426  0.87325612  1
  O  O270  1  0.50717034  0.74985585  0.36574895  1
  O  O271  1  0.50560099  0.76063966  0.87329474  1
  O  O272  1  0.24404300  0.12948761  0.49553741  1
  O  O273  1  0.24397649  0.13448391  0.99974297  1
  O  O274  1  0.24555528  0.63057253  0.49538394  1
  O  O275  1  0.24788235  0.63545613  0.99371865  1
  O  O276  1  0.74507658  0.12895543  0.49509981  1
  O  O277  1  0.74561339  0.12655514  0.99012435  1
  O  O278  1  0.74444759  0.63150303  0.49677729  1
  O  O279  1  0.74492199  0.63056807  0.99320289  1
  O  O280  1  0.25352863  0.36799451  0.00429617  1
  O  O281  1  0.25407612  0.37047792  0.50474006  1
  O  O282  1  0.24944277  0.86602456  0.00590066  1
  O  O283  1  0.25491436  0.87040092  0.50607211  1
  O  O284  1  0.75177981  0.37421201  0.01101893  1
  O  O285  1  0.75503014  0.36893607  0.50557108  1
  O  O286  1  0.75665955  0.86817504  0.00569150  1
  O  O287  1  0.75523886  0.86940516  0.50600818  1
  O  O288  1  0.12507008  0.49261241  0.24209431  1
  O  O289  1  0.13036744  0.49499710  0.74409219  1
  O  O290  1  0.13035531  0.99394077  0.24397570  1
  O  O291  1  0.12963160  0.99469722  0.74403841  1
  O  O292  1  0.62682773  0.49936449  0.23911690  1
  O  O293  1  0.63088554  0.49627678  0.74521116  1
  O  O294  1  0.63148286  0.99205161  0.24407439  1
  O  O295  1  0.63181851  0.99464854  0.74424135  1
  O  O296  1  0.36723621  -0.00111075  0.25819202  1
  O  O297  1  0.36865220  0.00143911  0.75880732  1
  O  O298  1  0.37521055  0.51118005  0.25581687  1
  O  O299  1  0.36779555  0.50675818  0.75553458  1
  O  O300  1  0.86801704  0.00540798  0.25087785  1
  O  O301  1  0.86999028  0.00449247  0.75502695  1
  O  O302  1  0.87372927  0.50057736  0.26446692  1
  O  O303  1  0.86882581  0.50611440  0.75436680  1
  O  O304  1  0.11790436  0.37489766  0.36788348  1
  O  O305  1  0.11755190  0.37471613  0.86646075  1
  O  O306  1  0.11853719  0.87292373  0.36843761  1
  O  O307  1  0.12338504  0.86900561  0.86695038  1
  O  O308  1  0.61749470  0.36752593  0.37843952  1
  O  O309  1  0.62043525  0.36995846  0.86958285  1
  O  O310  1  0.62510584  0.86636398  0.36898378  1
  O  O311  1  0.61900675  0.87168227  0.87076329  1
  O  O312  1  0.37977571  0.12858462  0.12676413  1
  O  O313  1  0.38742274  0.12514423  0.62388591  1
  O  O314  1  0.37584314  0.62739272  0.13680883  1
  O  O315  1  0.37907665  0.63071226  0.63005021  1
  O  O316  1  0.88100183  0.12438634  0.13164498  1
  O  O317  1  0.88174625  0.12492450  0.63166576  1
  O  O318  1  0.88110842  0.63067944  0.12563289  1
  O  O319  1  0.87941186  0.62978172  0.63001562  1
  O  O320  1  0.24878935  0.25728603  0.11292774  1
  O  O321  1  0.25028013  0.25773286  0.61775380  1
  O  O322  1  0.24888735  0.75541599  0.11550048  1
  O  O323  1  0.25565902  0.75606606  0.61941935  1
  O  O324  1  0.74676544  0.26125041  0.12398199  1
  O  O325  1  0.74972135  0.25640103  0.61858944  1
  O  O326  1  0.75569469  0.75399808  0.11965528  1
  O  O327  1  0.75527462  0.75536942  0.62038097  1
  O  O328  1  0.24778535  0.24329194  0.38282344  1
  O  O329  1  0.24790140  0.24980594  0.88778435  1
  O  O330  1  0.24873284  0.74335559  0.38244597  1
  O  O331  1  0.24529747  0.74694215  0.88169491  1
  O  O332  1  0.74176939  0.24537903  0.38038009  1
  O  O333  1  0.74067912  0.24466107  0.87212385  1
  O  O334  1  0.74587625  0.74422722  0.38187646  1
  O  O335  1  0.74518294  0.74470007  0.88042522  1
  O  O336  1  0.00530175  0.11875510  0.00566814  1
  O  O337  1  0.00467791  0.11929617  0.50447679  1
  O  O338  1  0.00196464  0.61778297  0.00619214  1
  O  O339  1  0.00704420  0.62375112  0.50736721  1
  O  O340  1  0.50870691  0.12069995  0.00507042  1
  O  O341  1  0.50642429  0.11919289  0.50741284  1
  O  O342  1  0.50768490  0.62492656  0.00235166  1
  O  O343  1  0.50671563  0.62530271  0.50748453  1
  O  O344  1  0.49405900  0.37714874  0.49063640  1
  O  O345  1  0.49180748  0.37929230  0.99118987  1
  O  O346  1  0.49352309  0.88120442  0.49961932  1
  O  O347  1  0.49970030  0.87646083  0.98757736  1
  O  O348  1  0.99349505  0.37518740  0.49346603  1
  O  O349  1  0.99911822  0.38151761  0.99226378  1
  O  O350  1  0.99561750  0.87894118  0.49607972  1
  O  O351  1  0.99381989  0.88151010  0.99927160  1
  O  O352  1  0.49514063  0.49180836  0.37848100  1
  O  O353  1  0.49197354  0.49491099  0.87581898  1
  O  O354  1  0.49454539  0.99804830  0.38251338  1
  O  O355  1  0.49347506  0.99203122  0.87419680  1
  O  O356  1  0.99041887  0.49350459  0.37713432  1
  O  O357  1  0.99436298  0.49526799  0.87837748  1
  O  O358  1  0.99869000  0.99237644  0.38197823  1
  O  O359  1  0.99267226  0.99842401  0.88181146  1
  O  O360  1  0.00601383  0.00495889  0.11947504  1
  O  O361  1  0.00601891  0.00487486  0.61944064  1
  O  O362  1  0.00357089  0.50389463  0.11933959  1
  O  O363  1  0.00659493  0.50653300  0.62418330  1
  O  O364  1  0.51409103  -0.00808258  0.12547742  1
  O  O365  1  0.50625492  0.00676579  0.61936900  1
  O  O366  1  0.51177943  0.50165589  0.12303534  1
  O  O367  1  0.50658494  0.50814242  0.62425471  1
  O  O368  1  0.24278101  0.37630622  0.24306218  1
  O  O369  1  0.24435268  0.38111129  0.74481537  1
  O  O370  1  0.24396699  0.87996980  0.24545866  1
  O  O371  1  0.24418225  0.88096596  0.74326561  1
  O  O372  1  0.74613651  0.37827613  0.23953962  1
  O  O373  1  0.74394676  0.38127891  0.74438126  1
  O  O374  1  0.74604800  0.87804741  0.24505440  1
  O  O375  1  0.74572004  0.88062216  0.74442708  1
  O  O376  1  0.24899622  0.11702941  0.25698758  1
  O  O377  1  0.25116549  0.11689781  0.75175614  1
  O  O378  1  0.25973692  0.62609857  0.25544614  1
  O  O379  1  0.25482516  0.61996823  0.75466400  1
  O  O380  1  0.75492261  0.11937450  0.25561591  1
  O  O381  1  0.75550474  0.11883456  0.75384875  1
  O  O382  1  0.75429413  0.62207806  0.26041419  1
  O  O383  1  0.75509659  0.62003612  0.75491632  1
  O  O384  1  0.36709529  0.11667228  0.37714930  1
  O  O385  1  0.37580760  0.11300319  0.87365436  1
  O  O386  1  0.37053589  0.62064491  0.36784095  1
  O  O387  1  0.36865145  0.62130767  0.86905729  1
  O  O388  1  0.86789679  0.12258137  0.36791125  1
  O  O389  1  0.86949140  0.11864913  0.86840488  1
  O  O390  1  0.86994157  0.61501198  0.37763382  1
  O  O391  1  0.86873902  0.61978548  0.86847928  1
  O  O392  1  0.12937130  0.38063851  0.12987986  1
  O  O393  1  0.13046036  0.38092251  0.63004350  1
  O  O394  1  0.13012509  0.88086776  0.13093486  1
  O  O395  1  0.13086719  0.88043176  0.62962000  1
  O  O396  1  0.63251270  0.38595585  0.12467098  1
  O  O397  1  0.62958099  0.38118411  0.62938142  1
  O  O398  1  0.63283036  0.87915295  0.13173357  1
  O  O399  1  0.63071523  0.88013974  0.63004826  1
  O  O400  1  0.11800145  0.25677408  0.25078020  1
  O  O401  1  0.11853732  0.25689557  0.75085823  1
  O  O402  1  0.11811353  0.75674301  0.25070550  1
  O  O403  1  0.12030748  0.75551073  0.75360771  1
  O  O404  1  0.62420862  0.25239674  0.26617214  1
  O  O405  1  0.62323090  0.25769584  0.75947864  1
  O  O406  1  0.61879759  0.75207554  0.25524676  1
  O  O407  1  0.62472408  0.75771488  0.75768054  1
  O  O408  1  0.37797072  0.24646742  0.24679577  1
  O  O409  1  0.37867096  0.24651058  0.74552118  1
  O  O410  1  0.38363921  0.74150898  0.25199980  1
  O  O411  1  0.37418281  0.74469494  0.74315912  1
  O  O412  1  0.88141374  0.24216942  0.24693976  1
  O  O413  1  0.88157705  0.24229091  0.74744032  1
  O  O414  1  0.88231496  0.74889974  0.24225435  1
  O  O415  1  0.87925849  0.74434266  0.74464189  1
  O  O416  1  0.37616137  0.49393276  0.49326967  1
  O  O417  1  0.37369194  0.49528170  0.99263832  1
  O  O418  1  0.37993859  0.99387661  0.49517447  1
  O  O419  1  0.37617892  0.99615316  0.98793817  1
  O  O420  1  0.87605750  0.49288623  0.49030490  1
  O  O421  1  0.88157666  0.49836900  0.99119915  1
  O  O422  1  0.88200080  0.99218358  0.49926882  1
  O  O423  1  0.87979233  0.99430477  0.99531827  1
  O  O424  1  0.12033740  0.00443107  0.00558283  1
  O  O425  1  0.11974783  0.00465527  0.50633763  1
  O  O426  1  0.11760708  0.50144236  0.00622263  1
  O  O427  1  0.12476779  0.50654954  0.50723775  1
  O  O428  1  0.62541757  -0.00234153  0.01284353  1
  O  O429  1  0.62082547  0.00430570  0.50525908  1
  O  O430  1  0.62379032  0.50749437  0.00850115  1
  O  O431  1  0.62453722  0.50796326  0.50827471  1
  O  O432  1  0.36730241  0.37701799  0.11716871  1
  O  O433  1  0.36794362  0.37698167  0.61834937  1
  O  O434  1  0.36636318  0.87137089  0.12357617  1
  O  O435  1  0.36976497  0.87105224  0.62027896  1
  O  O436  1  0.86310280  0.37503418  0.12398081  1
  O  O437  1  0.86724912  0.37416451  0.61883944  1
  O  O438  1  0.87020839  0.86866616  0.11915773  1
  O  O439  1  0.86946099  0.86889908  0.62031874  1
  O  O440  1  0.13200744  0.12486440  0.38221474  1
  O  O441  1  0.12806342  0.12648160  0.88409314  1
  O  O442  1  0.13162888  0.62489588  0.38105107  1
  O  O443  1  0.13224245  0.63243710  0.87490743  1
  O  O444  1  0.63010475  0.13261417  0.38090936  1
  O  O445  1  0.63065543  0.13473567  0.87157015  1
  O  O446  1  0.63051857  0.62929663  0.38193254  1
  O  O447  1  0.63029019  0.63084266  0.87929366  1
