# generated using pymatgen
data_V3Zn3O8
_symmetry_space_group_name_H-M   'P 1'
_cell_length_a   17.08936331
_cell_length_b   17.08960566
_cell_length_c   17.08947821
_cell_angle_alpha   90.01939041
_cell_angle_beta   90.00266655
_cell_angle_gamma   90.00284050
_symmetry_Int_Tables_number   1
_chemical_formula_structural   V3Zn3O8
_chemical_formula_sum   'V96 Zn96 O256'
_cell_volume   4990.99001748
_cell_formula_units_Z   32
loop_
 _symmetry_equiv_pos_site_id
 _symmetry_equiv_pos_as_xyz
  1  'x, y, z'
loop_
 _atom_site_type_symbol
 _atom_site_label
 _atom_site_symmetry_multiplicity
 _atom_site_fract_x
 _atom_site_fract_y
 _atom_site_fract_z
 _atom_site_occupancy
  V  V0  1  -0.00037611  0.49881628  0.00042669  1
  V  V1  1  0.37480255  0.62603106  0.24969846  1
  V  V2  1  0.62468954  0.74957894  0.87450073  1
  V  V3  1  0.49904462  0.12741338  0.12688757  1
  V  V4  1  0.75028338  0.12445357  0.37456570  1
  V  V5  1  0.50164649  0.37593105  0.37366507  1
  V  V6  1  0.62508338  0.87529068  0.74867423  1
  V  V7  1  0.74985388  0.24919076  0.50113222  1
  V  V8  1  0.87532906  0.87599828  0.49952159  1
  V  V9  1  0.37504351  0.37571949  0.49992116  1
  V  V10  1  0.12498190  0.12347227  0.00014074  1
  V  V11  1  0.25007919  0.49989819  0.24979590  1
  V  V12  1  0.62696895  0.49868503  0.12630287  1
  V  V13  1  0.62585532  -0.00037306  0.12462095  1
  V  V14  1  0.12508131  0.62592743  0.00036254  1
  V  V15  1  0.49991214  0.62605516  0.12415309  1
  V  V16  1  0.75051704  0.87384009  0.12467289  1
  V  V17  1  0.62501697  0.62544272  -0.00120724  1
  V  V18  1  0.62651439  0.12488474  -0.00172172  1
  V  V19  1  0.49927297  0.74986010  0.74977299  1
  V  V20  1  0.25099666  0.37455119  0.12448113  1
  V  V21  1  0.37435668  0.75140699  0.12454207  1
  V  V22  1  0.25051142  0.12488438  0.87515810  1
  V  V23  1  0.12506653  0.74884682  0.87638040  1
  V  V24  1  0.25078961  0.25150309  0.49987406  1
  V  V25  1  0.12465869  0.87558639  0.24980043  1
  V  V26  1  0.37202826  0.87546060  0.50048760  1
  V  V27  1  0.24922199  0.00095479  0.25000263  1
  V  V28  1  0.37414305  0.87496210  0.00032629  1
  V  V29  1  0.25098025  0.25027419  0.00064416  1
  V  V30  1  0.12502527  0.50064497  0.62513319  1
  V  V31  1  0.37502602  -0.00037174  0.87434938  1
  V  V32  1  0.62407375  0.25128430  0.37304845  1
  V  V33  1  0.87525785  0.62255805  0.75033654  1
  V  V34  1  0.87489694  0.87404973  -0.00024828  1
  V  V35  1  0.49983286  0.50030077  -0.00057219  1
  V  V36  1  0.50000708  0.50124485  0.49907438  1
  V  V37  1  0.00043597  0.12595001  0.62462456  1
  V  V38  1  0.62579302  0.49959232  0.62535261  1
  V  V39  1  0.12525912  0.37442930  0.25067899  1
  V  V40  1  0.50001259  0.62558553  0.62486392  1
  V  V41  1  0.87551799  0.12438497  0.25033443  1
  V  V42  1  0.00022066  0.37487712  0.87583156  1
  V  V43  1  0.87564122  0.37372123  0.00080352  1
  V  V44  1  0.87475204  -0.00048529  0.87354023  1
  V  V45  1  0.00128552  0.00046698  -0.00016186  1
  V  V46  1  0.12483705  0.49990326  0.12588818  1
  V  V47  1  0.25087097  0.50019218  0.75079670  1
  V  V48  1  0.49981110  0.87481706  0.87494401  1
  V  V49  1  0.00004628  0.24961755  0.25057969  1
  V  V50  1  0.75157856  -0.00029858  0.25080568  1
  V  V51  1  0.49876253  0.87698589  0.37450952  1
  V  V52  1  0.50043610  -0.00024327  -0.00044070  1
  V  V53  1  0.25184792  0.37530722  0.62457940  1
  V  V54  1  -0.00046767  0.62432030  0.12605358  1
  V  V55  1  0.12613526  0.37497702  0.75051395  1
  V  V56  1  0.50135010  0.37430497  0.87448217  1
  V  V57  1  0.62518212  0.87526437  0.25012467  1
  V  V58  1  0.00060297  0.24977920  0.74959817  1
  V  V59  1  0.37483931  0.37470473  0.00009733  1
  V  V60  1  0.12492882  0.87479625  0.74971351  1
  V  V61  1  0.75015370  0.62308049  0.87439236  1
  V  V62  1  -0.00046401  0.74975244  0.75098950  1
  V  V63  1  0.37538573  0.50114847  0.37442405  1
  V  V64  1  0.75054598  0.12391853  0.87464020  1
  V  V65  1  0.87425006  0.62425056  0.25104282  1
  V  V66  1  0.12451509  0.74988149  0.37690571  1
  V  V67  1  0.87472956  0.74956667  0.12505652  1
  V  V68  1  0.24903526  -0.00076403  0.74935379  1
  V  V69  1  0.25026516  0.12540530  0.37411031  1
  V  V70  1  -0.00069498  0.87456762  0.87505857  1
  V  V71  1  0.37361153  0.75079466  0.62465533  1
  V  V72  1  0.00086367  0.50136326  0.50121266  1
  V  V73  1  0.24902041  0.62586663  0.37540228  1
  V  V74  1  0.24983837  0.87584226  0.12520620  1
  V  V75  1  0.74913171  0.62556431  0.37532875  1
  V  V76  1  0.00009849  0.75053322  0.25084652  1
  V  V77  1  0.37503973  0.50046375  0.87464177  1
  V  V78  1  0.87315345  0.75068100  0.62494328  1
  V  V79  1  0.37486804  0.62456534  0.75066500  1
  V  V80  1  0.12421155  0.00012346  0.62476024  1
  V  V81  1  0.62454264  0.62664828  0.49965546  1
  V  V82  1  0.12519302  0.25067802  0.37419446  1
  V  V83  1  0.12457296  0.12534210  0.50037522  1
  V  V84  1  0.62561358  0.24913316  0.87438711  1
  V  V85  1  0.37426497  0.00111396  0.37464170  1
  V  V86  1  0.87604476  0.12440917  0.74965149  1
  V  V87  1  0.87401408  0.24919052  0.12495756  1
  V  V88  1  0.37703698  0.12664310  0.74697156  1
  V  V89  1  0.62660679  0.37479271  0.74935639  1
  V  V90  1  0.87401131  0.37464314  0.50035751  1
  V  V91  1  0.49947614  0.75150295  0.24941864  1
  V  V92  1  0.12580143  0.24980040  0.87536337  1
  V  V93  1  0.62319547  0.00104421  0.62420388  1
  V  V94  1  0.87422652  0.50164893  0.37536737  1
  V  V95  1  0.62429809  0.75042173  0.37569107  1
  Zn  Zn96  1  0.00155699  0.12225137  0.12555101  1
  Zn  Zn97  1  0.87482421  0.24934859  0.62548498  1
  Zn  Zn98  1  -0.00074714  0.87819238  0.37500252  1
  Zn  Zn99  1  0.24947332  0.74949551  -0.00041634  1
  Zn  Zn100  1  0.87496343  0.49731345  0.87471858  1
  Zn  Zn101  1  0.74992497  0.74993636  0.00044547  1
  Zn  Zn102  1  0.12587577  0.62619836  0.50313381  1
  Zn  Zn103  1  0.74853358  0.87614956  0.62515488  1
  Zn  Zn104  1  0.62258078  0.12346850  0.50061129  1
  Zn  Zn105  1  0.24765074  0.87304720  0.62497962  1
  Zn  Zn106  1  0.00032730  0.37546744  0.37446284  1
  Zn  Zn107  1  -0.00110601  0.00147147  0.49774778  1
  Zn  Zn108  1  0.00162438  0.62449844  0.62676135  1
  Zn  Zn109  1  0.12398883  0.00053471  0.12540806  1
  Zn  Zn110  1  0.87622358  -0.00134465  0.37570173  1
  Zn  Zn111  1  0.75045955  0.49830453  0.25017380  1
  Zn  Zn112  1  0.62712305  0.37623416  0.24896757  1
  Zn  Zn113  1  0.37789328  0.25056762  0.62447746  1
  Zn  Zn114  1  0.24695690  0.74829003  0.50302375  1
  Zn  Zn115  1  0.50054650  0.12824962  0.62111654  1
  Zn  Zn116  1  0.37514195  0.12796785  0.25037964  1
  Zn  Zn117  1  0.74837786  0.75084662  0.50099051  1
  Zn  Zn118  1  0.75023201  0.25102347  0.00040296  1
  Zn  Zn119  1  0.37593061  0.25074621  0.12741335  1
  Zn  Zn120  1  0.25010687  0.62598582  0.87734933  1
  Zn  Zn121  1  0.75275234  0.49713656  0.74786333  1
  Zn  Zn122  1  0.74981889  0.37526597  0.12591792  1
  Zn  Zn123  1  0.50015062  0.24935013  0.74691735  1
  Zn  Zn124  1  0.49872025  0.25312273  0.24882263  1
  Zn  Zn125  1  0.75013276  0.37495400  0.62627265  1
  Zn  Zn126  1  0.49982852  0.00345069  0.49923393  1
  Zn  Zn127  1  0.75037225  -0.00169334  0.74881673  1
  Zn  Zn128  1  0.18724998  0.18649248  0.18610601  1
  Zn  Zn129  1  0.18911908  0.18794081  0.68600574  1
  Zn  Zn130  1  0.18778274  0.68899333  0.18786811  1
  Zn  Zn131  1  0.18840673  0.68635954  0.68851296  1
  Zn  Zn132  1  0.68818861  0.18677879  0.18837522  1
  Zn  Zn133  1  0.68847805  0.18561698  0.68815925  1
  Zn  Zn134  1  0.68859429  0.68665718  0.18872316  1
  Zn  Zn135  1  0.68825867  0.68763163  0.68780849  1
  Zn  Zn136  1  0.31496295  0.31111301  0.31135729  1
  Zn  Zn137  1  0.31293156  0.31227933  0.81302983  1
  Zn  Zn138  1  0.31027751  0.81355115  0.31276489  1
  Zn  Zn139  1  0.31030236  0.81163921  0.81301025  1
  Zn  Zn140  1  0.81040600  0.31537473  0.31079419  1
  Zn  Zn141  1  0.81283403  0.30902587  0.81417827  1
  Zn  Zn142  1  0.81176370  0.81139001  0.31415487  1
  Zn  Zn143  1  0.81016230  0.81184165  0.81162416  1
  Zn  Zn144  1  0.18768903  0.43767825  0.43688984  1
  Zn  Zn145  1  0.18774422  0.43857838  0.93790033  1
  Zn  Zn146  1  0.18716028  0.93830697  0.43732675  1
  Zn  Zn147  1  0.18774094  0.93680769  0.93730857  1
  Zn  Zn148  1  0.68816596  0.43822842  0.43760021  1
  Zn  Zn149  1  0.69013416  0.43653223  0.93902536  1
  Zn  Zn150  1  0.69007580  0.93689512  0.43997766  1
  Zn  Zn151  1  0.68885092  0.93774807  0.93688271  1
  Zn  Zn152  1  0.31259681  0.06179977  0.06330277  1
  Zn  Zn153  1  0.30979078  0.06147852  0.56257920  1
  Zn  Zn154  1  0.31140475  0.56285464  0.06175449  1
  Zn  Zn155  1  0.31154885  0.56354515  0.56200897  1
  Zn  Zn156  1  0.81349204  0.06234654  0.06167413  1
  Zn  Zn157  1  0.81050735  0.06140992  0.56438117  1
  Zn  Zn158  1  0.81275280  0.56227268  0.06099359  1
  Zn  Zn159  1  0.80982217  0.56277821  0.56286824  1
  Zn  Zn160  1  0.43948164  0.43686867  0.18793029  1
  Zn  Zn161  1  0.43927447  0.43780617  0.68709664  1
  Zn  Zn162  1  0.43621486  0.94032264  0.18786468  1
  Zn  Zn163  1  0.43853975  0.93854176  0.68589048  1
  Zn  Zn164  1  0.93769306  0.43583951  0.18833736  1
  Zn  Zn165  1  0.93824485  0.43606317  0.68643374  1
  Zn  Zn166  1  0.93856274  0.93752289  0.18682420  1
  Zn  Zn167  1  0.93898721  0.93828711  0.68605130  1
  Zn  Zn168  1  0.06062093  0.06168369  0.31386233  1
  Zn  Zn169  1  0.06211488  0.06209499  0.81248961  1
  Zn  Zn170  1  0.06147070  0.56284557  0.31422359  1
  Zn  Zn171  1  0.06254476  0.56189626  0.81440867  1
  Zn  Zn172  1  0.56331745  0.06315459  0.31292827  1
  Zn  Zn173  1  0.56226799  0.06134254  0.81063806  1
  Zn  Zn174  1  0.56222916  0.56399456  0.31131497  1
  Zn  Zn175  1  0.56253915  0.56085862  0.81134655  1
  Zn  Zn176  1  0.43836408  0.18700527  0.43908387  1
  Zn  Zn177  1  0.43856523  0.18846505  0.93693921  1
  Zn  Zn178  1  0.43694290  0.68988577  0.43759126  1
  Zn  Zn179  1  0.43692413  0.68807785  0.93746900  1
  Zn  Zn180  1  0.93794334  0.18715009  0.43561765  1
  Zn  Zn181  1  0.93831610  0.18659142  0.93745446  1
  Zn  Zn182  1  0.93812327  0.68757196  0.43840431  1
  Zn  Zn183  1  0.93791803  0.68730777  0.93849969  1
  Zn  Zn184  1  0.06205771  0.31044780  0.06397150  1
  Zn  Zn185  1  0.06331175  0.31312969  0.56294765  1
  Zn  Zn186  1  0.06241711  0.81288027  0.06320722  1
  Zn  Zn187  1  0.05889149  0.81330242  0.56336000  1
  Zn  Zn188  1  0.56318844  0.31215328  0.05952160  1
  Zn  Zn189  1  0.56076702  0.31160109  0.56314069  1
  Zn  Zn190  1  0.56294246  0.81218622  0.06133952  1
  Zn  Zn191  1  0.55930817  0.81515200  0.56188353  1
  O  O192  1  0.12302300  0.12231516  0.11528923  1
  O  O193  1  0.12064947  0.12047561  0.62001887  1
  O  O194  1  0.11899293  0.61941256  0.12186486  1
  O  O195  1  0.12158154  0.61688411  0.62390030  1
  O  O196  1  0.61916435  0.11903777  0.11918651  1
  O  O197  1  0.62361405  0.11406334  0.62521109  1
  O  O198  1  0.61899115  0.61979440  0.11894853  1
  O  O199  1  0.61880661  0.62094928  0.62038465  1
  O  O200  1  0.38040722  0.38251932  0.38018391  1
  O  O201  1  0.38079743  0.38104823  0.87994033  1
  O  O202  1  0.37841792  0.87977963  0.38164735  1
  O  O203  1  0.38067622  0.88003707  0.87948280  1
  O  O204  1  0.87594302  0.38133830  0.38603488  1
  O  O205  1  0.88257118  0.37453009  0.88179731  1
  O  O206  1  0.87617612  0.87309955  0.38635042  1
  O  O207  1  0.87994186  0.87833390  0.87938306  1
  O  O208  1  0.25443482  0.00598700  0.36955084  1
  O  O209  1  0.25581983  0.00543320  0.86943229  1
  O  O210  1  0.25572801  0.50531292  0.36873988  1
  O  O211  1  0.25705260  0.50053106  0.86842182  1
  O  O212  1  0.75083048  0.00632180  0.36779154  1
  O  O213  1  0.75729301  0.00588959  0.87308173  1
  O  O214  1  0.75634145  0.50820878  0.37516079  1
  O  O215  1  0.75153276  0.51258233  0.87263847  1
  O  O216  1  0.24433915  0.49473407  0.13074524  1
  O  O217  1  0.24515619  0.49464238  0.63080608  1
  O  O218  1  0.24910484  0.99329154  0.13172323  1
  O  O219  1  0.24162601  0.99757462  0.63243707  1
  O  O220  1  0.73709432  0.50214886  0.12420493  1
  O  O221  1  0.74117766  0.49685620  0.62741614  1
  O  O222  1  0.74491645  0.99383411  0.13011981  1
  O  O223  1  0.73779620  0.99724781  0.62872955  1
  O  O224  1  0.00754497  0.36841453  0.25217102  1
  O  O225  1  0.00654494  0.36989800  0.75546962  1
  O  O226  1  0.00585953  0.86712827  0.25103382  1
  O  O227  1  0.00488389  0.86922784  0.75613982  1
  O  O228  1  0.50486844  0.37433541  0.25834504  1
  O  O229  1  0.51052105  0.37550143  0.75637870  1
  O  O230  1  0.50552828  0.87070323  0.25393261  1
  O  O231  1  0.50420182  0.86880636  0.75635031  1
  O  O232  1  0.50097314  0.12528495  0.23687165  1
  O  O233  1  0.48643252  0.12535941  0.75068353  1
  O  O234  1  0.49361010  0.63196859  0.24424406  1
  O  O235  1  0.49503539  0.62999454  0.74436101  1
  O  O236  1  0.99369874  0.13215169  0.24833901  1
  O  O237  1  0.99629589  0.13115705  0.74540453  1
  O  O238  1  0.99431886  0.63013845  0.24467266  1
  O  O239  1  0.98910188  0.63009323  0.75177533  1
  O  O240  1  0.36851097  0.25727661  0.00025008  1
  O  O241  1  0.36752507  0.25861348  0.49938890  1
  O  O242  1  0.37530015  0.75719958  0.00684389  1
  O  O243  1  0.37365056  0.75942719  0.50525250  1
  O  O244  1  0.87650343  0.25444535  0.00953808  1
  O  O245  1  0.86692538  0.25886892  0.49816363  1
  O  O246  1  0.87441497  0.75601227  0.00714673  1
  O  O247  1  0.87568377  0.75516904  0.51061664  1
  O  O248  1  0.13124462  0.24639018  0.49441021  1
  O  O249  1  0.13089123  0.24494684  0.99395669  1
  O  O250  1  0.12374003  0.74871643  0.48969061  1
  O  O251  1  0.12399749  0.74347021  0.99438805  1
  O  O252  1  0.63514255  0.25184175  0.49056033  1
  O  O253  1  0.62745121  0.24270182  0.99243727  1
  O  O254  1  0.62306661  0.74444745  0.49366784  1
  O  O255  1  0.62544131  0.74315299  0.99249906  1
  O  O256  1  0.50151576  0.23854042  0.12411651  1
  O  O257  1  0.49510892  0.24667310  0.62937541  1
  O  O258  1  0.49478571  0.74572654  0.13031332  1
  O  O259  1  0.49378976  0.74444042  0.63081100  1
  O  O260  1  0.98983219  0.24771247  0.13151960  1
  O  O261  1  1.00056938  0.24431581  0.63236346  1
  O  O262  1  0.99446884  0.74360989  0.13120599  1
  O  O263  1  0.98891977  0.74671922  0.63232354  1
  O  O264  1  0.00763437  0.25250895  0.36863077  1
  O  O265  1  0.00719989  0.25521685  0.86955989  1
  O  O266  1  0.00998138  0.74879954  0.36896214  1
  O  O267  1  0.00451813  0.75561534  0.87018685  1
  O  O268  1  0.51068345  0.25656075  0.37681941  1
  O  O269  1  0.50764652  0.25710247  0.87277827  1
  O  O270  1  0.50422415  0.75648498  0.36787706  1
  O  O271  1  0.50495399  0.75507604  0.86918621  1
  O  O272  1  0.24407221  0.13154536  0.49439436  1
  O  O273  1  0.24615765  0.12970702  0.99368942  1
  O  O274  1  0.24712169  0.62733365  0.49094858  1
  O  O275  1  0.24115442  0.62745037  0.99887141  1
  O  O276  1  0.75010947  0.13558539  0.49359414  1
  O  O277  1  0.74350385  0.12491441  0.99297139  1
  O  O278  1  0.74213818  0.62807944  0.49382085  1
  O  O279  1  0.74488082  0.62672280  0.98957913  1
  O  O280  1  0.25480518  0.37052309  0.00509518  1
  O  O281  1  0.25573382  0.37190055  0.50480805  1
  O  O282  1  0.25717112  0.87424849  0.00642149  1
  O  O283  1  0.26136082  0.87199931  0.50079327  1
  O  O284  1  0.75976937  0.37206294  0.00343859  1
  O  O285  1  0.75856014  0.36698203  0.49982955  1
  O  O286  1  0.75646906  0.87288495  0.00612667  1
  O  O287  1  0.76122765  0.86972182  0.50357233  1
  O  O288  1  0.13015482  0.49533127  0.24546464  1
  O  O289  1  0.13005183  0.49389950  0.74580965  1
  O  O290  1  0.13146629  0.99316398  0.24976365  1
  O  O291  1  0.12945090  0.99472805  0.74568870  1
  O  O292  1  0.62466497  0.50242585  0.23681034  1
  O  O293  1  0.62595164  0.49036791  0.74474758  1
  O  O294  1  0.63137461  0.99397158  0.24411351  1
  O  O295  1  0.62443441  0.99226408  0.74211049  1
  O  O296  1  0.36730747  0.00191432  0.25742530  1
  O  O297  1  0.36958155  0.00647953  0.75532700  1
  O  O298  1  0.37004958  0.50639884  0.25486824  1
  O  O299  1  0.37118016  0.50491640  0.75513403  1
  O  O300  1  0.86801989  0.00580720  0.24951679  1
  O  O301  1  0.87574604  0.00604412  0.75670919  1
  O  O302  1  0.87656240  0.50708007  0.25721641  1
  O  O303  1  0.87472512  0.50998727  0.75146864  1
  O  O304  1  0.12512846  0.36875474  0.36783378  1
  O  O305  1  0.12071376  0.36943423  0.86999711  1
  O  O306  1  0.12498921  0.86438548  0.36951899  1
  O  O307  1  0.11820377  0.86959689  0.86956472  1
  O  O308  1  0.62002744  0.36740305  0.37558019  1
  O  O309  1  0.62132420  0.37094426  0.86818151  1
  O  O310  1  0.61948085  0.87032043  0.36937692  1
  O  O311  1  0.61874632  0.86966490  0.87042571  1
  O  O312  1  0.38797856  0.12561268  0.12402407  1
  O  O313  1  0.37296974  0.12460662  0.63719351  1
  O  O314  1  0.38048946  0.63013014  0.13005678  1
  O  O315  1  0.38117440  0.62957496  0.63049952  1
  O  O316  1  0.87628140  0.13392250  0.13073885  1
  O  O317  1  0.88207243  0.12662733  0.63141899  1
  O  O318  1  0.88047844  0.62944459  0.13006734  1
  O  O319  1  0.87485774  0.63201857  0.63520032  1
  O  O320  1  0.25107463  0.25714305  0.11764199  1
  O  O321  1  0.25193859  0.25800508  0.61770881  1
  O  O322  1  0.25757665  0.75727285  0.12477168  1
  O  O323  1  0.25765928  0.75253327  0.62351294  1
  O  O324  1  0.76273694  0.25013203  0.12412388  1
  O  O325  1  0.75096033  0.25141251  0.61209530  1
  O  O326  1  0.75629776  0.75567104  0.12401500  1
  O  O327  1  0.76245968  0.75083974  0.62474556  1
  O  O328  1  0.24455585  0.24575202  0.38033723  1
  O  O329  1  0.24454354  0.24519149  0.88092270  1
  O  O330  1  0.23938808  0.74425547  0.37389218  1
  O  O331  1  0.24102269  0.74738458  0.87816429  1
  O  O332  1  0.74305953  0.24635299  0.38211839  1
  O  O333  1  0.74318884  0.24126560  0.87749208  1
  O  O334  1  0.74114122  0.74303543  0.37604363  1
  O  O335  1  0.74345492  0.73864571  0.87552325  1
  O  O336  1  0.00748442  0.11786632  -0.00109830  1
  O  O337  1  0.00720903  0.12676416  0.50672895  1
  O  O338  1  0.00445804  0.61880123  0.00685094  1
  O  O339  1  -0.00039034  0.61124471  0.50329745  1
  O  O340  1  0.50608431  0.11879558  0.00627336  1
  O  O341  1  0.50409748  0.12061651  0.50284244  1
  O  O342  1  0.50499942  0.61981162  0.00464993  1
  O  O343  1  0.50422726  0.62051024  0.50506403  1
  O  O344  1  0.49499298  0.38267960  0.49387650  1
  O  O345  1  0.49477034  0.38121300  0.99360447  1
  O  O346  1  0.48718743  0.87652067  0.49246712  1
  O  O347  1  0.49464212  0.88061946  0.99486119  1
  O  O348  1  0.99132537  0.38374961  0.49924308  1
  O  O349  1  0.99627315  0.37923014  0.99528689  1
  O  O350  1  0.98732398  0.87666835  0.49905238  1
  O  O351  1  0.99425142  0.87959147  0.99400763  1
  O  O352  1  0.49473810  0.49718834  0.38011311  1
  O  O353  1  0.49526641  0.49472127  0.88055836  1
  O  O354  1  0.49314905  0.99312911  0.37428458  1
  O  O355  1  0.49482530  0.99381950  0.88046430  1
  O  O356  1  0.99392662  0.49847509  0.38520987  1
  O  O357  1  0.99920247  0.49229814  0.88246507  1
  O  O358  1  0.99469731  0.99634092  0.37969609  1
  O  O359  1  0.99433779  0.99322518  0.87957761  1
  O  O360  1  0.00227703  0.00134709  0.11513875  1
  O  O361  1  0.00753180  0.00862919  0.62372032  1
  O  O362  1  0.00597809  0.50483766  0.12078095  1
  O  O363  1  0.00615371  0.49963079  0.61649622  1
  O  O364  1  0.50618344  0.00696709  0.11942694  1
  O  O365  1  0.51094785  0.00175673  0.62308630  1
  O  O366  1  0.50702754  0.50694764  0.11882335  1
  O  O367  1  0.50547623  0.50665349  0.61868179  1
  O  O368  1  0.24537794  0.38114401  0.24457527  1
  O  O369  1  0.24547133  0.38052255  0.74512601  1
  O  O370  1  0.24459032  0.88097557  0.24483380  1
  O  O371  1  0.24269512  0.88198704  0.74990389  1
  O  O372  1  0.74561938  0.38143917  0.24426613  1
  O  O373  1  0.73936758  0.37548954  0.74993871  1
  O  O374  1  0.74438982  0.87917478  0.24430206  1
  O  O375  1  0.74007554  0.87633490  0.74825243  1
  O  O376  1  0.25024092  0.11909027  0.25659860  1
  O  O377  1  0.25678509  0.11974775  0.75613792  1
  O  O378  1  0.25582470  0.61914225  0.25441964  1
  O  O379  1  0.25765969  0.61717810  0.75255168  1
  O  O380  1  0.75534721  0.11890151  0.25498017  1
  O  O381  1  0.75843139  0.12314232  0.75733948  1
  O  O382  1  0.75710770  0.62281383  0.25709204  1
  O  O383  1  0.75843333  0.62434004  0.75831744  1
  O  O384  1  0.36751432  0.11858042  0.37499412  1
  O  O385  1  0.36987634  0.11906235  0.86833082  1
  O  O386  1  0.37058795  0.62088294  0.36867272  1
  O  O387  1  0.37543275  0.61824981  0.86851569  1
  O  O388  1  0.86717970  0.12513354  0.36774180  1
  O  O389  1  0.87123068  0.11918169  0.86964524  1
  O  O390  1  0.86942979  0.62131969  0.37087007  1
  O  O391  1  0.86722588  0.62575214  0.86677940  1
  O  O392  1  0.13082678  0.38053679  0.13041802  1
  O  O393  1  0.13171449  0.38079720  0.63125166  1
  O  O394  1  0.13188707  0.87540246  0.13203374  1
  O  O395  1  0.12416910  0.88080000  0.63245472  1
  O  O396  1  0.62421121  0.38746880  0.12321098  1
  O  O397  1  0.62478835  0.38069496  0.63421882  1
  O  O398  1  0.62979184  0.87979307  0.13009856  1
  O  O399  1  0.62408128  0.88148203  0.63085654  1
  O  O400  1  0.12064452  0.25524819  0.25437636  1
  O  O401  1  0.12167785  0.25558077  0.75611891  1
  O  O402  1  0.11990248  0.75471009  0.25769569  1
  O  O403  1  0.11847452  0.75444557  0.75535123  1
  O  O404  1  0.62480174  0.25170607  0.26268076  1
  O  O405  1  0.62462788  0.25948095  0.75538236  1
  O  O406  1  0.61850219  0.75552096  0.25476945  1
  O  O407  1  0.61799659  0.75420477  0.75478289  1
  O  O408  1  0.38054747  0.24589079  0.24555826  1
  O  O409  1  0.37451360  0.23864265  0.74982779  1
  O  O410  1  0.38015766  0.74578893  0.24487484  1
  O  O411  1  0.38071685  0.74499737  0.74543102  1
  O  O412  1  0.87946787  0.24556612  0.24335306  1
  O  O413  1  0.88312884  0.24362430  0.74847536  1
  O  O414  1  0.88029499  0.74411555  0.24478510  1
  O  O415  1  0.87933364  0.74276722  0.74393870  1
  O  O416  1  0.38066538  0.49615577  0.49362650  1
  O  O417  1  0.38051592  0.49503224  0.99479675  1
  O  O418  1  0.37350055  0.99022231  0.49401048  1
  O  O419  1  0.38078257  0.99452938  0.99356265  1
  O  O420  1  0.88121647  0.49335349  0.49678568  1
  O  O421  1  0.88288548  0.49292365  0.99948745  1
  O  O422  1  0.87474088  0.98852166  0.50070835  1
  O  O423  1  0.88082177  0.99358074  0.99340350  1
  O  O424  1  0.11892886  0.00579839  -0.00125753  1
  O  O425  1  0.12472014  0.00735491  0.50663459  1
  O  O426  1  0.11936077  0.50460445  0.00689099  1
  O  O427  1  0.11546804  0.49905466  0.50497434  1
  O  O428  1  0.61936885  0.00419971  0.00514620  1
  O  O429  1  0.62377577  -0.00017788  0.51044981  1
  O  O430  1  0.61897989  0.50595338  0.00620914  1
  O  O431  1  0.61868846  0.50653774  0.50466116  1
  O  O432  1  0.36926714  0.37607034  0.11743742  1
  O  O433  1  0.36913066  0.37671547  0.61788484  1
  O  O434  1  0.37086436  0.87069430  0.12003539  1
  O  O435  1  0.37447329  0.87004191  0.61599500  1
  O  O436  1  0.87630714  0.36487393  0.11939213  1
  O  O437  1  0.87275055  0.37249725  0.61280961  1
  O  O438  1  0.86956678  0.86885005  0.11955895  1
  O  O439  1  0.87456786  0.86561737  0.61997420  1
  O  O440  1  0.13108797  0.13153007  0.38067877  1
  O  O441  1  0.13150019  0.13055882  0.87912823  1
  O  O442  1  0.13036848  0.63442297  0.37466838  1
  O  O443  1  0.12452759  0.63115597  0.88223884  1
  O  O444  1  0.63165085  0.13490788  0.37595034  1
  O  O445  1  0.62946554  0.12846738  0.87876739  1
  O  O446  1  0.62799114  0.63084046  0.38032288  1
  O  O447  1  0.63145222  0.62903915  0.87790125  1
