# generated using pymatgen
data_V3Zn3O8
_symmetry_space_group_name_H-M   'P 1'
_cell_length_a   17.08742535
_cell_length_b   17.08598996
_cell_length_c   17.08815890
_cell_angle_alpha   90.00868836
_cell_angle_beta   89.99021374
_cell_angle_gamma   90.01237313
_symmetry_Int_Tables_number   1
_chemical_formula_structural   V3Zn3O8
_chemical_formula_sum   'V96 Zn96 O256'
_cell_volume   4988.98306101
_cell_formula_units_Z   32
loop_
 _symmetry_equiv_pos_site_id
 _symmetry_equiv_pos_as_xyz
  1  'x, y, z'
loop_
 _atom_site_type_symbol
 _atom_site_label
 _atom_site_symmetry_multiplicity
 _atom_site_fract_x
 _atom_site_fract_y
 _atom_site_fract_z
 _atom_site_occupancy
  V  V0  1  0.00103619  0.74931314  0.24983637  1
  V  V1  1  0.37371051  0.12487629  0.25125528  1
  V  V2  1  0.50204095  0.75127954  0.25003901  1
  V  V3  1  0.37574262  0.24938286  0.62598805  1
  V  V4  1  0.87495917  0.62490527  0.25050820  1
  V  V5  1  0.12663484  0.74966217  0.37579453  1
  V  V6  1  0.25038942  0.12429867  0.37597713  1
  V  V7  1  0.24904120  0.49894311  0.24965068  1
  V  V8  1  0.37649572  0.75009972  0.62396338  1
  V  V9  1  0.87512776  -0.00016750  0.37410446  1
  V  V10  1  0.00017191  0.12563830  0.62674352  1
  V  V11  1  0.12634238  0.00010440  0.62577520  1
  V  V12  1  0.62468318  0.49946233  0.12424539  1
  V  V13  1  0.12364393  0.37530110  0.75060299  1
  V  V14  1  0.49989897  0.12454631  0.12293155  1
  V  V15  1  0.50189884  0.87447520  0.37442640  1
  V  V16  1  0.62640913  0.00004187  0.62363401  1
  V  V17  1  0.12453404  0.75069750  0.87437613  1
  V  V18  1  0.62636325  0.87475280  0.74894942  1
  V  V19  1  0.75121016  0.62538233  0.37539395  1
  V  V20  1  0.49904637  0.25121244  0.25002032  1
  V  V21  1  0.87498419  0.50045112  0.37498532  1
  V  V22  1  0.75261070  0.87423446  0.62440831  1
  V  V23  1  0.62556534  0.74941767  0.87522993  1
  V  V24  1  0.49884349  0.62597344  0.12461105  1
  V  V25  1  0.37578270  0.00050051  0.37528234  1
  V  V26  1  0.62552362  -0.00076932  0.12537018  1
  V  V27  1  0.74942398  0.12558004  0.87423136  1
  V  V28  1  0.12453732  0.49982999  0.12604854  1
  V  V29  1  0.49717051  0.50039000  -0.00015762  1
  V  V30  1  0.75115023  0.00055685  0.74994081  1
  V  V31  1  0.74948697  0.49886995  0.74995565  1
  V  V32  1  0.74988756  0.74983334  -0.00020006  1
  V  V33  1  0.62596526  0.62467601  0.49888235  1
  V  V34  1  0.25060070  0.75091091  0.00023085  1
  V  V35  1  0.12554206  0.62415072  0.50038101  1
  V  V36  1  0.50077904  0.50002772  0.49866983  1
  V  V37  1  0.24977337  0.37498755  0.62449042  1
  V  V38  1  0.87367128  0.87489252  0.00052717  1
  V  V39  1  0.00025897  0.37333693  0.37480041  1
  V  V40  1  0.24985376  0.50021956  0.74949050  1
  V  V41  1  -0.00207582  0.12500199  0.12617284  1
  V  V42  1  0.49962251  0.12628592  0.62570298  1
  V  V43  1  0.62667951  0.12507055  0.49859717  1
  V  V44  1  0.37136233  0.37580380  0.00075490  1
  V  V45  1  0.12539103  0.87448518  0.75064575  1
  V  V46  1  0.37662743  0.87474745  0.50116742  1
  V  V47  1  0.87395939  0.24931910  0.12762079  1
  V  V48  1  0.12681973  0.87472421  0.25019448  1
  V  V49  1  0.75181784  0.74891948  0.50045010  1
  V  V50  1  0.50173839  -0.00028909  0.49991234  1
  V  V51  1  0.49830189  0.87696307  0.87578762  1
  V  V52  1  0.12496416  0.50042434  0.62422748  1
  V  V53  1  0.12323183  0.24968353  0.37492138  1
  V  V54  1  0.87454146  0.37553121  0.00015182  1
  V  V55  1  0.74862711  0.25166581  -0.00009810  1
  V  V56  1  0.12300824  0.25061200  0.87568699  1
  V  V57  1  0.50169787  0.62371628  0.62338196  1
  V  V58  1  0.00222337  0.87424331  0.37692126  1
  V  V59  1  0.87382868  0.37488752  0.50037959  1
  V  V60  1  0.24986914  0.12449319  0.87459444  1
  V  V61  1  0.87719095  0.87322463  0.50076464  1
  V  V62  1  0.75039819  0.24954385  0.49882161  1
  V  V63  1  -0.00135204  0.50019922  0.00055126  1
  V  V64  1  0.25202164  0.00170293  0.75202439  1
  V  V65  1  0.87416483  0.75082727  0.12430919  1
  V  V66  1  0.37543218  0.75135232  0.12369026  1
  V  V67  1  0.00006941  0.87485146  0.87426845  1
  V  V68  1  0.12432938  0.62547697  -0.00029968  1
  V  V69  1  0.87351159  0.00116543  0.87501792  1
  V  V70  1  0.50153940  0.74895306  0.74920690  1
  V  V71  1  0.37601571  0.62403830  0.74901864  1
  V  V72  1  -0.00043412  0.37532451  0.87594296  1
  V  V73  1  0.24791801  0.25013700  0.00152317  1
  V  V74  1  0.49966291  0.37559727  0.37527236  1
  V  V75  1  0.00021385  0.50023888  0.50095581  1
  V  V76  1  0.25177334  0.87513618  0.62561717  1
  V  V77  1  0.37199537  0.25054086  0.12512362  1
  V  V78  1  0.25014728  0.87483705  0.12440880  1
  V  V79  1  0.12386759  0.12501528  0.00042717  1
  V  V80  1  0.12498950  -0.00093292  0.12532911  1
  V  V81  1  0.62252712  0.25057178  0.87531102  1
  V  V82  1  0.62590936  0.24906947  0.37452072  1
  V  V83  1  0.25187568  0.62480239  0.37497473  1
  V  V84  1  -0.00134643  -0.00004108  -0.00012558  1
  V  V85  1  0.74891128  0.62552353  0.87497752  1
  V  V86  1  -0.00024724  0.62552996  0.12471055  1
  V  V87  1  0.37400502  0.49975059  0.87574635  1
  V  V88  1  0.62427093  0.37546731  0.24865741  1
  V  V89  1  0.87632692  0.62604661  0.74921511  1
  V  V90  1  0.12639549  0.12444626  0.50138092  1
  V  V91  1  0.25016862  0.25054913  0.50027535  1
  V  V92  1  0.37593724  0.37559250  0.49926770  1
  V  V93  1  0.24961314  0.62580292  0.87450913  1
  V  V94  1  0.62356583  0.37451863  0.74917080  1
  V  V95  1  0.87506609  0.24989676  0.62474523  1
  Zn  Zn96  1  0.87471984  0.49954720  0.87654805  1
  Zn  Zn97  1  -0.00241454  0.25173487  0.75119119  1
  Zn  Zn98  1  0.24582922  0.37356290  0.12723786  1
  Zn  Zn99  1  0.87961248  0.75029344  0.62561979  1
  Zn  Zn100  1  0.37429442  0.87781033  -0.00142849  1
  Zn  Zn101  1  0.37576655  0.49980216  0.37294419  1
  Zn  Zn102  1  0.12248436  0.37238973  0.24940761  1
  Zn  Zn103  1  0.25061675  -0.00086378  0.25001850  1
  Zn  Zn104  1  0.62427352  0.62474325  -0.00088606  1
  Zn  Zn105  1  0.00100126  0.62641057  0.62581724  1
  Zn  Zn106  1  0.75094000  0.12290899  0.37240923  1
  Zn  Zn107  1  0.25140024  0.74999227  0.50019012  1
  Zn  Zn108  1  0.49795221  0.00119165  -0.00221491  1
  Zn  Zn109  1  0.75190028  -0.00038160  0.24816708  1
  Zn  Zn110  1  0.00193517  -0.00233722  0.50120781  1
  Zn  Zn111  1  0.37610382  0.62429234  0.25025801  1
  Zn  Zn112  1  0.74994956  0.37380539  0.62462672  1
  Zn  Zn113  1  0.62518875  0.49782453  0.62331122  1
  Zn  Zn114  1  0.37644532  0.00316465  0.87569789  1
  Zn  Zn115  1  0.37649787  0.12659996  0.75204436  1
  Zn  Zn116  1  0.75016979  0.49983288  0.24912235  1
  Zn  Zn117  1  0.00066039  0.74891922  0.74870485  1
  Zn  Zn118  1  0.62952219  0.87664332  0.25124044  1
  Zn  Zn119  1  0.62770548  0.75168486  0.37341481  1
  Zn  Zn120  1  0.74984452  0.37569284  0.12570924  1
  Zn  Zn121  1  0.49714947  0.25009362  0.75084810  1
  Zn  Zn122  1  0.87492846  0.12760296  0.75047084  1
  Zn  Zn123  1  0.00016904  0.24906481  0.25132429  1
  Zn  Zn124  1  0.49605759  0.37456109  0.87392840  1
  Zn  Zn125  1  0.62318687  0.12466669  -0.00121225  1
  Zn  Zn126  1  0.74823180  0.87559173  0.12613628  1
  Zn  Zn127  1  0.87445665  0.12479772  0.25288792  1
  Zn  Zn128  1  0.18600291  0.18558301  0.18973095  1
  Zn  Zn129  1  0.18735967  0.18897004  0.68978682  1
  Zn  Zn130  1  0.18803100  0.68721229  0.18752418  1
  Zn  Zn131  1  0.18861942  0.68872141  0.68673856  1
  Zn  Zn132  1  0.69000588  0.18395031  0.19022001  1
  Zn  Zn133  1  0.68858638  0.18722930  0.68690969  1
  Zn  Zn134  1  0.68766988  0.68598765  0.18663730  1
  Zn  Zn135  1  0.68885804  0.68718837  0.68528990  1
  Zn  Zn136  1  0.31142871  0.31271242  0.31334108  1
  Zn  Zn137  1  0.31037193  0.31151236  0.81290317  1
  Zn  Zn138  1  0.31499952  0.81262245  0.31115238  1
  Zn  Zn139  1  0.31336255  0.81212014  0.81062055  1
  Zn  Zn140  1  0.81010445  0.31464740  0.31164291  1
  Zn  Zn141  1  0.81282571  0.31203661  0.81247992  1
  Zn  Zn142  1  0.81187983  0.81475976  0.31133235  1
  Zn  Zn143  1  0.81306382  0.81224094  0.81290418  1
  Zn  Zn144  1  0.18656545  0.43700227  0.43633511  1
  Zn  Zn145  1  0.18666247  0.43767400  0.93854375  1
  Zn  Zn146  1  0.18968754  0.93787371  0.43942731  1
  Zn  Zn147  1  0.18748602  0.93822418  0.93795945  1
  Zn  Zn148  1  0.68813207  0.43759387  0.43633409  1
  Zn  Zn149  1  0.68711788  0.43681531  0.93744095  1
  Zn  Zn150  1  0.68984329  0.93515306  0.43671026  1
  Zn  Zn151  1  0.68501878  0.93822027  0.94015472  1
  Zn  Zn152  1  0.31311115  0.05990861  0.05980960  1
  Zn  Zn153  1  0.31423202  0.06252075  0.56384731  1
  Zn  Zn154  1  0.31199657  0.56443552  0.06432541  1
  Zn  Zn155  1  0.31406939  0.56125008  0.56103761  1
  Zn  Zn156  1  0.80893300  0.06514539  0.06076225  1
  Zn  Zn157  1  0.81416300  0.06194796  0.55915594  1
  Zn  Zn158  1  0.81141650  0.56373853  0.06245523  1
  Zn  Zn159  1  0.81211874  0.56188100  0.56463861  1
  Zn  Zn160  1  0.43506017  0.43743920  0.18681325  1
  Zn  Zn161  1  0.43843024  0.43726842  0.68601404  1
  Zn  Zn162  1  0.43768278  0.93703577  0.18777071  1
  Zn  Zn163  1  0.43767250  0.93962252  0.68953611  1
  Zn  Zn164  1  0.93794600  0.43612539  0.18882653  1
  Zn  Zn165  1  0.93728852  0.43819424  0.68728240  1
  Zn  Zn166  1  0.93869533  0.93570424  0.18881940  1
  Zn  Zn167  1  0.93806898  0.93870218  0.68863728  1
  Zn  Zn168  1  0.06038934  0.06201778  0.31141766  1
  Zn  Zn169  1  0.06295124  0.06208034  0.81180513  1
  Zn  Zn170  1  0.06295737  0.56135927  0.31339868  1
  Zn  Zn171  1  0.06148445  0.56111561  0.81349874  1
  Zn  Zn172  1  0.56250795  0.06280162  0.31064924  1
  Zn  Zn173  1  0.56315357  0.06333579  0.80911637  1
  Zn  Zn174  1  0.56368909  0.56412418  0.31237532  1
  Zn  Zn175  1  0.56226759  0.56135601  0.81346567  1
  Zn  Zn176  1  0.43876245  0.18792488  0.43889766  1
  Zn  Zn177  1  0.43521810  0.18862139  0.93773990  1
  Zn  Zn178  1  0.43811209  0.68768495  0.43646032  1
  Zn  Zn179  1  0.43754618  0.68818990  0.93800977  1
  Zn  Zn180  1  0.93856516  0.18598062  0.44013577  1
  Zn  Zn181  1  0.93608931  0.18817168  0.93946515  1
  Zn  Zn182  1  0.93859784  0.68722329  0.43838806  1
  Zn  Zn183  1  0.93620872  0.68761488  0.93523508  1
  Zn  Zn184  1  0.06065907  0.31355481  0.06405476  1
  Zn  Zn185  1  0.06160230  0.31226716  0.56154339  1
  Zn  Zn186  1  0.06220672  0.81301064  0.06169775  1
  Zn  Zn187  1  0.06313494  0.80930287  0.56430916  1
  Zn  Zn188  1  0.55869361  0.31480416  0.06082484  1
  Zn  Zn189  1  0.56299256  0.31162288  0.56285248  1
  Zn  Zn190  1  0.56391884  0.81367915  0.06139494  1
  Zn  Zn191  1  0.56527422  0.81109763  0.56090770  1
  O  O192  1  0.11868505  0.11908140  0.11952691  1
  O  O193  1  0.11919889  0.12127900  0.62119806  1
  O  O194  1  0.11874555  0.62106845  0.11891579  1
  O  O195  1  0.12760781  0.61731613  0.61865017  1
  O  O196  1  0.61371072  0.12023296  0.12445723  1
  O  O197  1  0.62053776  0.11928036  0.61845288  1
  O  O198  1  0.61797163  0.61484122  0.12312785  1
  O  O199  1  0.61858433  0.62307619  0.61795184  1
  O  O200  1  0.38194361  0.37512394  0.38198301  1
  O  O201  1  0.37275769  0.38225624  0.88155854  1
  O  O202  1  0.38114988  0.88040783  0.38114700  1
  O  O203  1  0.38822527  0.87431445  0.87247574  1
  O  O204  1  0.87981035  0.38062361  0.38093011  1
  O  O205  1  0.88136124  0.37574873  0.88222372  1
  O  O206  1  0.88304777  0.88023079  0.38092564  1
  O  O207  1  0.88011204  0.88101145  0.88068328  1
  O  O208  1  0.25812998  0.00672427  0.37494648  1
  O  O209  1  0.24861725  0.00688611  0.86896061  1
  O  O210  1  0.24888077  0.50878446  0.36691746  1
  O  O211  1  0.25374543  0.50681151  0.86940324  1
  O  O212  1  0.76374171  -0.00126295  0.37529404  1
  O  O213  1  0.75343482  0.00521672  0.87028855  1
  O  O214  1  0.75775478  0.50719482  0.37345903  1
  O  O215  1  0.74975435  0.50552949  0.86498841  1
  O  O216  1  0.24326656  0.50188229  0.13482982  1
  O  O217  1  0.24567459  0.49408667  0.63005986  1
  O  O218  1  0.24237426  0.99348535  0.12587197  1
  O  O219  1  0.24580940  0.99504931  0.63136941  1
  O  O220  1  0.73682792  0.49964186  0.12537084  1
  O  O221  1  0.74700843  0.49744321  0.63845316  1
  O  O222  1  0.73787116  1.00042575  0.12367093  1
  O  O223  1  0.74538355  0.99456855  0.62899084  1
  O  O224  1  0.00167831  0.37221475  0.26035518  1
  O  O225  1  0.00665888  0.37581481  0.75723903  1
  O  O226  1  0.00756461  0.86736532  0.25607136  1
  O  O227  1  0.00759792  0.87532993  0.75749654  1
  O  O228  1  0.50354192  0.36969956  0.25502636  1
  O  O229  1  0.51105760  0.37430080  0.75242207  1
  O  O230  1  0.50041654  0.86556825  0.25587644  1
  O  O231  1  0.50702449  0.86895956  0.75538077  1
  O  O232  1  0.49334120  0.13210805  0.24181233  1
  O  O233  1  0.49869104  0.12839650  0.74027467  1
  O  O234  1  0.49824996  0.63452423  0.24454003  1
  O  O235  1  0.49521683  0.62914821  0.74424240  1
  O  O236  1  0.99537346  0.12789569  0.24110481  1
  O  O237  1  1.00017295  0.12717997  0.73782384  1
  O  O238  1  0.99567252  0.63025466  0.24476037  1
  O  O239  1  0.98820195  0.62331091  0.75070626  1
  O  O240  1  0.36725155  0.25559712  0.00567854  1
  O  O241  1  0.36946784  0.25604317  0.50546406  1
  O  O242  1  0.36752429  0.75230176  0.00539761  1
  O  O243  1  0.37536892  0.75660054  0.50679558  1
  O  O244  1  0.86899481  0.25588164  0.00840973  1
  O  O245  1  0.86985837  0.25555447  0.50497470  1
  O  O246  1  0.87022127  0.75495466  0.00452888  1
  O  O247  1  0.86971858  0.75558369  0.50161235  1
  O  O248  1  0.13165251  0.24413244  0.49558865  1
  O  O249  1  0.12821489  0.24439720  0.99581070  1
  O  O250  1  0.12944296  0.74286223  0.49311585  1
  O  O251  1  0.13005202  0.74417959  0.99447541  1
  O  O252  1  0.63018144  0.24495744  0.49414446  1
  O  O253  1  0.62871695  0.25297623  0.98930379  1
  O  O254  1  0.63327207  0.74249854  0.49785340  1
  O  O255  1  0.63180169  0.74808723  0.99304231  1
  O  O256  1  0.49323603  0.24297109  0.12992197  1
  O  O257  1  0.49364774  0.24371968  0.62506087  1
  O  O258  1  0.49582321  0.74650123  0.13096385  1
  O  O259  1  0.49616704  0.74427321  0.63011836  1
  O  O260  1  0.98931880  0.24368442  0.12374443  1
  O  O261  1  0.99475272  0.24136617  0.62544820  1
  O  O262  1  0.99530560  0.74435236  0.12964214  1
  O  O263  1  0.99795445  0.74419744  0.63115193  1
  O  O264  1  0.00566789  0.25559111  0.37679422  1
  O  O265  1  0.00584753  0.25646577  0.87528232  1
  O  O266  1  0.00712413  0.75395787  0.36910994  1
  O  O267  1  0.00711981  0.75693140  0.87371757  1
  O  O268  1  0.50557110  0.25553623  0.36961525  1
  O  O269  1  0.51024308  0.25208933  0.87332430  1
  O  O270  1  0.50051537  0.75514313  0.36538370  1
  O  O271  1  0.50551828  0.75582807  0.86782491  1
  O  O272  1  0.24605893  0.13109011  0.49577132  1
  O  O273  1  0.24245631  0.13043784  0.99515691  1
  O  O274  1  0.24516367  0.62401848  0.48980673  1
  O  O275  1  0.24361515  0.63051263  0.99406382  1
  O  O276  1  0.74329667  0.13115468  0.49713729  1
  O  O277  1  0.74519916  0.13399090  0.99151868  1
  O  O278  1  0.74635335  0.62905642  0.49535638  1
  O  O279  1  0.74883661  0.63158585  0.99212236  1
  O  O280  1  0.25378034  0.36824668  0.00272950  1
  O  O281  1  0.25518042  0.37026614  0.50503164  1
  O  O282  1  0.24896771  0.86735422  0.00622009  1
  O  O283  1  0.25890236  0.87377601  0.50768385  1
  O  O284  1  0.75638673  0.36908579  0.00180455  1
  O  O285  1  0.75608494  0.36861735  0.50140642  1
  O  O286  1  0.75680266  0.86776827  0.00050925  1
  O  O287  1  0.75681416  0.86847056  0.50574689  1
  O  O288  1  0.13348728  0.50023499  0.24452588  1
  O  O289  1  0.13118216  0.49535798  0.74490145  1
  O  O290  1  0.12606408  0.99242812  0.24318933  1
  O  O291  1  0.13195688  0.99381477  0.74499933  1
  O  O292  1  0.62315675  0.49481657  0.23914496  1
  O  O293  1  0.63259389  0.49133790  0.75055461  1
  O  O294  1  0.62436203  0.99984584  0.23731410  1
  O  O295  1  0.63183827  0.99395884  0.74267453  1
  O  O296  1  0.37464767  0.00692592  0.25758801  1
  O  O297  1  0.36614649  0.00344113  0.75307546  1
  O  O298  1  0.36298053  0.50313411  0.25145623  1
  O  O299  1  0.36918803  0.50471557  0.75463678  1
  O  O300  1  0.87776577  -0.00125934  0.26297639  1
  O  O301  1  0.86819998  0.00206789  0.75753447  1
  O  O302  1  0.87455067  0.50751769  0.25616898  1
  O  O303  1  0.86514559  0.50618319  0.75264483  1
  O  O304  1  0.11760392  0.36727200  0.37652073  1
  O  O305  1  0.11957000  0.37044137  0.87071667  1
  O  O306  1  0.12275100  0.86956623  0.37073383  1
  O  O307  1  0.11974312  0.87020020  0.87058450  1
  O  O308  1  0.61869613  0.36913756  0.36893181  1
  O  O309  1  0.62360079  0.36649642  0.86628186  1
  O  O310  1  0.61668442  0.87251120  0.37300073  1
  O  O311  1  0.61812439  0.86948195  0.86811184  1
  O  O312  1  0.38142969  0.12987196  0.13043316  1
  O  O313  1  0.38176567  0.13232453  0.62496209  1
  O  O314  1  0.38104758  0.63334207  0.12694606  1
  O  O315  1  0.38112022  0.62955281  0.62961603  1
  O  O316  1  0.87989989  0.13509508  0.12225768  1
  O  O317  1  0.88521036  0.12990173  0.62398170  1
  O  O318  1  0.88102044  0.63091106  0.13012300  1
  O  O319  1  0.87571716  0.62511360  0.63783854  1
  O  O320  1  0.25432469  0.24934826  0.11939188  1
  O  O321  1  0.25407692  0.25614243  0.61914429  1
  O  O322  1  0.25456305  0.75447226  0.11966212  1
  O  O323  1  0.25888109  0.75686822  0.62423095  1
  O  O324  1  0.75797974  0.25054748  0.11869963  1
  O  O325  1  0.75764448  0.25003627  0.61741995  1
  O  O326  1  0.75686584  0.74956875  0.11772304  1
  O  O327  1  0.75320485  0.75722676  0.61879163  1
  O  O328  1  0.24465091  0.24391384  0.38186742  1
  O  O329  1  0.24197005  0.24491142  0.88188375  1
  O  O330  1  0.24559939  0.74016771  0.37427057  1
  O  O331  1  0.24492324  0.74480253  0.87949792  1
  O  O332  1  0.74312150  0.24904236  0.38124052  1
  O  O333  1  0.74140970  0.24585258  0.87948879  1
  O  O334  1  0.75084443  0.74312324  0.38197512  1
  O  O335  1  0.74419722  0.74539116  0.87967037  1
  O  O336  1  0.00472686  0.11881946  0.00563691  1
  O  O337  1  0.00798218  0.12331757  0.51245296  1
  O  O338  1  0.00469050  0.62068804  0.00495193  1
  O  O339  1  0.00788596  0.61723942  0.50013407  1
  O  O340  1  0.50035024  0.12678363  0.01318372  1
  O  O341  1  0.50656752  0.11895037  0.50549225  1
  O  O342  1  0.50084044  0.61856235  0.00638327  1
  O  O343  1  0.50536157  0.62001570  0.50370896  1
  O  O344  1  0.49597313  0.37983179  0.49459877  1
  O  O345  1  0.48893872  0.38240731  0.99763557  1
  O  O346  1  0.49597571  0.88045333  0.49553073  1
  O  O347  1  0.49961254  0.87387009  0.98534470  1
  O  O348  1  0.99376129  0.38082152  0.49453537  1
  O  O349  1  0.99452496  0.38123360  0.99527906  1
  O  O350  1  0.99606868  0.87450435  0.49407873  1
  O  O351  1  0.99449218  0.88080060  0.99390647  1
  O  O352  1  0.49883944  0.49361728  0.38001668  1
  O  O353  1  0.49120383  0.49973735  0.88145708  1
  O  O354  1  0.49507701  0.99530320  0.38088220  1
  O  O355  1  0.50194889  0.98885129  0.87328670  1
  O  O356  1  0.99475381  0.49457222  0.38150789  1
  O  O357  1  0.99914561  0.49328412  0.88387245  1
  O  O358  1  0.99408253  0.99193992  0.37838150  1
  O  O359  1  0.99446431  0.99534682  0.88072666  1
  O  O360  1  0.00474132  0.00404760  0.11854329  1
  O  O361  1  0.00749617  0.00909628  0.62494158  1
  O  O362  1  0.00434319  0.50693287  0.12017030  1
  O  O363  1  0.00757472  0.50141153  0.61836360  1
  O  O364  1  0.50540708  0.01075731  0.12504903  1
  O  O365  1  0.50688694  0.00455599  0.61918908  1
  O  O366  1  0.50536089  0.50531267  0.12013251  1
  O  O367  1  0.50162693  0.50668116  0.61738346  1
  O  O368  1  0.24639149  0.38717501  0.25082787  1
  O  O369  1  0.24348380  0.38143327  0.74436162  1
  O  O370  1  0.24392195  0.87548898  0.24317858  1
  O  O371  1  0.24500785  0.88089494  0.74509446  1
  O  O372  1  0.73991347  0.37933749  0.24622711  1
  O  O373  1  0.74177092  0.38340659  0.75087270  1
  O  O374  1  0.74724281  0.87951977  0.24411929  1
  O  O375  1  0.74526859  0.88063252  0.74514680  1
  O  O376  1  0.25651588  0.12292786  0.25835247  1
  O  O377  1  0.24874129  0.11877956  0.75709586  1
  O  O378  1  0.24925436  0.61700917  0.25921117  1
  O  O379  1  0.25629455  0.61953684  0.75475305  1
  O  O380  1  0.75661966  0.11876536  0.25527730  1
  O  O381  1  0.75089711  0.11762900  0.75611316  1
  O  O382  1  0.75763465  0.62422675  0.25655744  1
  O  O383  1  0.75555366  0.61735544  0.75462629  1
  O  O384  1  0.37090921  0.12061033  0.37139152  1
  O  O385  1  0.36544724  0.12541022  0.87275687  1
  O  O386  1  0.36305638  0.62324903  0.37380497  1
  O  O387  1  0.36893042  0.62040130  0.86852213  1
  O  O388  1  0.87678688  0.11182531  0.37768836  1
  O  O389  1  0.86848344  0.11905377  0.87433785  1
  O  O390  1  0.87144755  0.61960550  0.36981929  1
  O  O391  1  0.86774781  0.62243426  0.86596850  1
  O  O392  1  0.12567542  0.38397461  0.12787830  1
  O  O393  1  0.13061085  0.38034585  0.62945691  1
  O  O394  1  0.12949860  0.87915316  0.13022129  1
  O  O395  1  0.13191856  0.88018181  0.63054073  1
  O  O396  1  0.62207090  0.38464637  0.12970273  1
  O  O397  1  0.62785339  0.37499391  0.63669756  1
  O  O398  1  0.62396006  0.88724411  0.12630503  1
  O  O399  1  0.63154242  0.88046613  0.62938875  1
  O  O400  1  0.12263416  0.25119831  0.25963134  1
  O  O401  1  0.12342708  0.25856283  0.75741885  1
  O  O402  1  0.11996238  0.75457731  0.25532029  1
  O  O403  1  0.12616623  0.75661318  0.75761286  1
  O  O404  1  0.61835443  0.25514550  0.25409958  1
  O  O405  1  0.62683846  0.25899644  0.75877715  1
  O  O406  1  0.61229275  0.75095193  0.24928421  1
  O  O407  1  0.62082540  0.75512943  0.75439525  1
  O  O408  1  0.37930035  0.24503822  0.24522003  1
  O  O409  1  0.37587499  0.24985262  0.74124078  1
  O  O410  1  0.38610131  0.74860260  0.24321485  1
  O  O411  1  0.38165631  0.74297510  0.74378430  1
  O  O412  1  0.87558003  0.25056716  0.23760734  1
  O  O413  1  0.87705788  0.24787921  0.74114953  1
  O  O414  1  0.88245960  0.74461267  0.24458216  1
  O  O415  1  0.87524018  0.73806674  0.74995976  1
  O  O416  1  0.38214758  0.49256566  0.49740058  1
  O  O417  1  0.37664659  0.49604190  0.99518657  1
  O  O418  1  0.38257200  0.99469250  0.49557389  1
  O  O419  1  0.37984454  0.99506994  0.99396641  1
  O  O420  1  0.88008764  0.49515191  0.49517731  1
  O  O421  1  0.88103251  0.49420630  1.00020459  1
  O  O422  1  0.87886753  0.99136631  0.49168350  1
  O  O423  1  0.87923370  0.99521700  0.99459148  1
  O  O424  1  0.11794073  0.00534829  0.00545495  1
  O  O425  1  0.12571154  0.00673203  0.50837198  1
  O  O426  1  0.11951378  0.50691053  0.00570710  1
  O  O427  1  0.12017783  0.50414941  0.50516332  1
  O  O428  1  0.61920501  0.00403408  0.01006967  1
  O  O429  1  0.62087014  0.00451322  0.50478659  1
  O  O430  1  0.61727721  0.49949202  0.00860059  1
  O  O431  1  0.61893922  0.50593313  0.50102729  1
  O  O432  1  0.37049671  0.36791788  0.11921346  1
  O  O433  1  0.36888166  0.37033325  0.61896937  1
  O  O434  1  0.36846543  0.86873950  0.12334831  1
  O  O435  1  0.37215652  0.86989319  0.62096840  1
  O  O436  1  0.87467334  0.36578828  0.11894260  1
  O  O437  1  0.87443255  0.36797169  0.61808202  1
  O  O438  1  0.87623515  0.86783176  0.11728864  1
  O  O439  1  0.86963923  0.87549731  0.61922336  1
  O  O440  1  0.12989535  0.12856289  0.38183170  1
  O  O441  1  0.12827158  0.13055902  0.88157452  1
  O  O442  1  0.13344106  0.62956081  0.38004258  1
  O  O443  1  0.13050262  0.63004931  0.87993198  1
  O  O444  1  0.62401773  0.13168206  0.38151250  1
  O  O445  1  0.62932456  0.13601796  0.87423272  1
  O  O446  1  0.63306005  0.62710131  0.38121405  1
  O  O447  1  0.63077445  0.63172456  0.87522642  1
