# generated using pymatgen
data_V3Zn3O8
_symmetry_space_group_name_H-M   'P 1'
_cell_length_a   17.08009839
_cell_length_b   17.08071486
_cell_length_c   17.08244348
_cell_angle_alpha   89.99125830
_cell_angle_beta   89.99877653
_cell_angle_gamma   90.00202706
_symmetry_Int_Tables_number   1
_chemical_formula_structural   V3Zn3O8
_chemical_formula_sum   'V96 Zn96 O256'
_cell_volume   4983.63696035
_cell_formula_units_Z   32
loop_
 _symmetry_equiv_pos_site_id
 _symmetry_equiv_pos_as_xyz
  1  'x, y, z'
loop_
 _atom_site_type_symbol
 _atom_site_label
 _atom_site_symmetry_multiplicity
 _atom_site_fract_x
 _atom_site_fract_y
 _atom_site_fract_z
 _atom_site_occupancy
  V  V0  1  0.24957960  0.37495885  0.62459611  1
  V  V1  1  0.74811202  0.37500994  0.12559093  1
  V  V2  1  0.62498755  0.62563993  0.50078498  1
  V  V3  1  0.50063785  0.37427490  0.87594125  1
  V  V4  1  0.87558029  0.62629225  0.24937752  1
  V  V5  1  0.87497032  0.62391932  0.74911061  1
  V  V6  1  0.12338896  0.37527793  0.24946439  1
  V  V7  1  -0.00029796  0.25059571  0.24885208  1
  V  V8  1  0.62635708  0.74834242  0.87497342  1
  V  V9  1  0.87474413  0.37488468  0.49813835  1
  V  V10  1  -0.00064045  0.12573525  0.62424865  1
  V  V11  1  0.24946021  0.87496709  0.12470933  1
  V  V12  1  0.37596015  0.74940067  0.12517832  1
  V  V13  1  0.62358536  0.25093041  0.37412402  1
  V  V14  1  0.00023879  0.12472954  0.12401505  1
  V  V15  1  0.62260297  0.75300691  0.37563437  1
  V  V16  1  0.12610991  -0.00021345  0.62440847  1
  V  V17  1  0.50010272  0.75169671  0.25082718  1
  V  V18  1  0.87551386  -0.00054013  0.87439752  1
  V  V19  1  0.00083622  0.87419131  0.87446772  1
  V  V20  1  0.12522054  0.87456918  0.24964963  1
  V  V21  1  0.74916759  0.37521603  0.62483419  1
  V  V22  1  0.87517813  0.87540388  0.50041222  1
  V  V23  1  0.50047760  -0.00108690  0.00030360  1
  V  V24  1  0.37442807  0.75090445  0.62329083  1
  V  V25  1  0.12426286  0.25029526  0.87361179  1
  V  V26  1  0.37438863  0.62538208  0.24977642  1
  V  V27  1  0.37309523  0.12365449  0.24983238  1
  V  V28  1  0.49912141  0.49968501  0.49980157  1
  V  V29  1  0.24927080  0.37544647  0.12439152  1
  V  V30  1  0.87450563  0.24940222  0.62453268  1
  V  V31  1  0.37419337  0.37488746  0.00063144  1
  V  V32  1  0.37421784  0.37561950  0.50073615  1
  V  V33  1  0.37413829  0.49957586  0.37583959  1
  V  V34  1  0.25024749  -0.00077320  0.74872205  1
  V  V35  1  0.37601554  0.12575133  0.75215239  1
  V  V36  1  0.50061307  0.50038992  0.00147253  1
  V  V37  1  0.12541397  0.12556385  -0.00122580  1
  V  V38  1  0.50071633  0.87438726  0.87619966  1
  V  V39  1  0.12564155  0.12564615  0.49871481  1
  V  V40  1  0.87428793  0.24951181  0.12400905  1
  V  V41  1  0.87511989  0.37502993  -0.00142440  1
  V  V42  1  0.74958164  0.12574281  0.37446963  1
  V  V43  1  0.12556318  0.75069892  0.37505837  1
  V  V44  1  0.25034811  0.25043983  0.50055119  1
  V  V45  1  0.74871249  0.24897855  0.49930940  1
  V  V46  1  0.37616301  0.87468733  -0.00023820  1
  V  V47  1  0.62508762  -0.00046784  0.12486721  1
  V  V48  1  0.12493888  0.37460482  0.74907202  1
  V  V49  1  0.00025523  0.62511454  0.62423212  1
  V  V50  1  0.00126120  0.74976473  0.74968471  1
  V  V51  1  0.62440545  0.12396494  0.00139231  1
  V  V52  1  -0.00109074  0.37476689  0.37342851  1
  V  V53  1  0.00072660  -0.00059082  -0.00082753  1
  V  V54  1  0.50062410  0.74924068  0.75006558  1
  V  V55  1  0.37313758  0.25131521  0.12476800  1
  V  V56  1  0.12519305  0.75032223  0.87442137  1
  V  V57  1  0.87428086  0.49875038  0.37428338  1
  V  V58  1  0.75004551  0.24986106  0.00037043  1
  V  V59  1  0.12457022  0.50100945  0.12421643  1
  V  V60  1  0.24852944  0.62497876  0.37519860  1
  V  V61  1  0.25146841  0.62453968  0.87451884  1
  V  V62  1  0.50123521  0.25040755  0.75269475  1
  V  V63  1  0.12609167  -0.00039633  0.12554521  1
  V  V64  1  0.25141411  0.75082028  0.50133917  1
  V  V65  1  0.62555265  0.62351659  0.00180046  1
  V  V66  1  0.87534762  0.87321055  0.00087024  1
  V  V67  1  0.37533325  0.49996707  0.87508627  1
  V  V68  1  0.12510354  0.62472773  -0.00016950  1
  V  V69  1  -0.00084136  0.49939540  -0.00151766  1
  V  V70  1  0.75133303  0.12412100  0.87602179  1
  V  V71  1  0.50126161  0.12562420  0.62552672  1
  V  V72  1  0.75134640  0.87302105  0.12552943  1
  V  V73  1  0.12345084  0.62490700  0.50021597  1
  V  V74  1  0.87510885  0.12496869  0.24890911  1
  V  V75  1  0.62474579  0.00052505  0.62626615  1
  V  V76  1  -0.00003423  0.00045264  0.49938076  1
  V  V77  1  0.24890024  0.50047876  0.25005656  1
  V  V78  1  0.49882089  0.25189420  0.24969073  1
  V  V79  1  0.12426805  0.49975134  0.62465540  1
  V  V80  1  0.37537255  0.62429739  0.75076415  1
  V  V81  1  0.25010133  0.12419326  0.37483084  1
  V  V82  1  0.25072317  0.74987563  -0.00057879  1
  V  V83  1  0.62521430  0.25057422  0.87689142  1
  V  V84  1  -0.00029649  0.25017349  0.74832298  1
  V  V85  1  0.50005715  0.62451310  0.62546366  1
  V  V86  1  0.62582641  0.87442225  0.75125284  1
  V  V87  1  0.24952110  0.12544817  0.87468098  1
  V  V88  1  0.75173079  0.62297120  0.87452875  1
  V  V89  1  0.75076019  -0.00091899  0.75209941  1
  V  V90  1  0.74964082  -0.00011960  0.24968803  1
  V  V91  1  0.00036164  0.74972825  0.25039198  1
  V  V92  1  0.87481348  0.00101194  0.37533717  1
  V  V93  1  0.74750105  0.49944352  0.24999111  1
  V  V94  1  0.62603978  0.49883216  0.62504747  1
  V  V95  1  0.75011684  0.75096814  0.50046336  1
  Zn  Zn96  1  -0.00150308  0.50013654  0.49887309  1
  Zn  Zn97  1  0.37652828  0.25173162  0.62622999  1
  Zn  Zn98  1  0.25149812  -0.00271661  0.25175356  1
  Zn  Zn99  1  0.62134467  0.37800903  0.24899473  1
  Zn  Zn100  1  0.75011448  0.49777771  0.74888683  1
  Zn  Zn101  1  -0.00124976  0.37465278  0.87264235  1
  Zn  Zn102  1  -0.00086738  0.62706215  0.12340393  1
  Zn  Zn103  1  0.49797228  0.12401806  0.12397499  1
  Zn  Zn104  1  0.37519711  0.88023681  0.49853392  1
  Zn  Zn105  1  0.50006846  -0.00265376  0.49751352  1
  Zn  Zn106  1  0.62260830  0.49972645  0.12739474  1
  Zn  Zn107  1  0.50095805  0.62401619  0.12584317  1
  Zn  Zn108  1  0.87682422  0.74978079  0.12515938  1
  Zn  Zn109  1  0.62713545  0.37623128  0.75113845  1
  Zn  Zn110  1  0.62352926  0.12299458  0.49850852  1
  Zn  Zn111  1  0.87529798  0.75051331  0.62415500  1
  Zn  Zn112  1  0.75011069  0.87562480  0.62675500  1
  Zn  Zn113  1  0.24994401  0.49900015  0.75020405  1
  Zn  Zn114  1  0.49849122  0.37564892  0.37588680  1
  Zn  Zn115  1  0.87528652  0.12465048  0.74960133  1
  Zn  Zn116  1  0.74921200  0.62484685  0.37498948  1
  Zn  Zn117  1  0.12409235  0.25062144  0.37420066  1
  Zn  Zn118  1  0.87528919  0.49731864  0.87376400  1
  Zn  Zn119  1  0.12565857  0.87446028  0.74788345  1
  Zn  Zn120  1  0.75277680  0.74695538  0.00288681  1
  Zn  Zn121  1  0.38032830  0.00058446  0.37850941  1
  Zn  Zn122  1  0.25074011  0.87447582  0.62383923  1
  Zn  Zn123  1  0.62433175  0.87637873  0.25109171  1
  Zn  Zn124  1  0.49591506  0.88035738  0.37652864  1
  Zn  Zn125  1  0.37508078  -0.00030958  0.87607084  1
  Zn  Zn126  1  0.00208972  0.87594545  0.37481783  1
  Zn  Zn127  1  0.24909285  0.25027851  -0.00082515  1
  Zn  Zn128  1  0.18696365  0.18876241  0.18697590  1
  Zn  Zn129  1  0.18765648  0.18768694  0.68616998  1
  Zn  Zn130  1  0.18666228  0.68774955  0.18621941  1
  Zn  Zn131  1  0.18808120  0.68637825  0.68772499  1
  Zn  Zn132  1  0.68600135  0.18671517  0.18730444  1
  Zn  Zn133  1  0.68828927  0.18816206  0.69116575  1
  Zn  Zn134  1  0.68765880  0.68735649  0.18872366  1
  Zn  Zn135  1  0.68855223  0.68727613  0.68603313  1
  Zn  Zn136  1  0.31120621  0.31258605  0.31372303  1
  Zn  Zn137  1  0.31204530  0.31206134  0.81191558  1
  Zn  Zn138  1  0.31287638  0.81425962  0.31468115  1
  Zn  Zn139  1  0.31389296  0.81297996  0.81163444  1
  Zn  Zn140  1  0.81149384  0.31297869  0.31102887  1
  Zn  Zn141  1  0.81336589  0.31294857  0.81173442  1
  Zn  Zn142  1  0.81252345  0.81325909  0.31430262  1
  Zn  Zn143  1  0.81352713  0.81066164  0.81346983  1
  Zn  Zn144  1  0.18550567  0.43756082  0.43777408  1
  Zn  Zn145  1  0.18765058  0.43653238  0.93570961  1
  Zn  Zn146  1  0.19017121  0.93700389  0.43799031  1
  Zn  Zn147  1  0.18756396  0.93745947  0.93622398  1
  Zn  Zn148  1  0.68662980  0.43606262  0.43719904  1
  Zn  Zn149  1  0.68801398  0.43819156  0.93799637  1
  Zn  Zn150  1  0.68633035  0.93779020  0.43871586  1
  Zn  Zn151  1  0.68817423  0.93668648  0.93931052  1
  Zn  Zn152  1  0.31176462  0.06196980  0.06218468  1
  Zn  Zn153  1  0.31593942  0.06341635  0.56308960  1
  Zn  Zn154  1  0.31312218  0.56265513  0.06274037  1
  Zn  Zn155  1  0.31092754  0.56287632  0.56346242  1
  Zn  Zn156  1  0.81271202  0.06034222  0.06165543  1
  Zn  Zn157  1  0.81045385  0.06363914  0.56265974  1
  Zn  Zn158  1  0.81263021  0.56044710  0.06448497  1
  Zn  Zn159  1  0.81228806  0.56245577  0.56184960  1
  Zn  Zn160  1  0.43667332  0.43832240  0.18683758  1
  Zn  Zn161  1  0.43818997  0.43686041  0.68835067  1
  Zn  Zn162  1  0.43780501  0.93677974  0.18741438  1
  Zn  Zn163  1  0.43649687  0.93613668  0.68723217  1
  Zn  Zn164  1  0.93603165  0.43788729  0.18512490  1
  Zn  Zn165  1  0.93797266  0.43758427  0.68529724  1
  Zn  Zn166  1  0.93895429  0.93696136  0.18811026  1
  Zn  Zn167  1  0.93850306  0.93744739  0.68698825  1
  Zn  Zn168  1  0.06319970  0.06151607  0.31234485  1
  Zn  Zn169  1  0.06303609  0.06346605  0.81046566  1
  Zn  Zn170  1  0.06056115  0.56220660  0.31273146  1
  Zn  Zn171  1  0.06350417  0.56209275  0.81219189  1
  Zn  Zn172  1  0.56220127  0.06359973  0.31000346  1
  Zn  Zn173  1  0.56329093  0.06193932  0.81422389  1
  Zn  Zn174  1  0.56120732  0.56618225  0.31538984  1
  Zn  Zn175  1  0.56345639  0.55997868  0.81211530  1
  Zn  Zn176  1  0.43662838  0.18675346  0.43935139  1
  Zn  Zn177  1  0.43647288  0.18674479  0.93835639  1
  Zn  Zn178  1  0.43663607  0.68773565  0.43760759  1
  Zn  Zn179  1  0.43893466  0.68696634  0.93752105  1
  Zn  Zn180  1  0.93726973  0.18858134  0.43665315  1
  Zn  Zn181  1  0.93838319  0.18764240  0.93567181  1
  Zn  Zn182  1  0.93806895  0.68754185  0.43493865  1
  Zn  Zn183  1  0.93718905  0.68832365  0.93722716  1
  Zn  Zn184  1  0.06268054  0.31288990  0.06114900  1
  Zn  Zn185  1  0.06251141  0.31256854  0.56074566  1
  Zn  Zn186  1  0.06197784  0.81140327  0.06376751  1
  Zn  Zn187  1  0.06352248  0.81292547  0.56389580  1
  Zn  Zn188  1  0.56226391  0.31349726  0.06437034  1
  Zn  Zn189  1  0.56261458  0.31287511  0.56250211  1
  Zn  Zn190  1  0.56454663  0.81099370  0.06292728  1
  Zn  Zn191  1  0.55916383  0.81558301  0.56242622  1
  O  O192  1  0.11951776  0.12014172  0.11944127  1
  O  O193  1  0.11918190  0.11977235  0.61767344  1
  O  O194  1  0.12493718  0.61818450  0.11738189  1
  O  O195  1  0.11964435  0.61963709  0.62007222  1
  O  O196  1  0.62390356  0.11761658  0.11874297  1
  O  O197  1  0.61768821  0.11629589  0.62931466  1
  O  O198  1  0.62567141  0.62431958  0.11265876  1
  O  O199  1  0.61938920  0.62001276  0.61942256  1
  O  O200  1  0.37400170  0.38241736  0.38216516  1
  O  O201  1  0.38027449  0.37974069  0.88105400  1
  O  O202  1  0.37639500  0.88174299  0.37667186  1
  O  O203  1  0.38284178  0.87500345  0.88234563  1
  O  O204  1  0.87923716  0.37873098  0.37871766  1
  O  O205  1  0.87701965  0.37747889  0.88272931  1
  O  O206  1  0.87546965  0.88224886  0.38538214  1
  O  O207  1  0.88072523  0.87927767  0.88109071  1
  O  O208  1  0.25113875  0.01515842  0.37284190  1
  O  O209  1  0.25003346  0.00624621  0.86504722  1
  O  O210  1  0.25370187  0.50575470  0.36909641  1
  O  O211  1  0.25753243  0.50680940  0.87453396  1
  O  O212  1  0.75403017  0.00577544  0.36990447  1
  O  O213  1  0.75555528  0.00412188  0.87164411  1
  O  O214  1  0.75477742  0.50029138  0.36550759  1
  O  O215  1  0.75184926  0.51233180  0.87255075  1
  O  O216  1  0.24447650  0.49530110  0.13070346  1
  O  O217  1  0.24230823  0.49362237  0.62657625  1
  O  O218  1  0.24316920  0.99271230  0.12588025  1
  O  O219  1  0.24501333  1.00244995  0.63491095  1
  O  O220  1  0.74906212  0.49402172  0.13564690  1
  O  O221  1  0.74349086  0.49345414  0.62374329  1
  O  O222  1  0.74587503  0.99205764  0.12963837  1
  O  O223  1  0.74019582  1.00060004  0.63245437  1
  O  O224  1  0.00335706  0.37007329  0.25262122  1
  O  O225  1  0.00641844  0.36823034  0.74936421  1
  O  O226  1  0.00666373  0.86865813  0.25222300  1
  O  O227  1  0.00075516  0.86820513  0.75670075  1
  O  O228  1  0.49808715  0.36337995  0.25314671  1
  O  O229  1  0.50184674  0.36830879  0.75817671  1
  O  O230  1  0.50204372  0.86156103  0.25063826  1
  O  O231  1  0.50602627  0.86863426  0.75640288  1
  O  O232  1  0.48985230  0.13601229  0.24755922  1
  O  O233  1  0.49657791  0.13020202  0.74582101  1
  O  O234  1  0.49372238  0.63542896  0.24919542  1
  O  O235  1  0.49560691  0.63009098  0.74565164  1
  O  O236  1  0.99457583  0.12966496  0.24338332  1
  O  O237  1  0.99854814  0.13139859  0.74167959  1
  O  O238  1  0.99049720  0.62955668  0.24866728  1
  O  O239  1  0.99294647  0.63007518  0.74615571  1
  O  O240  1  0.37344848  0.25697739  0.00697886  1
  O  O241  1  0.36870663  0.25723189  0.50240853  1
  O  O242  1  0.37083951  0.75465065  0.00509615  1
  O  O243  1  0.36728289  0.74594757  0.50741772  1
  O  O244  1  0.86978626  0.25425168  0.00519138  1
  O  O245  1  0.86819760  0.25503124  0.50421223  1
  O  O246  1  0.87326831  0.75680819  0.00404857  1
  O  O247  1  0.86674111  0.75799540  0.49728865  1
  O  O248  1  0.13153010  0.24321166  0.49717537  1
  O  O249  1  0.12527538  0.24316420  0.99313358  1
  O  O250  1  0.13047310  0.74418681  0.49494914  1
  O  O251  1  0.13079213  0.74449431  0.99455012  1
  O  O252  1  0.62979746  0.24788169  0.48965282  1
  O  O253  1  0.63069486  0.24416036  0.99668034  1
  O  O254  1  0.63116698  0.74649074  0.49440931  1
  O  O255  1  0.62741216  0.73920517  0.99363653  1
  O  O256  1  0.49312103  0.24916808  0.13448023  1
  O  O257  1  0.50268062  0.24066236  0.63341780  1
  O  O258  1  0.49540081  0.74807292  0.13408035  1
  O  O259  1  0.49609212  0.74285811  0.63128027  1
  O  O260  1  0.99373540  0.24429669  0.12893827  1
  O  O261  1  0.99432099  0.24472882  0.62831885  1
  O  O262  1  0.99750808  0.74689430  0.13438109  1
  O  O263  1  0.99872629  0.74288638  0.63133668  1
  O  O264  1  -0.00005066  0.25611013  0.36600889  1
  O  O265  1  0.00642537  0.25075431  0.86700032  1
  O  O266  1  0.00803066  0.75220051  0.36813889  1
  O  O267  1  0.00595792  0.75455220  0.86985678  1
  O  O268  1  0.50686643  0.24922836  0.36682011  1
  O  O269  1  0.50577890  0.25499263  0.87272106  1
  O  O270  1  0.50757628  0.74838682  0.36649142  1
  O  O271  1  0.50656200  0.75439340  0.86939093  1
  O  O272  1  0.24593554  0.13048608  0.49303857  1
  O  O273  1  0.24291258  0.12568066  0.99317462  1
  O  O274  1  0.24310774  0.62997625  0.49430845  1
  O  O275  1  0.24580628  0.63070797  0.99424718  1
  O  O276  1  0.74792976  0.13148600  0.49210284  1
  O  O277  1  0.74512640  0.13002683  0.99579083  1
  O  O278  1  0.74510062  0.63509754  0.49788824  1
  O  O279  1  0.74348160  0.62362834  0.99216051  1
  O  O280  1  0.25615388  0.37468019  0.00664391  1
  O  O281  1  0.25417616  0.37033901  0.50467636  1
  O  O282  1  0.25546030  0.86898719  0.00430835  1
  O  O283  1  0.25192688  0.86488081  0.50274177  1
  O  O284  1  0.75507180  0.36964023  0.00521002  1
  O  O285  1  0.75532314  0.36806522  0.50408263  1
  O  O286  1  0.75605626  0.87380415  0.00987425  1
  O  O287  1  0.75784008  0.86796169  0.50123403  1
  O  O288  1  0.12927972  0.49565758  0.24407127  1
  O  O289  1  0.12615504  0.49347668  0.74326404  1
  O  O290  1  0.12647391  0.99365699  0.24275283  1
  O  O291  1  0.13485635  1.00113427  0.74363316  1
  O  O292  1  0.63502600  0.50150035  0.25107001  1
  O  O293  1  0.62763651  0.49793497  0.74081475  1
  O  O294  1  0.63246957  0.99856491  0.24331837  1
  O  O295  1  0.63103129  0.99418005  0.74574206  1
  O  O296  1  0.37366429  0.01454773  0.24851596  1
  O  O297  1  0.36595858  0.00611561  0.75185201  1
  O  O298  1  0.36839665  0.50518126  0.25540135  1
  O  O299  1  0.37510549  0.50677760  0.75746908  1
  O  O300  1  0.87029410  0.00605926  0.25530937  1
  O  O301  1  0.86917760  0.00027350  0.75681381  1
  O  O302  1  0.86693105  0.50652578  0.25359970  1
  O  O303  1  0.87508381  0.51291099  0.75164487  1
  O  O304  1  0.11802238  0.37420195  0.36674817  1
  O  O305  1  0.12385677  0.36817712  0.86738925  1
  O  O306  1  0.12562314  0.86871813  0.36820837  1
  O  O307  1  0.11820809  0.86795753  0.87388226  1
  O  O308  1  0.62182054  0.36240476  0.37169200  1
  O  O309  1  0.61873493  0.36832852  0.87682031  1
  O  O310  1  0.62466934  0.86198422  0.37308902  1
  O  O311  1  0.62087893  0.86818114  0.87118860  1
  O  O312  1  0.37345252  0.13240174  0.13402226  1
  O  O313  1  0.38700219  0.12755301  0.63367627  1
  O  O314  1  0.37560510  0.63205881  0.13174753  1
  O  O315  1  0.38120567  0.62949187  0.63114907  1
  O  O316  1  0.88024752  0.12934779  0.12913279  1
  O  O317  1  0.88115569  0.13163325  0.62481006  1
  O  O318  1  0.87492524  0.62604404  0.13848591  1
  O  O319  1  0.88027196  0.62635172  0.63352887  1
  O  O320  1  0.25496918  0.25821109  0.12346023  1
  O  O321  1  0.25202057  0.25643503  0.61807964  1
  O  O322  1  0.25528119  0.75524495  0.11834672  1
  O  O323  1  0.25646567  0.74854405  0.61914905  1
  O  O324  1  0.75511106  0.25410781  0.11987007  1
  O  O325  1  0.75396196  0.25410516  0.61918985  1
  O  O326  1  0.75240843  0.76176496  0.12587992  1
  O  O327  1  0.75070145  0.75282153  0.61183230  1
  O  O328  1  0.24791048  0.23984473  0.38039236  1
  O  O329  1  0.24245864  0.24301575  0.87545781  1
  O  O330  1  0.24453532  0.74265573  0.38019082  1
  O  O331  1  0.24584084  0.74470654  0.88042721  1
  O  O332  1  0.74251761  0.24563722  0.37772414  1
  O  O333  1  0.74564028  0.24458916  0.88203306  1
  O  O334  1  0.74100730  0.74950099  0.38420594  1
  O  O335  1  0.74498694  0.73806948  0.87662252  1
  O  O336  1  0.00521910  0.11906959  0.00505876  1
  O  O337  1  0.00500712  0.12022027  0.50413291  1
  O  O338  1  0.00558705  0.61627925  0.00094415  1
  O  O339  1  0.00557307  0.62465088  0.50555815  1
  O  O340  1  0.50611030  0.11792204  0.00195815  1
  O  O341  1  0.50333348  0.12643169  0.51546556  1
  O  O342  1  0.51058595  0.61973617  -0.00054863  1
  O  O343  1  0.50506943  0.61966900  0.50606288  1
  O  O344  1  0.49287483  0.38182191  0.49905441  1
  O  O345  1  0.49392581  0.38016775  0.99562573  1
  O  O346  1  0.49535260  0.87764445  0.49575621  1
  O  O347  1  0.49617375  0.87824880  0.99559482  1
  O  O348  1  0.99227793  0.37501466  0.49199041  1
  O  O349  1  0.99432609  0.38369252  0.99914986  1
  O  O350  1  0.99091070  0.88109729  0.49850553  1
  O  O351  1  0.99558417  0.88023193  0.99487942  1
  O  O352  1  0.49258798  0.49983612  0.38166112  1
  O  O353  1  0.49485479  0.49422361  0.88159064  1
  O  O354  1  0.50078499  0.99971433  0.37756030  1
  O  O355  1  0.49988379  0.99181823  0.88204434  1
  O  O356  1  0.99181005  0.49249367  0.37483862  1
  O  O357  1  0.99948230  0.49827040  0.88766849  1
  O  O358  1  0.99279141  0.99979520  0.38149510  1
  O  O359  1  0.99608303  0.99465656  0.87984699  1
  O  O360  1  0.00565297  0.00546849  0.11898100  1
  O  O361  1  0.00537228  0.00599339  0.61886060  1
  O  O362  1  0.00533099  0.50154295  0.11423059  1
  O  O363  1  0.00616042  0.50723755  0.62184060  1
  O  O364  1  0.50725044  -0.00001573  0.11884214  1
  O  O365  1  0.51060643  0.00992445  0.63184738  1
  O  O366  1  0.50205550  0.50373899  0.11833052  1
  O  O367  1  0.50523556  0.50556101  0.61918360  1
  O  O368  1  0.24407718  0.38127985  0.24487160  1
  O  O369  1  0.24330131  0.37589320  0.74283181  1
  O  O370  1  0.24335382  0.87490463  0.24197892  1
  O  O371  1  0.24918588  0.88735355  0.74935826  1
  O  O372  1  0.74933263  0.38471816  0.24451894  1
  O  O373  1  0.74891758  0.37741691  0.74126516  1
  O  O374  1  0.75030881  0.88124078  0.24163539  1
  O  O375  1  0.74409497  0.87960040  0.74950871  1
  O  O376  1  0.25738736  0.12707983  0.25766839  1
  O  O377  1  0.25503912  0.11793585  0.75406882  1
  O  O378  1  0.25414326  0.61997398  0.25535194  1
  O  O379  1  0.25748312  0.62336340  0.75740936  1
  O  O380  1  0.75639520  0.11997753  0.25398830  1
  O  O381  1  0.75210269  0.11792813  0.75888854  1
  O  O382  1  0.75744536  0.61655393  0.25186512  1
  O  O383  1  0.75842117  0.62514266  0.75700899  1
  O  O384  1  0.36647606  0.12787239  0.36543618  1
  O  O385  1  0.36823162  0.12282825  0.86983891  1
  O  O386  1  0.36789746  0.61942365  0.36935654  1
  O  O387  1  0.37118623  0.62008950  0.87064923  1
  O  O388  1  0.86904022  0.12071549  0.36868180  1
  O  O389  1  0.86903725  0.11724119  0.87494693  1
  O  O390  1  0.87306574  0.61896160  0.36432857  1
  O  O391  1  0.86755541  0.62482560  0.86687094  1
  O  O392  1  0.12948827  0.38127327  0.12993859  1
  O  O393  1  0.12977802  0.37989771  0.62907107  1
  O  O394  1  0.13041912  0.87984770  0.12915726  1
  O  O395  1  0.12813744  0.88439551  0.62741982  1
  O  O396  1  0.63258344  0.37798217  0.12867737  1
  O  O397  1  0.63182927  0.38108654  0.62472735  1
  O  O398  1  0.63615772  0.87989677  0.12578841  1
  O  O399  1  0.62455049  0.88529244  0.63308388  1
  O  O400  1  0.11709518  0.25727988  0.24944273  1
  O  O401  1  0.11905493  0.25472108  0.75325904  1
  O  O402  1  0.12028042  0.75429306  0.25513444  1
  O  O403  1  0.11922858  0.74999318  0.75698064  1
  O  O404  1  0.61532564  0.24964047  0.25666518  1
  O  O405  1  0.61939133  0.25152369  0.76012558  1
  O  O406  1  0.61727698  0.74898467  0.25870666  1
  O  O407  1  0.62025033  0.75370103  0.75485407  1
  O  O408  1  0.38070601  0.24394484  0.24620405  1
  O  O409  1  0.38323646  0.24384922  0.74948397  1
  O  O410  1  0.38193357  0.74476531  0.24544412  1
  O  O411  1  0.38150373  0.74351174  0.74512560  1
  O  O412  1  0.87909570  0.24429221  0.24301156  1
  O  O413  1  0.88126035  0.24824273  0.74202659  1
  O  O414  1  0.87997344  0.74102049  0.25253797  1
  O  O415  1  0.88085805  0.73938738  0.74852295  1
  O  O416  1  0.37946625  0.49639783  0.49502139  1
  O  O417  1  0.38078843  0.49512183  0.99490453  1
  O  O418  1  0.38101456  1.00043597  0.49810026  1
  O  O419  1  0.38163980  0.99241988  0.99960009  1
  O  O420  1  0.87467938  0.49321171  0.49191521  1
  O  O421  1  0.88380399  0.49484133  0.99999952  1
  O  O422  1  0.87865636  0.99402467  0.49524976  1
  O  O423  1  0.88183807  0.99399985  0.99418417  1
  O  O424  1  0.11934489  0.00511438  0.00510240  1
  O  O425  1  0.12013939  0.00597747  0.50409976  1
  O  O426  1  0.11797317  0.50435053  0.00416356  1
  O  O427  1  0.12223152  0.50725729  0.50589338  1
  O  O428  1  0.62000403  0.00465602  0.00504928  1
  O  O429  1  0.62505061  0.00287762  0.51426717  1
  O  O430  1  0.61993720  0.50968698  0.00007122  1
  O  O431  1  0.61954706  0.50586016  0.50369909  1
  O  O432  1  0.36824133  0.37109577  0.12032860  1
  O  O433  1  0.36846999  0.37482907  0.61864454  1
  O  O434  1  0.36955159  0.86853031  0.11960070  1
  O  O435  1  0.37257495  0.86436703  0.62439932  1
  O  O436  1  0.86833026  0.36821840  0.11915239  1
  O  O437  1  0.86958935  0.36924459  0.61766149  1
  O  O438  1  0.86586832  0.87658954  0.12011553  1
  O  O439  1  0.87293602  0.87403171  0.61211378  1
  O  O440  1  0.13345365  0.12705700  0.37941282  1
  O  O441  1  0.12940582  0.13053638  0.87956866  1
  O  O442  1  0.12974422  0.62980329  0.37951181  1
  O  O443  1  0.13132151  0.63039020  0.88037097  1
  O  O444  1  0.63104141  0.13646247  0.37403687  1
  O  O445  1  0.63135509  0.13009783  0.88243768  1
  O  O446  1  0.62661172  0.63697389  0.38224048  1
  O  O447  1  0.63262342  0.62817321  0.88172586  1
