# generated using pymatgen
data_V3Zn3O8
_symmetry_space_group_name_H-M   'P 1'
_cell_length_a   17.08650086
_cell_length_b   17.08840970
_cell_length_c   17.08619232
_cell_angle_alpha   89.99591718
_cell_angle_beta   89.99249356
_cell_angle_gamma   89.98584427
_symmetry_Int_Tables_number   1
_chemical_formula_structural   V3Zn3O8
_chemical_formula_sum   'V96 Zn96 O256'
_cell_volume   4988.84548178
_cell_formula_units_Z   32
loop_
 _symmetry_equiv_pos_site_id
 _symmetry_equiv_pos_as_xyz
  1  'x, y, z'
loop_
 _atom_site_type_symbol
 _atom_site_label
 _atom_site_symmetry_multiplicity
 _atom_site_fract_x
 _atom_site_fract_y
 _atom_site_fract_z
 _atom_site_occupancy
  V  V0  1  0.49964302  0.75051003  0.24980791  1
  V  V1  1  0.50160133  0.62384241  0.12393713  1
  V  V2  1  0.62630011  0.37631120  0.24782411  1
  V  V3  1  0.12540539  0.74992710  0.37593230  1
  V  V4  1  0.49915293  0.87530089  0.37567250  1
  V  V5  1  0.62344082  -0.00014992  0.12425027  1
  V  V6  1  0.75030027  0.74890115  -0.00027543  1
  V  V7  1  0.12436272  0.00113819  0.12525408  1
  V  V8  1  -0.00111682  0.12619261  0.12559670  1
  V  V9  1  0.62471407  0.24888219  0.37497966  1
  V  V10  1  0.12361078  0.25123617  0.87495516  1
  V  V11  1  0.37595472  0.37496683  -0.00086916  1
  V  V12  1  0.37445695  0.74975124  0.62466082  1
  V  V13  1  0.62564006  0.49962302  0.62458921  1
  V  V14  1  0.37553912  0.24958543  0.12552069  1
  V  V15  1  0.00000456  0.00164720  0.50096196  1
  V  V16  1  0.87655366  0.49992352  0.37557526  1
  V  V17  1  0.49997551  0.24988853  0.74870096  1
  V  V18  1  0.25073449  0.87407707  0.62387258  1
  V  V19  1  0.00044475  0.62527448  0.12470140  1
  V  V20  1  0.74904359  0.87477905  0.12532975  1
  V  V21  1  0.25118228  0.50046863  0.24956875  1
  V  V22  1  0.87453230  0.12550680  0.25004124  1
  V  V23  1  0.24947200  0.12529316  0.87465183  1
  V  V24  1  0.37530082  -0.00070389  0.37607590  1
  V  V25  1  0.62470207  0.87519637  0.25041586  1
  V  V26  1  0.75155134  0.62315856  0.87415193  1
  V  V27  1  0.87495496  0.87572073  0.50096912  1
  V  V28  1  0.62493512  0.74961862  0.37598159  1
  V  V29  1  0.12597866  0.62522222  0.49988172  1
  V  V30  1  -0.00204387  0.00030280  0.00038071  1
  V  V31  1  0.24963223  0.87557970  0.12445756  1
  V  V32  1  0.00180906  0.50096835  0.00124895  1
  V  V33  1  0.87521327  0.49938894  0.87346763  1
  V  V34  1  0.75226022  0.24947365  0.49907888  1
  V  V35  1  0.37411015  0.12451904  0.75021318  1
  V  V36  1  0.49928915  -0.00053986  -0.00018215  1
  V  V37  1  0.12415761  0.87596043  0.75167745  1
  V  V38  1  0.50171791  0.74949390  0.75082675  1
  V  V39  1  0.37611605  0.49955492  0.87503923  1
  V  V40  1  0.87484156  0.62532373  0.25100063  1
  V  V41  1  -0.00077238  0.75040452  0.25048119  1
  V  V42  1  -0.00014991  0.87531219  0.37560987  1
  V  V43  1  0.87443148  0.75025456  0.12558879  1
  V  V44  1  0.12420173  0.87593539  0.25058458  1
  V  V45  1  0.12364741  0.12588825  -0.00006387  1
  V  V46  1  0.37453720  0.12537187  0.24987582  1
  V  V47  1  0.25032162  0.62542336  0.37363983  1
  V  V48  1  0.24906712  0.62612957  0.87535732  1
  V  V49  1  0.62467459  0.74901783  0.87376544  1
  V  V50  1  0.12535165  0.37516693  0.75048202  1
  V  V51  1  0.49978922  -0.00046648  0.50037676  1
  V  V52  1  0.62531269  0.37416845  0.74834342  1
  V  V53  1  0.75276544  0.37473734  0.62394460  1
  V  V54  1  0.74993379  0.00076846  0.25049622  1
  V  V55  1  0.50025120  0.62469390  0.62501898  1
  V  V56  1  0.49964565  0.37620504  0.37546048  1
  V  V57  1  0.37538036  0.75094241  0.12481431  1
  V  V58  1  0.62555944  0.62538219  0.49972701  1
  V  V59  1  0.00105297  0.37481645  0.87544852  1
  V  V60  1  0.74968889  0.62567194  0.37585396  1
  V  V61  1  0.87335694  -0.00079993  0.87561288  1
  V  V62  1  0.75019595  0.49974345  0.24978680  1
  V  V63  1  0.62614771  0.62315702  -0.00022364  1
  V  V64  1  0.12511526  0.12519598  0.50081370  1
  V  V65  1  0.00030451  0.74972645  0.75106123  1
  V  V66  1  0.25035535  0.37499228  0.62490225  1
  V  V67  1  0.87418242  0.00030357  0.37483655  1
  V  V68  1  0.49952830  0.37475303  0.87445042  1
  V  V69  1  0.37504441  0.25039321  0.62414803  1
  V  V70  1  0.24991230  0.75034483  -0.00066121  1
  V  V71  1  0.74943448  0.87553752  0.62597616  1
  V  V72  1  0.24965625  0.12542898  0.37617247  1
  V  V73  1  0.62431374  -0.00082883  0.62540708  1
  V  V74  1  0.24991637  0.24962999  0.50033264  1
  V  V75  1  0.49877707  0.12409085  0.12489108  1
  V  V76  1  0.12625772  0.49991992  0.62479896  1
  V  V77  1  0.24945954  0.25074732  0.00020385  1
  V  V78  1  0.24924057  0.00074829  0.25057341  1
  V  V79  1  0.37511029  0.87597433  -0.00147446  1
  V  V80  1  0.49957715  0.49992619  0.49934286  1
  V  V81  1  0.12400806  0.00084794  0.62495205  1
  V  V82  1  0.37520572  0.62421648  0.75000305  1
  V  V83  1  0.74884635  -0.00054721  0.75035962  1
  V  V84  1  0.87516294  0.12629685  0.74915372  1
  V  V85  1  0.87530204  0.74898895  0.62530493  1
  V  V86  1  0.12529072  0.37587571  0.25003883  1
  V  V87  1  0.50041928  0.12428564  0.62409520  1
  V  V88  1  0.00041169  0.49852840  0.49916705  1
  V  V89  1  0.37535312  0.50056768  0.37458586  1
  V  V90  1  0.25148503  0.37646528  0.12504195  1
  V  V91  1  0.37483531  0.00040175  0.87516111  1
  V  V92  1  0.87484374  0.87571200  0.00026197  1
  V  V93  1  -0.00017949  0.25125880  0.24985257  1
  V  V94  1  0.62478463  0.24826272  0.87470157  1
  V  V95  1  0.74893885  0.24954102  0.00097491  1
  Zn  Zn96  1  0.74965095  0.75025979  0.50112507  1
  Zn  Zn97  1  0.37474062  0.37482961  0.49973631  1
  Zn  Zn98  1  0.12354050  0.75061681  0.87695022  1
  Zn  Zn99  1  0.74711307  0.12343136  0.87569771  1
  Zn  Zn100  1  0.62569721  0.12351405  0.49942166  1
  Zn  Zn101  1  0.87786774  0.24975704  0.62438145  1
  Zn  Zn102  1  0.37448166  0.87311052  0.49968459  1
  Zn  Zn103  1  0.50302426  0.49774573  0.00053036  1
  Zn  Zn104  1  0.62364940  0.87461908  0.75133770  1
  Zn  Zn105  1  0.24992616  0.50035250  0.74930932  1
  Zn  Zn106  1  0.87483969  0.37215423  0.00222870  1
  Zn  Zn107  1  0.75219765  0.37609245  0.12375599  1
  Zn  Zn108  1  0.62717651  0.49848418  0.12249983  1
  Zn  Zn109  1  0.75194774  0.49987285  0.74889932  1
  Zn  Zn110  1  0.25107565  0.74922630  0.49875040  1
  Zn  Zn111  1  0.00055341  0.87454901  0.87749413  1
  Zn  Zn112  1  0.12768312  0.50413699  0.12413176  1
  Zn  Zn113  1  0.12558800  0.25047320  0.37614850  1
  Zn  Zn114  1  0.87861996  0.37345345  0.49855849  1
  Zn  Zn115  1  0.87159659  0.25175220  0.12433485  1
  Zn  Zn116  1  0.24957278  0.00073510  0.75045992  1
  Zn  Zn117  1  0.00005534  0.12818489  0.62505693  1
  Zn  Zn118  1  0.37471827  0.62530431  0.24916242  1
  Zn  Zn119  1  0.50095180  0.87485367  0.87362354  1
  Zn  Zn120  1  0.62414229  0.12334729  -0.00181736  1
  Zn  Zn121  1  -0.00017272  0.37452698  0.37419429  1
  Zn  Zn122  1  0.00118456  0.62378149  0.62615978  1
  Zn  Zn123  1  0.74956682  0.12432665  0.37543902  1
  Zn  Zn124  1  -0.00126731  0.24989660  0.74818292  1
  Zn  Zn125  1  0.49959879  0.25016681  0.25028219  1
  Zn  Zn126  1  0.12503214  0.62835969  0.00100878  1
  Zn  Zn127  1  0.87593500  0.62382364  0.74872581  1
  Zn  Zn128  1  0.18749997  0.18885701  0.18750633  1
  Zn  Zn129  1  0.18684937  0.18878523  0.68800207  1
  Zn  Zn130  1  0.18678287  0.68754580  0.18731657  1
  Zn  Zn131  1  0.18732549  0.68740005  0.68761146  1
  Zn  Zn132  1  0.68650487  0.18644290  0.18615074  1
  Zn  Zn133  1  0.68818659  0.18559482  0.68681610  1
  Zn  Zn134  1  0.68694889  0.68693377  0.18846594  1
  Zn  Zn135  1  0.68947186  0.68563388  0.68979442  1
  Zn  Zn136  1  0.31302813  0.31241972  0.31338847  1
  Zn  Zn137  1  0.31144799  0.31208909  0.81129215  1
  Zn  Zn138  1  0.31265534  0.81221573  0.31132341  1
  Zn  Zn139  1  0.31380684  0.81201592  0.81157565  1
  Zn  Zn140  1  0.81367953  0.31441748  0.31333362  1
  Zn  Zn141  1  0.81193662  0.31194829  0.81469137  1
  Zn  Zn142  1  0.81150831  0.81283693  0.31383831  1
  Zn  Zn143  1  0.81186409  0.81369236  0.81296445  1
  Zn  Zn144  1  0.18863635  0.43718594  0.43709950  1
  Zn  Zn145  1  0.18790268  0.43975126  0.93704071  1
  Zn  Zn146  1  0.18710737  0.93836272  0.43887769  1
  Zn  Zn147  1  0.18766953  0.93912704  0.93723048  1
  Zn  Zn148  1  0.68804374  0.43716617  0.43676759  1
  Zn  Zn149  1  0.68728399  0.43541132  0.93731971  1
  Zn  Zn150  1  0.68750744  0.93678017  0.43924811  1
  Zn  Zn151  1  0.68630796  0.93592933  0.93633793  1
  Zn  Zn152  1  0.31234041  0.06302183  0.06170643  1
  Zn  Zn153  1  0.31242727  0.06123421  0.56290850  1
  Zn  Zn154  1  0.31520966  0.56215913  0.06110606  1
  Zn  Zn155  1  0.31189071  0.56203982  0.56058383  1
  Zn  Zn156  1  0.81075692  0.06545254  0.06321552  1
  Zn  Zn157  1  0.81140679  0.06342210  0.56362257  1
  Zn  Zn158  1  0.81319009  0.56077239  0.06300904  1
  Zn  Zn159  1  0.81362692  0.56310151  0.56144163  1
  Zn  Zn160  1  0.43892459  0.43809711  0.18828701  1
  Zn  Zn161  1  0.43670906  0.43778273  0.68769454  1
  Zn  Zn162  1  0.43662985  0.93795042  0.18768855  1
  Zn  Zn163  1  0.43788229  0.93682375  0.68956485  1
  Zn  Zn164  1  0.93500587  0.43646662  0.18491372  1
  Zn  Zn165  1  0.93973547  0.43554099  0.68748135  1
  Zn  Zn166  1  0.93659604  0.93833462  0.18736441  1
  Zn  Zn167  1  0.93721589  0.93862565  0.68776432  1
  Zn  Zn168  1  0.06197836  0.06409895  0.31450026  1
  Zn  Zn169  1  0.05963793  0.06197513  0.81357751  1
  Zn  Zn170  1  0.06368380  0.56242426  0.31245431  1
  Zn  Zn171  1  0.06371881  0.56271349  0.81186463  1
  Zn  Zn172  1  0.56149782  0.06302846  0.31173038  1
  Zn  Zn173  1  0.56155810  0.06225723  0.81205977  1
  Zn  Zn174  1  0.56251488  0.56257914  0.31179762  1
  Zn  Zn175  1  0.56378487  0.56102515  0.81195348  1
  Zn  Zn176  1  0.43761933  0.18689817  0.43842137  1
  Zn  Zn177  1  0.43773243  0.18705747  0.93780774  1
  Zn  Zn178  1  0.43624076  0.68726516  0.43839189  1
  Zn  Zn179  1  0.43783461  0.68745186  0.93781930  1
  Zn  Zn180  1  0.93832924  0.18671893  0.43531566  1
  Zn  Zn181  1  0.93464082  0.18704716  0.93530237  1
  Zn  Zn182  1  0.93861218  0.68616937  0.43922408  1
  Zn  Zn183  1  0.93701413  0.68669786  0.93670818  1
  Zn  Zn184  1  0.06254966  0.31463311  0.06395640  1
  Zn  Zn185  1  0.06319265  0.31118695  0.56503722  1
  Zn  Zn186  1  0.06287443  0.81255892  0.06257198  1
  Zn  Zn187  1  0.06264136  0.81290429  0.56293363  1
  Zn  Zn188  1  0.56231447  0.30975946  0.06180711  1
  Zn  Zn189  1  0.56346899  0.31293723  0.56077906  1
  Zn  Zn190  1  0.56246590  0.81194700  0.05995615  1
  Zn  Zn191  1  0.56226261  0.81308372  0.56288851  1
  O  O192  1  0.11992719  0.12009042  0.11968512  1
  O  O193  1  0.12540767  0.11786422  0.61899152  1
  O  O194  1  0.11628165  0.62388763  0.12267545  1
  O  O195  1  0.12439041  0.61859500  0.61841238  1
  O  O196  1  0.61639341  0.11662323  0.12489615  1
  O  O197  1  0.61745337  0.11802550  0.62358066  1
  O  O198  1  0.61614042  0.62635672  0.11930092  1
  O  O199  1  0.62030283  0.61952643  0.61989572  1
  O  O200  1  0.38177822  0.38185137  0.37607722  1
  O  O201  1  0.37972386  0.37865749  0.87930877  1
  O  O202  1  0.38088723  0.88149440  0.37521434  1
  O  O203  1  0.37493547  0.88180124  0.88130052  1
  O  O204  1  0.87878218  0.38483270  0.37741033  1
  O  O205  1  0.88142951  0.38457782  0.87694067  1
  O  O206  1  0.88069532  0.88002549  0.38022692  1
  O  O207  1  0.87603196  0.88091071  0.88332109  1
  O  O208  1  0.25478285  0.00485782  0.36985527  1
  O  O209  1  0.25611931  0.00803775  0.87402817  1
  O  O210  1  0.25549218  0.50533710  0.36921032  1
  O  O211  1  0.25690786  0.51018725  0.87434828  1
  O  O212  1  0.75590512  -0.00008059  0.36853855  1
  O  O213  1  0.75557095  0.00017745  0.86894717  1
  O  O214  1  0.75592928  0.50659003  0.37047630  1
  O  O215  1  0.76080787  0.50321695  0.87511187  1
  O  O216  1  0.25049771  0.49412048  0.13031655  1
  O  O217  1  0.24412183  0.49346181  0.62549069  1
  O  O218  1  0.24393167  0.99554306  0.13030207  1
  O  O219  1  0.24390549  0.99002635  0.62753342  1
  O  O220  1  0.74717018  0.49887501  0.13413723  1
  O  O221  1  0.74512118  0.49023138  0.62377319  1
  O  O222  1  0.74407346  0.99385782  0.13058916  1
  O  O223  1  0.74418420  0.99445835  0.62984896  1
  O  O224  1  0.00902730  0.36810797  0.24800727  1
  O  O225  1  0.00766370  0.37382810  0.75804575  1
  O  O226  1  0.00459094  0.87046723  0.25543386  1
  O  O227  1  0.00892417  0.86751917  0.75021392  1
  O  O228  1  0.50986340  0.37385889  0.25673192  1
  O  O229  1  0.50523311  0.36834255  0.75380710  1
  O  O230  1  0.50544211  0.87038260  0.25508144  1
  O  O231  1  0.50194805  0.86485126  0.75240085  1
  O  O232  1  0.49173236  0.12580762  0.24338339  1
  O  O233  1  0.49332011  0.13107378  0.74372945  1
  O  O234  1  0.50033127  0.63194574  0.24009074  1
  O  O235  1  0.49506415  0.62920694  0.74363178  1
  O  O236  1  0.99630004  0.13262405  0.24554585  1
  O  O237  1  0.98802874  0.12529537  0.74900098  1
  O  O238  1  0.99421962  0.63113467  0.24592380  1
  O  O239  1  0.99977352  0.63747499  0.74767165  1
  O  O240  1  0.36846249  0.25527415  0.00518413  1
  O  O241  1  0.36848845  0.25070276  0.50698458  1
  O  O242  1  0.36973439  0.75642478  0.00553586  1
  O  O243  1  0.37211112  0.75274480  0.50864016  1
  O  O244  1  0.86315609  0.24986769  0.00020318  1
  O  O245  1  0.86428781  0.25214735  0.49907311  1
  O  O246  1  0.86987545  0.75502815  0.00623508  1
  O  O247  1  0.87650407  0.75627641  0.50997321  1
  O  O248  1  0.13200211  0.24335585  0.49844754  1
  O  O249  1  0.13015640  0.24524760  0.99584417  1
  O  O250  1  0.12458876  0.74385887  0.49309743  1
  O  O251  1  0.13337923  0.74979995  0.99684814  1
  O  O252  1  0.63364203  0.25071772  0.48993671  1
  O  O253  1  0.63141223  0.24770529  0.99289683  1
  O  O254  1  0.62573868  0.74303924  0.49378491  1
  O  O255  1  0.63180506  0.74363366  0.99451887  1
  O  O256  1  0.49251516  0.24278224  0.12688625  1
  O  O257  1  0.49571280  0.24519513  0.62910472  1
  O  O258  1  0.49577976  0.74317028  0.12938536  1
  O  O259  1  0.49508462  0.74316833  0.62996869  1
  O  O260  1  1.00067634  0.24428535  0.13508948  1
  O  O261  1  0.99521538  0.24689937  0.62909894  1
  O  O262  1  0.99351411  0.74636950  0.13126452  1
  O  O263  1  0.99154186  0.75112674  0.63331179  1
  O  O264  1  0.00352022  0.25203137  0.36200314  1
  O  O265  1  0.00690523  0.25715716  0.87594300  1
  O  O266  1  0.00449628  0.75571157  0.36966393  1
  O  O267  1  0.00095698  0.75312933  0.86425633  1
  O  O268  1  0.50957785  0.25588733  0.37512440  1
  O  O269  1  0.50376895  0.25515493  0.86819344  1
  O  O270  1  0.50509395  0.75482368  0.36961012  1
  O  O271  1  0.50650837  0.74839993  0.86849867  1
  O  O272  1  0.24510225  0.12932501  0.49545990  1
  O  O273  1  0.24343939  0.13100095  0.99536205  1
  O  O274  1  0.24300399  0.62608082  0.49170333  1
  O  O275  1  0.25130437  0.63113614  0.99109226  1
  O  O276  1  0.74707187  0.13653078  0.49812898  1
  O  O277  1  0.74563423  0.13469717  0.99759983  1
  O  O278  1  0.74350585  0.62687426  0.49359240  1
  O  O279  1  0.74637595  0.63038927  0.99496625  1
  O  O280  1  0.25509256  0.36996572  0.00484532  1
  O  O281  1  0.25108215  0.36802836  0.50647062  1
  O  O282  1  0.25498155  0.87124891  0.00588743  1
  O  O283  1  0.24966698  0.87283875  0.51269891  1
  O  O284  1  0.74970811  0.36269123  0.00121962  1
  O  O285  1  0.75014052  0.36707180  0.50801457  1
  O  O286  1  0.75502887  0.86850319  0.00681837  1
  O  O287  1  0.75752698  0.87264698  0.50711921  1
  O  O288  1  0.13102640  0.49121673  0.24791622  1
  O  O289  1  0.12647604  0.49369777  0.74310787  1
  O  O290  1  0.12918656  0.99559442  0.24513228  1
  O  O291  1  0.12467956  0.99037826  0.74504241  1
  O  O292  1  0.63118259  0.49058310  0.25174554  1
  O  O293  1  0.62691258  0.49192565  0.74228226  1
  O  O294  1  0.62952495  0.99376925  0.24484480  1
  O  O295  1  0.63037208  0.99848405  0.74329362  1
  O  O296  1  0.36813042  0.00514037  0.25548847  1
  O  O297  1  0.37342598  0.00726930  0.75673036  1
  O  O298  1  0.36885724  0.50165293  0.25638088  1
  O  O299  1  0.37367899  0.50695310  0.75668477  1
  O  O300  1  0.86983550  0.00463622  0.25517957  1
  O  O301  1  0.86938235  0.00574958  0.75512611  1
  O  O302  1  0.87102303  0.50687550  0.25577562  1
  O  O303  1  0.87721689  0.50125942  0.76219641  1
  O  O304  1  0.12512471  0.37317295  0.36059642  1
  O  O305  1  0.12121975  0.37082537  0.87061314  1
  O  O306  1  0.11934535  0.87101488  0.36979408  1
  O  O307  1  0.12484601  0.87414211  0.86312897  1
  O  O308  1  0.62059612  0.36809497  0.36748611  1
  O  O309  1  0.61889578  0.36877477  0.86759281  1
  O  O310  1  0.61926598  0.86987282  0.36948672  1
  O  O311  1  0.62256356  0.86438678  0.87297051  1
  O  O312  1  0.37820541  0.12977416  0.13046851  1
  O  O313  1  0.38005235  0.13023229  0.63049796  1
  O  O314  1  0.38559416  0.63191576  0.12518696  1
  O  O315  1  0.38028267  0.62904256  0.62995416  1
  O  O316  1  0.88223635  0.12665959  0.13284892  1
  O  O317  1  0.87569598  0.12547173  0.63688195  1
  O  O318  1  0.87986971  0.63153145  0.13152527  1
  O  O319  1  0.87779777  0.63636692  0.62650116  1
  O  O320  1  0.25557287  0.25583429  0.11931787  1
  O  O321  1  0.25559443  0.25505830  0.61975662  1
  O  O322  1  0.25532609  0.75644661  0.12045755  1
  O  O323  1  0.25501317  0.75898629  0.62460977  1
  O  O324  1  0.74860327  0.25118343  0.11419586  1
  O  O325  1  0.74842278  0.25893962  0.61523429  1
  O  O326  1  0.75509612  0.75483013  0.12046300  1
  O  O327  1  0.76077796  0.75510134  0.62571495  1
  O  O328  1  0.24977574  0.24261748  0.38160073  1
  O  O329  1  0.24414335  0.24509756  0.88166492  1
  O  O330  1  0.24286555  0.74483127  0.37470716  1
  O  O331  1  0.25139661  0.74074585  0.88022309  1
  O  O332  1  0.74149170  0.25134104  0.38305464  1
  O  O333  1  0.74203934  0.24884750  0.88322307  1
  O  O334  1  0.74321421  0.74389444  0.37651249  1
  O  O335  1  0.74632218  0.74347493  0.88081755  1
  O  O336  1  0.00460447  0.12031315  0.00567623  1
  O  O337  1  0.00653046  0.11833288  0.50004638  1
  O  O338  1  0.00043161  0.61726567  0.00529127  1
  O  O339  1  0.00703517  0.61433706  0.50099922  1
  O  O340  1  0.49930393  0.11741627  0.00746783  1
  O  O341  1  0.50172080  0.11789730  0.50664976  1
  O  O342  1  0.50625437  0.62499945  0.00960221  1
  O  O343  1  0.50614875  0.61943122  0.50554301  1
  O  O344  1  0.49979818  0.38263413  0.49337412  1
  O  O345  1  0.49354616  0.37416460  0.99275259  1
  O  O346  1  0.49827396  0.88137692  0.49301592  1
  O  O347  1  0.49209312  0.88117969  0.99911499  1
  O  O348  1  1.00199406  0.38714758  0.49711086  1
  O  O349  1  1.00022199  0.38526733  0.99471639  1
  O  O350  1  0.99517489  0.88128573  0.49439778  1
  O  O351  1  0.99286260  0.88202008  1.00145050  1
  O  O352  1  0.49545181  0.49631146  0.37991867  1
  O  O353  1  0.49406309  0.49235287  0.87576048  1
  O  O354  1  0.49497988  0.99472332  0.37942100  1
  O  O355  1  0.49242708  0.99892040  0.88167160  1
  O  O356  1  0.99563609  0.50038645  0.38355282  1
  O  O357  1  0.99435228  0.49678846  0.88247631  1
  O  O358  1  0.99437014  0.99413014  0.38011763  1
  O  O359  1  0.99259877  0.99748687  0.88382451  1
  O  O360  1  0.00520228  0.00615991  0.12086271  1
  O  O361  1  0.00660616  0.00028546  0.61747729  1
  O  O362  1  -0.00097016  0.50660422  0.11544722  1
  O  O363  1  0.00619838  0.50042918  0.61540270  1
  O  O364  1  0.50381397  0.00404573  0.11992645  1
  O  O365  1  0.50393032  0.00463104  0.62042842  1
  O  O366  1  0.50291999  0.51225849  0.12398347  1
  O  O367  1  0.50548820  0.50537442  0.61963124  1
  O  O368  1  0.24351298  0.37945341  0.24471103  1
  O  O369  1  0.24352386  0.37667925  0.74352491  1
  O  O370  1  0.24363597  0.88130217  0.24430844  1
  O  O371  1  0.24062189  0.87457417  0.74098309  1
  O  O372  1  0.74019688  0.38081963  0.25140791  1
  O  O373  1  0.74449249  0.37459340  0.73909468  1
  O  O374  1  0.74446268  0.88013465  0.24467404  1
  O  O375  1  0.74901844  0.88185872  0.74290574  1
  O  O376  1  0.25420371  0.11944180  0.25500931  1
  O  O377  1  0.25607931  0.12458276  0.75703137  1
  O  O378  1  0.25088490  0.61876803  0.25554960  1
  O  O379  1  0.25643363  0.62514812  0.75936573  1
  O  O380  1  0.75612117  0.11824776  0.25112930  1
  O  O381  1  0.75843102  0.11765385  0.75099499  1
  O  O382  1  0.75538082  0.62050772  0.25625991  1
  O  O383  1  0.75487266  0.61995238  0.75805669  1
  O  O384  1  0.36960219  0.11893586  0.36964107  1
  O  O385  1  0.36893029  0.12105807  0.87011931  1
  O  O386  1  0.36901431  0.61916976  0.37217251  1
  O  O387  1  0.36804491  0.62023932  0.87045383  1
  O  O388  1  0.87346473  0.11727517  0.36756390  1
  O  O389  1  0.87212755  0.11697352  0.86548597  1
  O  O390  1  0.87008352  0.62096406  0.36993979  1
  O  O391  1  0.87022980  0.61535669  0.87418278  1
  O  O392  1  0.13245266  0.37711002  0.13518187  1
  O  O393  1  0.13135912  0.38045120  0.63078900  1
  O  O394  1  0.12985691  0.88145649  0.13112181  1
  O  O395  1  0.13189321  0.87932127  0.63262564  1
  O  O396  1  0.62393624  0.37496710  0.13841703  1
  O  O397  1  0.63328805  0.37966017  0.62826368  1
  O  O398  1  0.62978764  0.87907670  0.13073722  1
  O  O399  1  0.63173747  0.88085279  0.62665172  1
  O  O400  1  0.11754753  0.25819102  0.24998716  1
  O  O401  1  0.12389960  0.25669573  0.75832362  1
  O  O402  1  0.11861177  0.75687513  0.25533945  1
  O  O403  1  0.11621450  0.75962318  0.74881356  1
  O  O404  1  0.62556913  0.25848756  0.25978829  1
  O  O405  1  0.61922241  0.25487633  0.75358131  1
  O  O406  1  0.61992890  0.75619239  0.25596984  1
  O  O407  1  0.61886894  0.74852969  0.75608660  1
  O  O408  1  0.37559404  0.24325847  0.24347314  1
  O  O409  1  0.38061758  0.24435622  0.74418843  1
  O  O410  1  0.38186308  0.74967583  0.24224068  1
  O  O411  1  0.38122469  0.74311470  0.74422901  1
  O  O412  1  0.88432403  0.24499875  0.25006611  1
  O  O413  1  0.87431305  0.23812113  0.75041739  1
  O  O414  1  0.87994262  0.74554156  0.24556766  1
  O  O415  1  0.88441379  0.75253692  0.74150475  1
  O  O416  1  0.38252040  0.49880383  0.49300251  1
  O  O417  1  0.37829780  0.49198905  0.99296787  1
  O  O418  1  0.38134013  0.99754545  0.49342063  1
  O  O419  1  0.37903884  0.99504777  0.99520930  1
  O  O420  1  0.88569786  0.50048879  0.49473489  1
  O  O421  1  0.88519505  0.49990607  0.99039761  1
  O  O422  1  0.87958815  0.99508326  0.49494468  1
  O  O423  1  0.87849288  0.99533463  0.99680117  1
  O  O424  1  0.11906665  0.00597597  0.00597569  1
  O  O425  1  0.11954323  0.00512742  0.50516174  1
  O  O426  1  0.11301715  0.50309516  0.00104539  1
  O  O427  1  0.11811836  0.50490828  0.50353623  1
  O  O428  1  0.61810627  -0.00060963  0.00697727  1
  O  O429  1  0.61826966  0.00132324  0.50639221  1
  O  O430  1  0.62357923  0.50718949  0.00184336  1
  O  O431  1  0.61968801  0.50575222  0.50456199  1
  O  O432  1  0.37101580  0.36970971  0.11986433  1
  O  O433  1  0.36920247  0.36807713  0.62405199  1
  O  O434  1  0.36850773  0.87115345  0.11956595  1
  O  O435  1  0.36458159  0.86963584  0.62641174  1
  O  O436  1  0.87051665  0.36981079  0.12055515  1
  O  O437  1  0.86339578  0.37389766  0.62260306  1
  O  O438  1  0.86859218  0.86970726  0.12103245  1
  O  O439  1  0.87030983  0.86827359  0.62021067  1
  O  O440  1  0.13263649  0.12546141  0.38203418  1
  O  O441  1  0.12908234  0.13012725  0.88108520  1
  O  O442  1  0.13039305  0.63091041  0.37924800  1
  O  O443  1  0.13800990  0.62723395  0.87574523  1
  O  O444  1  0.62632649  0.13715408  0.37509078  1
  O  O445  1  0.62534092  0.13354770  0.87614683  1
  O  O446  1  0.62977459  0.63025423  0.37989769  1
  O  O447  1  0.63155576  0.62853543  0.88040339  1
