# generated using pymatgen
data_V3Zn3O8
_symmetry_space_group_name_H-M   'P 1'
_cell_length_a   17.08973342
_cell_length_b   17.09084008
_cell_length_c   17.09161467
_cell_angle_alpha   89.98694392
_cell_angle_beta   90.00407619
_cell_angle_gamma   90.01598450
_symmetry_Int_Tables_number   1
_chemical_formula_structural   V3Zn3O8
_chemical_formula_sum   'V96 Zn96 O256'
_cell_volume   4992.08259900
_cell_formula_units_Z   32
loop_
 _symmetry_equiv_pos_site_id
 _symmetry_equiv_pos_as_xyz
  1  'x, y, z'
loop_
 _atom_site_type_symbol
 _atom_site_label
 _atom_site_symmetry_multiplicity
 _atom_site_fract_x
 _atom_site_fract_y
 _atom_site_fract_z
 _atom_site_occupancy
  V  V0  1  0.62533580  0.12426487  0.00006314  1
  V  V1  1  0.87519012  0.12389177  0.74976398  1
  V  V2  1  0.24885332  0.37597538  0.62541166  1
  V  V3  1  0.00077240  -0.00020165  0.49949014  1
  V  V4  1  0.37470922  0.87444737  -0.00008532  1
  V  V5  1  0.12598284  0.87449221  0.24978356  1
  V  V6  1  0.74927110  0.62380546  0.87430224  1
  V  V7  1  0.00174608  0.87440954  0.37370424  1
  V  V8  1  0.12597020  0.00017506  0.12415280  1
  V  V9  1  0.74915946  0.37404200  0.62406741  1
  V  V10  1  0.62448616  0.62781804  0.50042386  1
  V  V11  1  0.50041676  0.87536843  0.87575955  1
  V  V12  1  -0.00056790  0.87450823  0.87526967  1
  V  V13  1  -0.00086978  0.62452796  0.62472359  1
  V  V14  1  0.87493267  0.74953206  0.62474511  1
  V  V15  1  0.87422858  0.50032904  0.37376777  1
  V  V16  1  0.74833764  0.12652086  0.37661856  1
  V  V17  1  0.62313206  0.62442464  0.00014390  1
  V  V18  1  0.12446861  0.25050747  0.37475551  1
  V  V19  1  -0.00009981  0.49903799  0.00027209  1
  V  V20  1  0.37485090  0.75061359  0.62665651  1
  V  V21  1  0.24955170  0.74990049  0.00013283  1
  V  V22  1  0.00109451  0.74945910  0.24985900  1
  V  V23  1  0.87292287  0.49950179  0.87468846  1
  V  V24  1  0.12440125  0.37499347  0.74956294  1
  V  V25  1  0.25194683  0.12486074  0.37412472  1
  V  V26  1  0.37440931  0.37507540  0.00041877  1
  V  V27  1  0.37623056  0.24954606  0.12582698  1
  V  V28  1  0.37598647  0.25085786  0.62520240  1
  V  V29  1  0.87596130  0.87338524  -0.00002438  1
  V  V30  1  0.87618948  0.12389932  0.24909750  1
  V  V31  1  0.87496959  0.74877378  0.12463526  1
  V  V32  1  0.12497475  0.12547281  0.50018855  1
  V  V33  1  0.62740190  0.87383379  0.24948195  1
  V  V34  1  0.87683451  -0.00064510  0.37431865  1
  V  V35  1  0.87607075  0.87348584  0.50014584  1
  V  V36  1  0.25133919  0.87465429  0.12459885  1
  V  V37  1  0.62390469  0.50052857  0.62679241  1
  V  V38  1  0.12471381  0.74866796  0.87527065  1
  V  V39  1  0.37412433  0.49964254  0.87538216  1
  V  V40  1  0.37510860  0.00061768  0.87373023  1
  V  V41  1  0.24952245  0.87509612  0.62507812  1
  V  V42  1  0.12429318  0.62404894  -0.00009882  1
  V  V43  1  0.12456749  0.62541215  0.50061183  1
  V  V44  1  0.87483258  0.62269972  0.25032073  1
  V  V45  1  0.75032440  0.74999878  0.50007867  1
  V  V46  1  0.50175763  0.37549908  0.37271266  1
  V  V47  1  0.49839067  0.75031669  0.75059513  1
  V  V48  1  0.49915301  0.75047941  0.24902848  1
  V  V49  1  0.62443965  0.49918616  0.12724974  1
  V  V50  1  0.62578507  0.75111481  0.37597215  1
  V  V51  1  0.25051012  0.00032399  0.75027008  1
  V  V52  1  0.62438038  0.74947504  0.87563145  1
  V  V53  1  0.62550938  0.87588594  0.75023423  1
  V  V54  1  0.62404394  0.00231111  0.62203013  1
  V  V55  1  0.37334002  0.50302188  0.37608379  1
  V  V56  1  0.50056608  0.00017648  -0.00017089  1
  V  V57  1  -0.00102797  0.24903867  0.74919456  1
  V  V58  1  0.24990058  0.37513718  0.12644729  1
  V  V59  1  0.00176014  0.12402583  0.12351395  1
  V  V60  1  0.75178508  -0.00175779  0.24849443  1
  V  V61  1  -0.00020415  0.62295863  0.12431792  1
  V  V62  1  0.37710416  0.12692864  0.74871630  1
  V  V63  1  0.12561656  0.24908967  0.87576055  1
  V  V64  1  -0.00098056  0.74871151  0.74938381  1
  V  V65  1  0.50041620  0.37338038  0.87457225  1
  V  V66  1  0.24952163  0.25138571  0.49948166  1
  V  V67  1  0.74916616  0.37479865  0.12546493  1
  V  V68  1  0.62401144  0.25084782  0.87430065  1
  V  V69  1  0.37386433  0.37705493  0.50040785  1
  V  V70  1  0.37725533  0.87958527  0.49855894  1
  V  V71  1  0.75159351  0.87391792  0.12481474  1
  V  V72  1  0.00112501  0.24957919  0.24996054  1
  V  V73  1  0.49886741  0.49985426  0.00085465  1
  V  V74  1  0.24933839  0.24938124  -0.00006769  1
  V  V75  1  -0.00010535  0.50020697  0.50064702  1
  V  V76  1  -0.00112933  0.12522867  0.62527638  1
  V  V77  1  0.00129322  -0.00141133  -0.00010397  1
  V  V78  1  0.24942639  0.62605691  0.37574245  1
  V  V79  1  0.75053456  0.24833393  0.00007970  1
  V  V80  1  -0.00154724  0.37388744  0.87422005  1
  V  V81  1  0.37339944  0.62531825  0.75087376  1
  V  V82  1  0.87562903  0.24886225  0.12430171  1
  V  V83  1  0.24840587  0.50057746  0.24966710  1
  V  V84  1  0.75075822  0.12425427  0.87465427  1
  V  V85  1  0.49874114  0.50320487  0.50045714  1
  V  V86  1  -0.00064397  0.37377597  0.37518388  1
  V  V87  1  0.12456921  0.87447435  0.75003262  1
  V  V88  1  0.24968516  0.75002237  0.49991154  1
  V  V89  1  0.87365329  0.37469900  0.50019806  1
  V  V90  1  0.12469423  0.00004552  0.62530846  1
  V  V91  1  0.75017784  -0.00029846  0.75064653  1
  V  V92  1  0.87497743  0.37334726  -0.00073315  1
  V  V93  1  0.24943301  0.49940140  0.75069744  1
  V  V94  1  0.25281486  0.00102894  0.25071916  1
  V  V95  1  0.50045189  0.12553296  0.12721522  1
  Zn  Zn96  1  0.50179812  0.12843434  0.62002300  1
  Zn  Zn97  1  0.37708992  0.12576851  0.25275796  1
  Zn  Zn98  1  0.62660569  0.37360863  0.25151248  1
  Zn  Zn99  1  0.50122521  0.25100403  0.25131018  1
  Zn  Zn100  1  0.62414185  0.37416281  0.75007265  1
  Zn  Zn101  1  0.50138509  0.87838589  0.37475342  1
  Zn  Zn102  1  0.87379689  0.62376762  0.74913244  1
  Zn  Zn103  1  0.87532374  -0.00155746  0.87484534  1
  Zn  Zn104  1  0.12430712  0.49782934  0.12486922  1
  Zn  Zn105  1  0.74952028  0.49876514  0.75040062  1
  Zn  Zn106  1  0.50219430  0.25184399  0.74663405  1
  Zn  Zn107  1  0.74916842  0.75033131  0.00027759  1
  Zn  Zn108  1  0.37610143  0.74864541  0.12441287  1
  Zn  Zn109  1  0.49909978  0.62626134  0.62588854  1
  Zn  Zn110  1  0.87273197  0.24910850  0.62333000  1
  Zn  Zn111  1  0.74882462  0.49939310  0.25220206  1
  Zn  Zn112  1  0.75040497  0.87477688  0.62571177  1
  Zn  Zn113  1  0.50220721  0.00377332  0.49607418  1
  Zn  Zn114  1  0.62548406  0.25129078  0.37448692  1
  Zn  Zn115  1  0.24886356  0.62369464  0.87628786  1
  Zn  Zn116  1  0.37382689  0.62915896  0.24825185  1
  Zn  Zn117  1  0.24959532  0.12528817  0.87641418  1
  Zn  Zn118  1  0.12436609  0.37454137  0.24922939  1
  Zn  Zn119  1  0.12572595  0.75023733  0.37469408  1
  Zn  Zn120  1  0.74975213  0.62365575  0.37348268  1
  Zn  Zn121  1  0.74851974  0.24920014  0.49905814  1
  Zn  Zn122  1  0.37953969  0.00320519  0.37404575  1
  Zn  Zn123  1  0.62647566  -0.00090126  0.12450402  1
  Zn  Zn124  1  0.49735762  0.62521793  0.12571908  1
  Zn  Zn125  1  0.12716500  0.12352070  -0.00218887  1
  Zn  Zn126  1  0.62251039  0.12879893  0.49892505  1
  Zn  Zn127  1  0.12360916  0.49992878  0.62590292  1
  Zn  Zn128  1  0.18809795  0.18686534  0.18742200  1
  Zn  Zn129  1  0.18839437  0.18785767  0.68818524  1
  Zn  Zn130  1  0.18649628  0.68697931  0.18587363  1
  Zn  Zn131  1  0.18704050  0.68609867  0.68710158  1
  Zn  Zn132  1  0.68487161  0.18921491  0.19164134  1
  Zn  Zn133  1  0.68733497  0.18794432  0.68860766  1
  Zn  Zn134  1  0.68836168  0.68606431  0.18824273  1
  Zn  Zn135  1  0.68734095  0.68829844  0.68760164  1
  Zn  Zn136  1  0.31538563  0.31269572  0.31155901  1
  Zn  Zn137  1  0.31224483  0.31233576  0.81314621  1
  Zn  Zn138  1  0.31301820  0.81384554  0.31422331  1
  Zn  Zn139  1  0.31141154  0.81264763  0.81448180  1
  Zn  Zn140  1  0.81308457  0.31300788  0.30998779  1
  Zn  Zn141  1  0.81047948  0.31129348  0.80930534  1
  Zn  Zn142  1  0.81323540  0.80989364  0.31307084  1
  Zn  Zn143  1  0.81214522  0.81132379  0.81257761  1
  Zn  Zn144  1  0.18516155  0.43861247  0.43701487  1
  Zn  Zn145  1  0.18679894  0.43617970  0.93748887  1
  Zn  Zn146  1  0.18929080  0.93806580  0.43610241  1
  Zn  Zn147  1  0.18770667  0.93701926  0.93672293  1
  Zn  Zn148  1  0.68712871  0.44109030  0.43986152  1
  Zn  Zn149  1  0.68621098  0.43694472  0.93963842  1
  Zn  Zn150  1  0.68980360  0.93695650  0.43705025  1
  Zn  Zn151  1  0.68849795  0.93755886  0.93831447  1
  Zn  Zn152  1  0.31341200  0.06311414  0.06258197  1
  Zn  Zn153  1  0.31202078  0.06416666  0.56330999  1
  Zn  Zn154  1  0.31280111  0.56523020  0.06487488  1
  Zn  Zn155  1  0.31135809  0.56375223  0.56494088  1
  Zn  Zn156  1  0.81451516  0.06002021  0.06144635  1
  Zn  Zn157  1  0.81177177  0.06027485  0.56300789  1
  Zn  Zn158  1  0.81114090  0.56207080  0.06174690  1
  Zn  Zn159  1  0.81145895  0.56301620  0.56055403  1
  Zn  Zn160  1  0.43506899  0.43963082  0.18850865  1
  Zn  Zn161  1  0.43787010  0.43711387  0.68878946  1
  Zn  Zn162  1  0.43784893  0.93731139  0.18747606  1
  Zn  Zn163  1  0.43976511  0.93908299  0.68602178  1
  Zn  Zn164  1  0.93675239  0.43637334  0.18790761  1
  Zn  Zn165  1  0.93484857  0.43899484  0.68810378  1
  Zn  Zn166  1  0.93838741  0.93629808  0.18640790  1
  Zn  Zn167  1  0.93665357  0.93708397  0.68747018  1
  Zn  Zn168  1  0.06540515  0.06262995  0.31152388  1
  Zn  Zn169  1  0.06272069  0.06253047  0.81385836  1
  Zn  Zn170  1  0.06293458  0.56283373  0.31429334  1
  Zn  Zn171  1  0.06152030  0.56186205  0.81272701  1
  Zn  Zn172  1  0.56435900  0.05796046  0.31175081  1
  Zn  Zn173  1  0.56285362  0.06350410  0.81084750  1
  Zn  Zn174  1  0.56195041  0.56534091  0.31332072  1
  Zn  Zn175  1  0.55988075  0.56250796  0.81238046  1
  Zn  Zn176  1  0.43849191  0.18786441  0.43937850  1
  Zn  Zn177  1  0.43713174  0.18775961  0.93760966  1
  Zn  Zn178  1  0.43789220  0.69043380  0.43639580  1
  Zn  Zn179  1  0.43652572  0.68640309  0.93759692  1
  Zn  Zn180  1  0.93466157  0.18866370  0.43835062  1
  Zn  Zn181  1  0.93847511  0.18499073  0.93672524  1
  Zn  Zn182  1  0.93784734  0.68689888  0.43638690  1
  Zn  Zn183  1  0.93666943  0.68681824  0.93747043  1
  Zn  Zn184  1  0.06484477  0.31243583  0.06264738  1
  Zn  Zn185  1  0.06152208  0.31251964  0.56313859  1
  Zn  Zn186  1  0.06317220  0.81141936  0.06334120  1
  Zn  Zn187  1  0.06253012  0.81120435  0.56234688  1
  Zn  Zn188  1  0.56278250  0.31217069  0.06109404  1
  Zn  Zn189  1  0.56341805  0.31107690  0.55698753  1
  Zn  Zn190  1  0.56360925  0.81212258  0.06391134  1
  Zn  Zn191  1  0.56173686  0.81490627  0.56464675  1
  O  O192  1  0.11866581  0.11786484  0.12316046  1
  O  O193  1  0.11980242  0.11953805  0.61981330  1
  O  O194  1  0.11693142  0.62183884  0.11767371  1
  O  O195  1  0.11730793  0.62347508  0.61834302  1
  O  O196  1  0.61662078  0.12465811  0.11827134  1
  O  O197  1  0.62576520  0.11429172  0.62475225  1
  O  O198  1  0.62470453  0.61454327  0.11862079  1
  O  O199  1  0.62322260  0.61651693  0.62005945  1
  O  O200  1  0.38084476  0.38316226  0.38166842  1
  O  O201  1  0.38007286  0.38006921  0.88135340  1
  O  O202  1  0.37416366  0.87767595  0.38881544  1
  O  O203  1  0.38131775  0.88110363  0.87946429  1
  O  O204  1  0.88062639  0.37999132  0.38016703  1
  O  O205  1  0.87874651  0.37833430  0.88025512  1
  O  O206  1  0.88229879  0.88020091  0.37951913  1
  O  O207  1  0.88230148  0.87448452  0.88134534  1
  O  O208  1  0.25036900  0.00788287  0.36812530  1
  O  O209  1  0.25696390  0.00005676  0.86753117  1
  O  O210  1  0.25392319  0.50517028  0.36868985  1
  O  O211  1  0.25679292  0.49910221  0.86871328  1
  O  O212  1  0.75845774  0.00600314  0.36813840  1
  O  O213  1  0.75094660  0.00695216  0.86870614  1
  O  O214  1  0.75898906  0.50224598  0.37365857  1
  O  O215  1  0.75347626  0.50805243  0.87586123  1
  O  O216  1  0.24964137  0.49437309  0.13471687  1
  O  O217  1  0.24791955  0.49304777  0.63251129  1
  O  O218  1  0.24540845  0.99434236  0.12984564  1
  O  O219  1  0.24315613  0.99480860  0.63080558  1
  O  O220  1  0.73974920  0.49325424  0.12277681  1
  O  O221  1  0.74020169  0.49307258  0.62453736  1
  O  O222  1  0.75152272  0.99247145  0.13145823  1
  O  O223  1  0.74208734  0.99741186  0.63260548  1
  O  O224  1  0.00030379  0.36704297  0.25682842  1
  O  O225  1  0.00366073  0.36926511  0.75499106  1
  O  O226  1  0.00589235  0.86959669  0.25414785  1
  O  O227  1  0.00576193  0.86905784  0.75463122  1
  O  O228  1  0.49907211  0.37831693  0.26256450  1
  O  O229  1  0.50193645  0.37282484  0.75959379  1
  O  O230  1  0.50853533  0.86663966  0.24906256  1
  O  O231  1  0.50482818  0.87039650  0.75714359  1
  O  O232  1  0.50073819  0.12448348  0.23673983  1
  O  O233  1  0.48674207  0.12680903  0.74733943  1
  O  O234  1  0.49869757  0.63817607  0.24976175  1
  O  O235  1  0.49163600  0.63253371  0.74953747  1
  O  O236  1  0.99537081  0.12924741  0.24404633  1
  O  O237  1  0.99538540  0.12895449  0.74453551  1
  O  O238  1  0.99554693  0.62935298  0.24415005  1
  O  O239  1  0.99885687  0.63167517  0.74350700  1
  O  O240  1  0.36936920  0.25635984  0.00539695  1
  O  O241  1  0.36753080  0.25780037  0.50564728  1
  O  O242  1  0.36826699  0.75775501  -0.00145962  1
  O  O243  1  0.36933676  0.75868066  0.50657775  1
  O  O244  1  0.87043246  0.25369525  0.00490306  1
  O  O245  1  0.87116760  0.25910816  0.50310681  1
  O  O246  1  0.87446817  0.75571816  0.00733420  1
  O  O247  1  0.87110092  0.75455911  0.50479070  1
  O  O248  1  0.12968363  0.24448490  0.49481016  1
  O  O249  1  0.13134783  0.24907392  0.99314746  1
  O  O250  1  0.13231069  0.74420248  0.49908891  1
  O  O251  1  0.12919433  0.74445513  0.99461371  1
  O  O252  1  0.63123387  0.24703222  0.49172790  1
  O  O253  1  0.63197058  0.24357309  0.99459484  1
  O  O254  1  0.62970213  0.74773508  0.49657584  1
  O  O255  1  0.62541372  0.74305221  0.99276050  1
  O  O256  1  0.49483198  0.24048717  0.12233987  1
  O  O257  1  0.49096427  0.25082224  0.62584930  1
  O  O258  1  0.50056468  0.74861940  0.13635067  1
  O  O259  1  0.49276415  0.75018644  0.63382033  1
  O  O260  1  0.99500659  0.24434289  0.12935743  1
  O  O261  1  0.99872556  0.24257260  0.63165265  1
  O  O262  1  0.99471477  0.74320629  0.13051934  1
  O  O263  1  0.99464208  0.74457690  0.62975912  1
  O  O264  1  0.00442491  0.25365517  0.36989108  1
  O  O265  1  0.00457012  0.25516690  0.86913420  1
  O  O266  1  0.00159190  0.75697692  0.36776536  1
  O  O267  1  0.00523632  0.75474732  0.86948028  1
  O  O268  1  0.49790223  0.26552072  0.37551480  1
  O  O269  1  0.50642219  0.25657800  0.87610087  1
  O  O270  1  0.50712117  0.75465952  0.36631125  1
  O  O271  1  0.50479246  0.75605571  0.86998856  1
  O  O272  1  0.24360367  0.13161917  0.49545635  1
  O  O273  1  0.24893030  0.13354042  0.99776982  1
  O  O274  1  0.24471878  0.63048638  0.49602097  1
  O  O275  1  0.24234268  0.63135021  0.99873469  1
  O  O276  1  0.75205547  0.12356583  0.48684836  1
  O  O277  1  0.74619148  0.12914456  0.99526288  1
  O  O278  1  0.74244925  0.63280656  0.49832938  1
  O  O279  1  0.74274952  0.62559569  0.98911297  1
  O  O280  1  0.25564567  0.37002125  0.00634422  1
  O  O281  1  0.25420382  0.37110458  0.50466810  1
  O  O282  1  0.25504093  0.87013982  0.00480933  1
  O  O283  1  0.25590281  0.87045470  0.50642645  1
  O  O284  1  0.75612046  0.36737382  0.00504933  1
  O  O285  1  0.75594352  0.37694430  0.50929221  1
  O  O286  1  0.75748575  0.87331245  0.00601382  1
  O  O287  1  0.75954609  0.86809497  0.50107517  1
  O  O288  1  0.13724087  0.49783587  0.25019738  1
  O  O289  1  0.13035024  0.49216480  0.74981244  1
  O  O290  1  0.13157065  0.99409464  0.24353578  1
  O  O291  1  0.12960125  0.99394595  0.74454927  1
  O  O292  1  0.62494400  0.49959205  0.23765096  1
  O  O293  1  0.62448872  0.49923766  0.73759102  1
  O  O294  1  0.63483989  0.99127679  0.24630183  1
  O  O295  1  0.63028166  0.99551231  0.74364092  1
  O  O296  1  0.36634888  0.00232734  0.25122759  1
  O  O297  1  0.37050187  0.00731113  0.75326385  1
  O  O298  1  0.36274617  0.50261618  0.25699777  1
  O  O299  1  0.36941793  0.50500122  0.75560177  1
  O  O300  1  0.87242037  0.00446959  0.25493855  1
  O  O301  1  0.86883451  0.00551606  0.75148230  1
  O  O302  1  0.87546268  0.50559955  0.25634760  1
  O  O303  1  0.87122059  0.50353145  0.75943120  1
  O  O304  1  0.11709908  0.36747822  0.37475099  1
  O  O305  1  0.11741196  0.36902346  0.86916249  1
  O  O306  1  0.11914459  0.87444419  0.36788299  1
  O  O307  1  0.11923658  0.86867104  0.86892060  1
  O  O308  1  0.61207406  0.38084776  0.37539303  1
  O  O309  1  0.61848131  0.36867716  0.87634147  1
  O  O310  1  0.62659272  0.86829621  0.36718288  1
  O  O311  1  0.61941406  0.86966998  0.87067039  1
  O  O312  1  0.38604952  0.13087688  0.12393662  1
  O  O313  1  0.37403010  0.13181766  0.63386740  1
  O  O314  1  0.37920292  0.63057126  0.12970445  1
  O  O315  1  0.37582991  0.63302357  0.63255350  1
  O  O316  1  0.88145708  0.12971834  0.12959942  1
  O  O317  1  0.88146755  0.12505951  0.63107209  1
  O  O318  1  0.88057986  0.62885092  0.12910233  1
  O  O319  1  0.88111622  0.63137559  0.62557885  1
  O  O320  1  0.25623128  0.25518371  0.12035339  1
  O  O321  1  0.25458839  0.25636692  0.61861023  1
  O  O322  1  0.25002382  0.75781921  0.11790903  1
  O  O323  1  0.25504422  0.75619114  0.62043184  1
  O  O324  1  0.75610769  0.25354959  0.11939414  1
  O  O325  1  0.74987730  0.26287898  0.62341855  1
  O  O326  1  0.75739138  0.75554095  0.12337834  1
  O  O327  1  0.75648872  0.75190907  0.61895654  1
  O  O328  1  0.24478257  0.24624338  0.38073859  1
  O  O329  1  0.24322141  0.25087248  0.88214987  1
  O  O330  1  0.24838280  0.74397370  0.38208723  1
  O  O331  1  0.24165554  0.74930082  0.88182263  1
  O  O332  1  0.75311650  0.23665506  0.37287443  1
  O  O333  1  0.74499273  0.24404858  0.88103763  1
  O  O334  1  0.74408454  0.74774900  0.38224878  1
  O  O335  1  0.74309528  0.74030528  0.87658723  1
  O  O336  1  0.00162918  0.11729002  0.00646601  1
  O  O337  1  0.00513899  0.11921301  0.50455962  1
  O  O338  1  0.00410214  0.61877253  0.00498713  1
  O  O339  1  0.00477810  0.62007324  0.50514135  1
  O  O340  1  0.50515793  0.11975452  0.00700393  1
  O  O341  1  0.50408285  0.12111798  0.50287896  1
  O  O342  1  0.50613294  0.61733965  0.00013292  1
  O  O343  1  0.50558377  0.62081855  0.50252995  1
  O  O344  1  0.49287457  0.38365295  0.49209408  1
  O  O345  1  0.49327999  0.38039699  0.99470528  1
  O  O346  1  0.48749917  0.87652736  0.50056070  1
  O  O347  1  0.49556107  0.88013537  0.99468238  1
  O  O348  1  0.99411516  0.37996858  0.49517832  1
  O  O349  1  0.99393139  0.37813291  0.99386068  1
  O  O350  1  0.99641514  0.88052494  0.49412755  1
  O  O351  1  0.99581910  0.87876664  0.99516474  1
  O  O352  1  0.49310826  0.49599122  0.38086059  1
  O  O353  1  0.49402552  0.49354642  0.88128418  1
  O  O354  1  0.49701607  0.99499433  0.37774185  1
  O  O355  1  0.49512287  0.99464732  0.87978872  1
  O  O356  1  0.99454137  0.49357707  0.38087034  1
  O  O357  1  0.99320641  0.49311160  0.88060235  1
  O  O358  1  0.99637138  0.99509352  0.37990095  1
  O  O359  1  0.99979118  0.99161554  0.88115171  1
  O  O360  1  0.00625240  0.00411567  0.12011641  1
  O  O361  1  0.00591127  0.00505693  0.61927415  1
  O  O362  1  0.00012923  0.50462793  0.11767597  1
  O  O363  1  0.00005605  0.50605532  0.61820405  1
  O  O364  1  0.50131046  0.00951037  0.11805419  1
  O  O365  1  0.51311110  0.00221837  0.62436263  1
  O  O366  1  0.50845704  0.49975474  0.11920740  1
  O  O367  1  0.50813679  0.50049890  0.61899011  1
  O  O368  1  0.24993746  0.38464484  0.24572241  1
  O  O369  1  0.24434437  0.37954874  0.74476314  1
  O  O370  1  0.24521762  0.88050516  0.24459324  1
  O  O371  1  0.24421064  0.88009201  0.74437751  1
  O  O372  1  0.74859039  0.37843466  0.24048307  1
  O  O373  1  0.74635074  0.37805635  0.73829968  1
  O  O374  1  0.74803150  0.87871491  0.24448533  1
  O  O375  1  0.74293775  0.88104122  0.75048425  1
  O  O376  1  0.25061089  0.11835219  0.25634723  1
  O  O377  1  0.26061142  0.11901093  0.75046463  1
  O  O378  1  0.24904013  0.61697259  0.25638300  1
  O  O379  1  0.25522874  0.61815223  0.75235158  1
  O  O380  1  0.75759312  0.11858968  0.25535141  1
  O  O381  1  0.75601453  0.11973034  0.75585612  1
  O  O382  1  0.75967435  0.62138344  0.25194647  1
  O  O383  1  0.74949185  0.62309062  0.76353164  1
  O  O384  1  0.36590661  0.12477631  0.37390671  1
  O  O385  1  0.37390232  0.11931094  0.86541676  1
  O  O386  1  0.36706525  0.61985689  0.37442848  1
  O  O387  1  0.37236334  0.61724343  0.86915329  1
  O  O388  1  0.87011772  0.11822801  0.36853969  1
  O  O389  1  0.86870126  0.12253081  0.86832955  1
  O  O390  1  0.87602911  0.61768519  0.36801610  1
  O  O391  1  0.86454333  0.61908871  0.87603938  1
  O  O392  1  0.13343659  0.37741462  0.12849740  1
  O  O393  1  0.13096490  0.37574759  0.63170771  1
  O  O394  1  0.13095540  0.88069734  0.13042550  1
  O  O395  1  0.12944027  0.88049738  0.63029260  1
  O  O396  1  0.63011958  0.38448749  0.12287849  1
  O  O397  1  0.63208137  0.38526820  0.62226234  1
  O  O398  1  0.63418750  0.87573396  0.13103432  1
  O  O399  1  0.62698735  0.88383931  0.63301146  1
  O  O400  1  0.11833675  0.25022993  0.25733168  1
  O  O401  1  0.11924898  0.25550916  0.75518017  1
  O  O402  1  0.11847495  0.75690306  0.25052433  1
  O  O403  1  0.11949704  0.75572175  0.75452299  1
  O  O404  1  0.61902159  0.25589976  0.25623467  1
  O  O405  1  0.62215005  0.25194057  0.75930873  1
  O  O406  1  0.61940671  0.75415513  0.25557327  1
  O  O407  1  0.61859662  0.75543441  0.75581474  1
  O  O408  1  0.37965859  0.24742509  0.24079492  1
  O  O409  1  0.37411311  0.24160985  0.74453086  1
  O  O410  1  0.38694645  0.75276561  0.24974848  1
  O  O411  1  0.37864309  0.74612650  0.74658837  1
  O  O412  1  0.88196340  0.24335314  0.24302142  1
  O  O413  1  0.88170989  0.24246774  0.74761170  1
  O  O414  1  0.88198016  0.74359939  0.24417905  1
  O  O415  1  0.88177340  0.74812325  0.74342986  1
  O  O416  1  0.37841880  0.49636939  0.49605827  1
  O  O417  1  0.37896250  0.49433419  0.99542326  1
  O  O418  1  0.37374248  0.98875314  0.50232623  1
  O  O419  1  0.38070491  0.99435220  0.99335516  1
  O  O420  1  0.88109041  0.49488019  0.49374732  1
  O  O421  1  0.88010365  0.49269459  0.99456776  1
  O  O422  1  0.88223392  0.99369356  0.49441412  1
  O  O423  1  0.88359129  0.99138285  0.99832718  1
  O  O424  1  0.11922943  -0.00044181  0.00661121  1
  O  O425  1  0.12028507  0.00545237  0.50572783  1
  O  O426  1  0.11706567  0.50540001  -0.00043592  1
  O  O427  1  0.11744328  0.50678120  0.50190077  1
  O  O428  1  0.61845149  0.00636247  0.00129764  1
  O  O429  1  0.62780901  -0.00054399  0.51198012  1
  O  O430  1  0.61858330  0.50428343  0.00824929  1
  O  O431  1  0.61878114  0.50764837  0.50919467  1
  O  O432  1  0.37023534  0.36994897  0.11905335  1
  O  O433  1  0.36825514  0.37123342  0.61971885  1
  O  O434  1  0.36861142  0.87382198  0.11654170  1
  O  O435  1  0.36841893  0.87070852  0.61970487  1
  O  O436  1  0.87018171  0.36818878  0.11828733  1
  O  O437  1  0.86451614  0.37643877  0.61917248  1
  O  O438  1  0.87139878  0.86790220  0.12021786  1
  O  O439  1  0.87539460  0.86773744  0.61756066  1
  O  O440  1  0.13044610  0.13078111  0.38154508  1
  O  O441  1  0.12813812  0.13334907  0.87617834  1
  O  O442  1  0.13120474  0.62730052  0.38313379  1
  O  O443  1  0.12480394  0.63152446  0.88179692  1
  O  O444  1  0.63990763  0.12219120  0.37325360  1
  O  O445  1  0.63052525  0.13025310  0.88057256  1
  O  O446  1  0.62645676  0.63247756  0.38309863  1
  O  O447  1  0.63085153  0.62860200  0.87984132  1
