# generated using pymatgen
data_V3Zn3O8
_symmetry_space_group_name_H-M   'P 1'
_cell_length_a   17.08076439
_cell_length_b   17.08115203
_cell_length_c   17.08110075
_cell_angle_alpha   89.98805129
_cell_angle_beta   90.00464584
_cell_angle_gamma   90.00189265
_symmetry_Int_Tables_number   1
_chemical_formula_structural   V3Zn3O8
_chemical_formula_sum   'V96 Zn96 O256'
_cell_volume   4983.56702485
_cell_formula_units_Z   32
loop_
 _symmetry_equiv_pos_site_id
 _symmetry_equiv_pos_as_xyz
  1  'x, y, z'
loop_
 _atom_site_type_symbol
 _atom_site_label
 _atom_site_symmetry_multiplicity
 _atom_site_fract_x
 _atom_site_fract_y
 _atom_site_fract_z
 _atom_site_occupancy
  V  V0  1  0.12559967  0.00033037  0.12615590  1
  V  V1  1  0.24983706  0.87645175  0.12493888  1
  V  V2  1  0.74924702  0.62515384  0.87535000  1
  V  V3  1  0.24939624  0.37699793  0.12524198  1
  V  V4  1  0.25027433  0.49935585  0.74932434  1
  V  V5  1  0.87572697  0.75073647  0.12554492  1
  V  V6  1  0.50015940  0.37618774  0.37471233  1
  V  V7  1  0.50127485  0.62378691  0.62435318  1
  V  V8  1  0.24930241  0.25028741  -0.00046948  1
  V  V9  1  0.12507243  0.12596480  -0.00011769  1
  V  V10  1  -0.00160265  0.37552559  0.87604267  1
  V  V11  1  0.00047992  0.75060019  0.25097094  1
  V  V12  1  0.74918639  0.25132599  0.00087356  1
  V  V13  1  0.25065487  0.37271695  0.62438566  1
  V  V14  1  0.62607369  0.49834771  0.62470538  1
  V  V15  1  0.50087904  0.87578678  0.37499130  1
  V  V16  1  0.87363372  0.25126116  0.12505294  1
  V  V17  1  0.74997002  0.74940166  0.50086696  1
  V  V18  1  0.50009209  0.25144135  0.24955446  1
  V  V19  1  0.37560775  0.00021040  0.37539559  1
  V  V20  1  0.00097150  0.62607759  0.12461280  1
  V  V21  1  0.12373530  -0.00125513  0.62363521  1
  V  V22  1  0.87594155  0.49991705  0.37409132  1
  V  V23  1  0.24891646  0.62616017  0.87440952  1
  V  V24  1  0.24971127  0.00122912  0.75087602  1
  V  V25  1  0.25075939  0.00145633  0.25050350  1
  V  V26  1  0.62756318  0.24854884  0.37735586  1
  V  V27  1  0.49973642  0.12541107  0.12442482  1
  V  V28  1  0.50198841  0.50009074  0.50026133  1
  V  V29  1  0.62569322  0.87576616  0.25078530  1
  V  V30  1  0.37453584  0.37618147  -0.00009829  1
  V  V31  1  0.62482262  -0.00004738  0.12549270  1
  V  V32  1  -0.00039101  0.12550426  0.12529802  1
  V  V33  1  -0.00056166  0.87482241  0.87457721  1
  V  V34  1  -0.00301906  0.12537353  0.62609965  1
  V  V35  1  0.49806865  -0.00040995  -0.00072072  1
  V  V36  1  0.62423785  -0.00056526  0.62545860  1
  V  V37  1  0.62564159  0.37705552  0.24781449  1
  V  V38  1  0.87511801  0.62508694  0.25063758  1
  V  V39  1  0.25133557  0.62406500  0.37486330  1
  V  V40  1  0.62618349  0.74912850  0.37548144  1
  V  V41  1  0.12475131  0.74969836  0.87438806  1
  V  V42  1  0.12434504  0.87442086  0.74908365  1
  V  V43  1  0.62574615  0.37452408  0.75043695  1
  V  V44  1  0.12545680  0.50107829  0.12510091  1
  V  V45  1  0.74983550  0.50060170  0.24870642  1
  V  V46  1  0.75053360  -0.00099971  0.75113933  1
  V  V47  1  -0.00019996  0.00030470  0.00060396  1
  V  V48  1  0.37345766  0.75242183  0.12369631  1
  V  V49  1  0.00053783  0.87428209  0.37548965  1
  V  V50  1  0.87508733  0.00052155  0.37492103  1
  V  V51  1  0.75022536  0.87535506  0.12482780  1
  V  V52  1  0.75093506  0.00131699  0.25124109  1
  V  V53  1  0.37483628  0.37358036  0.50011979  1
  V  V54  1  0.74936681  0.87447976  0.62570626  1
  V  V55  1  -0.00035964  0.50040352  -0.00051768  1
  V  V56  1  0.87377080  -0.00016793  0.87537238  1
  V  V57  1  0.37530097  0.74966919  0.62342596  1
  V  V58  1  0.12462110  0.37367862  0.75037710  1
  V  V59  1  0.87510722  0.62354542  0.74916603  1
  V  V60  1  0.49993001  0.37508115  0.87457009  1
  V  V61  1  0.37455499  0.50065949  0.87434821  1
  V  V62  1  0.12466029  0.37529717  0.24925032  1
  V  V63  1  0.37543917  0.25149538  0.12486639  1
  V  V64  1  0.87518696  0.12535428  0.25096879  1
  V  V65  1  0.12548088  0.62359761  0.49974688  1
  V  V66  1  0.50004183  0.12408025  0.62623845  1
  V  V67  1  0.37455357  0.62513647  0.25004391  1
  V  V68  1  0.74943380  0.12301228  0.87620774  1
  V  V69  1  0.49955253  0.75005185  0.75048292  1
  V  V70  1  0.00032261  0.49900353  0.49938480  1
  V  V71  1  0.49779726  0.87526987  0.87506456  1
  V  V72  1  0.87436847  0.87425303  0.50085608  1
  V  V73  1  0.12452879  0.24992240  0.87571567  1
  V  V74  1  0.12568378  0.49837384  0.62470431  1
  V  V75  1  0.50032954  0.25034512  0.75088469  1
  V  V76  1  0.00086914  0.25101681  0.24927345  1
  V  V77  1  0.37561535  0.50054000  0.37486907  1
  V  V78  1  0.12497769  0.74972882  0.37496432  1
  V  V79  1  0.87486039  0.87522297  0.00036364  1
  V  V80  1  -0.00038598  0.74857228  0.74868803  1
  V  V81  1  0.25162088  0.74946664  0.49958933  1
  V  V82  1  0.37605151  0.87442639  0.49886864  1
  V  V83  1  0.37464722  0.24947545  0.62516938  1
  V  V84  1  0.75024523  0.49872640  0.74967210  1
  V  V85  1  0.62426150  0.12479810  -0.00000554  1
  V  V86  1  -0.00005557  0.62427334  0.62523347  1
  V  V87  1  0.49985733  0.50163569  0.00016371  1
  V  V88  1  0.37503784  0.62462686  0.74898586  1
  V  V89  1  0.00197804  0.37391614  0.37333367  1
  V  V90  1  0.12517545  0.62699540  -0.00063295  1
  V  V91  1  0.00105021  -0.00074849  0.50004484  1
  V  V92  1  0.37451425  0.12570294  0.25153388  1
  V  V93  1  0.87455112  0.37079775  0.50157327  1
  V  V94  1  0.50066774  0.62591942  0.12353042  1
  V  V95  1  0.74962677  0.74948546  -0.00097619  1
  Zn  Zn96  1  0.87426400  0.49882126  0.87642864  1
  Zn  Zn97  1  0.62250303  0.74940308  0.87554071  1
  Zn  Zn98  1  0.87308186  0.24953038  0.62980187  1
  Zn  Zn99  1  0.87295704  0.37722381  0.00094438  1
  Zn  Zn100  1  0.24896787  0.75343701  -0.00156023  1
  Zn  Zn101  1  0.12703012  0.12738968  0.49818468  1
  Zn  Zn102  1  0.25064839  0.12520760  0.87443615  1
  Zn  Zn103  1  0.24815569  0.24685614  0.49840357  1
  Zn  Zn104  1  0.62573026  0.50183279  0.12346569  1
  Zn  Zn105  1  0.87370504  0.74900923  0.62477959  1
  Zn  Zn106  1  0.62790848  0.12532133  0.50050491  1
  Zn  Zn107  1  0.24932363  0.50004306  0.25040059  1
  Zn  Zn108  1  0.50119642  0.75109702  0.24926743  1
  Zn  Zn109  1  0.75090499  0.62492460  0.37716593  1
  Zn  Zn110  1  0.37298349  0.12495724  0.75204855  1
  Zn  Zn111  1  0.12569365  0.87583153  0.25094373  1
  Zn  Zn112  1  0.75120547  0.12606924  0.37750722  1
  Zn  Zn113  1  0.74957494  0.37784818  0.12186732  1
  Zn  Zn114  1  0.37217123  0.87819049  -0.00088495  1
  Zn  Zn115  1  0.75172738  0.24631059  0.50361849  1
  Zn  Zn116  1  0.62801845  0.62250660  0.49968578  1
  Zn  Zn117  1  0.62557413  0.62541219  0.00015603  1
  Zn  Zn118  1  0.37261616  0.00265164  0.87595002  1
  Zn  Zn119  1  0.87445673  0.12726250  0.75137250  1
  Zn  Zn120  1  0.50019269  0.00081492  0.50015544  1
  Zn  Zn121  1  0.62427616  0.24940908  0.87494803  1
  Zn  Zn122  1  0.12894312  0.24734925  0.37564682  1
  Zn  Zn123  1  -0.00204281  0.24814507  0.75072069  1
  Zn  Zn124  1  0.62481393  0.87180880  0.75118682  1
  Zn  Zn125  1  0.75154407  0.37115227  0.62634952  1
  Zn  Zn126  1  0.24918395  0.12562197  0.37973297  1
  Zn  Zn127  1  0.25012447  0.87466782  0.62387971  1
  Zn  Zn128  1  0.18832895  0.18816278  0.18844011  1
  Zn  Zn129  1  0.18409165  0.18647921  0.68568493  1
  Zn  Zn130  1  0.18850240  0.68844748  0.18896411  1
  Zn  Zn131  1  0.18786212  0.68753663  0.68647515  1
  Zn  Zn132  1  0.68792468  0.18762758  0.18851421  1
  Zn  Zn133  1  0.68956630  0.18816147  0.68824495  1
  Zn  Zn134  1  0.68804636  0.68806207  0.18780990  1
  Zn  Zn135  1  0.68526072  0.68705360  0.68852856  1
  Zn  Zn136  1  0.31062320  0.31239668  0.31299193  1
  Zn  Zn137  1  0.31279757  0.31129111  0.81184195  1
  Zn  Zn138  1  0.31261017  0.81330854  0.31110923  1
  Zn  Zn139  1  0.31245923  0.81415668  0.81083073  1
  Zn  Zn140  1  0.81241083  0.31341150  0.31239708  1
  Zn  Zn141  1  0.81342182  0.31023070  0.81279482  1
  Zn  Zn142  1  0.81255720  0.81384243  0.31345394  1
  Zn  Zn143  1  0.81268988  0.81103084  0.81107186  1
  Zn  Zn144  1  0.18900548  0.43481971  0.43683944  1
  Zn  Zn145  1  0.18603825  0.43842881  0.93786826  1
  Zn  Zn146  1  0.18905598  0.93784525  0.43715349  1
  Zn  Zn147  1  0.18668972  0.93748706  0.93765564  1
  Zn  Zn148  1  0.68966650  0.43561229  0.43688461  1
  Zn  Zn149  1  0.68446408  0.43916459  0.93665267  1
  Zn  Zn150  1  0.68828178  0.93787216  0.43931036  1
  Zn  Zn151  1  0.68432611  0.93607853  0.93731151  1
  Zn  Zn152  1  0.31266678  0.06366170  0.06246701  1
  Zn  Zn153  1  0.31205940  0.06177208  0.56318717  1
  Zn  Zn154  1  0.31153015  0.56425976  0.06143976  1
  Zn  Zn155  1  0.31375637  0.56085867  0.56138240  1
  Zn  Zn156  1  0.81245621  0.06366558  0.06314920  1
  Zn  Zn157  1  0.81114521  0.06313173  0.56070229  1
  Zn  Zn158  1  0.81456897  0.56319898  0.06204350  1
  Zn  Zn159  1  0.81205060  0.56105967  0.56266897  1
  Zn  Zn160  1  0.43694013  0.43960887  0.18805118  1
  Zn  Zn161  1  0.43837944  0.43624263  0.68697598  1
  Zn  Zn162  1  0.43790322  0.93770874  0.18906945  1
  Zn  Zn163  1  0.43507713  0.93600336  0.68847965  1
  Zn  Zn164  1  0.93694049  0.43647524  0.18518807  1
  Zn  Zn165  1  0.93740485  0.43778468  0.68823330  1
  Zn  Zn166  1  0.93838334  0.93741906  0.18902421  1
  Zn  Zn167  1  0.93566684  0.93802032  0.68733947  1
  Zn  Zn168  1  0.06438657  0.06361383  0.31343734  1
  Zn  Zn169  1  0.06283771  0.06275684  0.81164216  1
  Zn  Zn170  1  0.06260586  0.56189448  0.31208011  1
  Zn  Zn171  1  0.06301490  0.56124580  0.81216876  1
  Zn  Zn172  1  0.56115363  0.06337358  0.31215493  1
  Zn  Zn173  1  0.56331438  0.06156651  0.81219962  1
  Zn  Zn174  1  0.56222386  0.56473657  0.31151650  1
  Zn  Zn175  1  0.56416764  0.56209581  0.81171269  1
  Zn  Zn176  1  0.43859429  0.18734930  0.43906021  1
  Zn  Zn177  1  0.43517351  0.18653813  0.93513346  1
  Zn  Zn178  1  0.44032545  0.68740298  0.43781784  1
  Zn  Zn179  1  0.43515631  0.68886096  0.93800302  1
  Zn  Zn180  1  0.94243864  0.18667161  0.43677480  1
  Zn  Zn181  1  0.93584418  0.18801562  0.93801466  1
  Zn  Zn182  1  0.93648844  0.68712373  0.43797346  1
  Zn  Zn183  1  0.93616915  0.68725173  0.93639865  1
  Zn  Zn184  1  0.06220151  0.31310854  0.06229407  1
  Zn  Zn185  1  0.06247339  0.30875479  0.56126466  1
  Zn  Zn186  1  0.06387436  0.81369722  0.06243917  1
  Zn  Zn187  1  0.06285940  0.81169452  0.56244839  1
  Zn  Zn188  1  0.56296945  0.31415191  0.06228579  1
  Zn  Zn189  1  0.56225533  0.31291524  0.56361084  1
  Zn  Zn190  1  0.56307826  0.81229503  0.05978704  1
  Zn  Zn191  1  0.56220466  0.81285366  0.56161358  1
  O  O192  1  0.11867951  0.12020186  0.11971606  1
  O  O193  1  0.11312846  0.11551845  0.62454047  1
  O  O194  1  0.11986559  0.62180189  0.11989434  1
  O  O195  1  0.12052920  0.61807103  0.61921382  1
  O  O196  1  0.61895288  0.11922402  0.12093581  1
  O  O197  1  0.61694005  0.11615486  0.62644282  1
  O  O198  1  0.61166380  0.62603461  0.12503686  1
  O  O199  1  0.61793325  0.61673748  0.62390701  1
  O  O200  1  0.38176914  0.38084225  0.37919178  1
  O  O201  1  0.37954393  0.38163581  0.88031191  1
  O  O202  1  0.38144952  0.87937311  0.37854199  1
  O  O203  1  0.38578867  0.87688658  0.87731635  1
  O  O204  1  0.88217751  0.38078893  0.38065231  1
  O  O205  1  0.88768620  0.37653655  0.87800367  1
  O  O206  1  0.88098815  0.88057062  0.38052519  1
  O  O207  1  0.88021744  0.87937771  0.88141684  1
  O  O208  1  0.25863694  -0.00039729  0.36720664  1
  O  O209  1  0.24768231  0.00084411  0.86358018  1
  O  O210  1  0.25755014  0.50677422  0.37506187  1
  O  O211  1  0.25465662  0.50544003  0.86905742  1
  O  O212  1  0.75686093  -0.00037596  0.36811199  1
  O  O213  1  0.75385494  0.00301312  0.87212021  1
  O  O214  1  0.75603983  0.50118369  0.36371660  1
  O  O215  1  0.75090514  0.50980024  0.86982459  1
  O  O216  1  0.24353288  0.49483989  0.12497941  1
  O  O217  1  0.24548931  0.49410629  0.63011131  1
  O  O218  1  0.24532055  0.99562983  0.13034044  1
  O  O219  1  0.24173544  0.99657476  0.63398302  1
  O  O220  1  0.74866204  0.50065979  0.13629093  1
  O  O221  1  0.74360701  0.49723337  0.63213390  1
  O  O222  1  0.74503346  0.99455425  0.13032849  1
  O  O223  1  0.74219056  0.99492953  0.63033868  1
  O  O224  1  0.00463805  0.37059062  0.25340954  1
  O  O225  1  0.00684630  0.37652899  0.76077455  1
  O  O226  1  0.00093076  0.86789393  0.25707565  1
  O  O227  1  0.00414564  0.86927296  0.75548602  1
  O  O228  1  0.50613320  0.37165713  0.25484439  1
  O  O229  1  0.50513540  0.37050192  0.75558572  1
  O  O230  1  0.50856589  0.87384978  0.25617551  1
  O  O231  1  0.49889055  0.86848282  0.75899813  1
  O  O232  1  0.49476018  0.13155087  0.24286693  1
  O  O233  1  0.50033753  0.13042417  0.74049872  1
  O  O234  1  0.49334782  0.62734778  0.23940367  1
  O  O235  1  0.49324787  0.62888745  0.74483515  1
  O  O236  1  0.99416787  0.13043426  0.24324439  1
  O  O237  1  0.99735800  0.12344184  0.73985623  1
  O  O238  1  0.99478549  0.63068442  0.24421369  1
  O  O239  1  0.99605520  0.62850570  0.74500669  1
  O  O240  1  0.36998172  0.25706320  0.00573334  1
  O  O241  1  0.37721361  0.25781060  0.50837617  1
  O  O242  1  0.37142009  0.75176105  0.01339861  1
  O  O243  1  0.37067214  0.75373106  0.50380154  1
  O  O244  1  0.86353696  0.24929085  0.00617401  1
  O  O245  1  0.87770284  0.26236403  0.49794462  1
  O  O246  1  0.87074673  0.75609898  0.00614130  1
  O  O247  1  0.86789488  0.75619871  0.50087050  1
  O  O248  1  0.12856375  0.24779009  0.49551003  1
  O  O249  1  0.13032799  0.24540713  0.99634718  1
  O  O250  1  0.13068409  0.74273723  0.49463265  1
  O  O251  1  0.12459869  0.74417117  0.99228870  1
  O  O252  1  0.62424300  0.25251306  0.48679628  1
  O  O253  1  0.63350427  0.24379472  1.00057712  1
  O  O254  1  0.63134203  0.75029072  0.48986805  1
  O  O255  1  0.63451823  0.74669664  0.99722852  1
  O  O256  1  0.49485863  0.24578617  0.12968677  1
  O  O257  1  0.49602658  0.24257838  0.63110631  1
  O  O258  1  0.49141925  0.74282348  0.12496341  1
  O  O259  1  0.49451031  0.74383219  0.62939734  1
  O  O260  1  0.99397128  0.24469361  0.12890996  1
  O  O261  1  0.99805624  0.23714258  0.62663847  1
  O  O262  1  0.99505864  0.74586721  0.13027835  1
  O  O263  1  0.99961090  0.74169510  0.63088640  1
  O  O264  1  0.00129811  0.25742581  0.36515964  1
  O  O265  1  0.00621323  0.26020724  0.87790922  1
  O  O266  1  0.00512328  0.75445729  0.37079062  1
  O  O267  1  0.00480655  0.75509258  0.86883681  1
  O  O268  1  0.50703999  0.25672244  0.36865495  1
  O  O269  1  0.50049750  0.25762323  0.86962252  1
  O  O270  1  0.51063528  0.75567758  0.37324875  1
  O  O271  1  0.49811367  0.75755595  0.86985440  1
  O  O272  1  0.24712862  0.12737115  0.49966925  1
  O  O273  1  0.24225392  0.13261537  1.00065095  1
  O  O274  1  0.24534975  0.62921386  0.49472358  1
  O  O275  1  0.24284683  0.62746993  0.99192638  1
  O  O276  1  0.74554702  0.12833548  0.49437862  1
  O  O277  1  0.74387497  0.13153054  0.99707446  1
  O  O278  1  0.74846360  0.63249672  0.49736190  1
  O  O279  1  0.75164676  0.63050307  0.99113286  1
  O  O280  1  0.25507773  0.37107363  0.00534169  1
  O  O281  1  0.25843104  0.37552617  0.50805672  1
  O  O282  1  0.25180482  0.87358809  0.00883521  1
  O  O283  1  0.25775333  0.86634082  0.50019481  1
  O  O284  1  0.74921485  0.36426188  0.00008866  1
  O  O285  1  0.76375422  0.37395361  0.50001979  1
  O  O286  1  0.75557021  0.87056240  0.00554574  1
  O  O287  1  0.75544431  0.86958700  0.50622155  1
  O  O288  1  0.12539138  0.49455509  0.24192088  1
  O  O289  1  0.13142116  0.49453905  0.74411815  1
  O  O290  1  0.13133154  0.99900829  0.24245022  1
  O  O291  1  0.12999647  0.99305509  0.74423861  1
  O  O292  1  0.63335261  0.49471539  0.25032411  1
  O  O293  1  0.63011824  0.49400762  0.74441561  1
  O  O294  1  0.63080037  0.99537157  0.24484458  1
  O  O295  1  0.63101499  0.99706451  0.73971475  1
  O  O296  1  0.37102446  0.00617346  0.25485685  1
  O  O297  1  0.36085917  -0.00021433  0.75000142  1
  O  O298  1  0.37330018  0.50683798  0.25749406  1
  O  O299  1  0.36976124  0.50480778  0.75477678  1
  O  O300  1  0.87046603  0.00512263  0.25485498  1
  O  O301  1  0.86770049  -0.00032018  0.75901508  1
  O  O302  1  0.86855382  0.50464904  0.25370207  1
  O  O303  1  0.86859961  0.50618876  0.75268095  1
  O  O304  1  0.11815219  0.37660132  0.36646846  1
  O  O305  1  0.11753253  0.37076237  0.87074557  1
  O  O306  1  0.11847464  0.86720553  0.37442925  1
  O  O307  1  0.11765569  0.86937237  0.86976805  1
  O  O308  1  0.61970479  0.36888887  0.36674588  1
  O  O309  1  0.61645322  0.37423609  0.86844955  1
  O  O310  1  0.62148839  0.86813343  0.37064089  1
  O  O311  1  0.61118358  0.87251169  0.87344149  1
  O  O312  1  0.38111717  0.13239147  0.13045334  1
  O  O313  1  0.38562017  0.12965124  0.62833511  1
  O  O314  1  0.38075619  0.63287978  0.12892668  1
  O  O315  1  0.38105733  0.62891330  0.62980815  1
  O  O316  1  0.88073349  0.13033503  0.13085788  1
  O  O317  1  0.88656471  0.12160486  0.62665813  1
  O  O318  1  0.88178314  0.63189333  0.13053059  1
  O  O319  1  0.88277094  0.62496850  0.63102589  1
  O  O320  1  0.25615352  0.25716848  0.11932937  1
  O  O321  1  0.25707218  0.25701303  0.62688670  1
  O  O322  1  0.25815831  0.75666306  0.12501867  1
  O  O323  1  0.25709267  0.74938219  0.61759163  1
  O  O324  1  0.75416159  0.24967972  0.11572627  1
  O  O325  1  0.75482953  0.25363924  0.62140500  1
  O  O326  1  0.75650850  0.75567008  0.12045810  1
  O  O327  1  0.74930175  0.75594468  0.61846685  1
  O  O328  1  0.24884676  0.24612025  0.37788157  1
  O  O329  1  0.24230401  0.25138075  0.88234698  1
  O  O330  1  0.24555616  0.74364754  0.37995437  1
  O  O331  1  0.24307494  0.74406809  0.87430185  1
  O  O332  1  0.73811104  0.25027999  0.37452376  1
  O  O333  1  0.74832690  0.24279396  0.88661987  1
  O  O334  1  0.74126955  0.75127768  0.38113438  1
  O  O335  1  0.75033752  0.74060080  0.87992901  1
  O  O336  1  0.00447649  0.11964699  0.00625888  1
  O  O337  1  0.00041522  0.11576991  0.50923008  1
  O  O338  1  0.00529888  0.62136400  0.00512863  1
  O  O339  1  0.00586737  0.61872621  0.50466364  1
  O  O340  1  0.50510963  0.12076422  0.00563856  1
  O  O341  1  0.50391614  0.12348373  0.51475157  1
  O  O342  1  0.49804342  0.62072045  0.00881650  1
  O  O343  1  0.50235279  0.61764250  0.50664609  1
  O  O344  1  0.49469844  0.38114200  0.49408467  1
  O  O345  1  0.49358959  0.38103669  0.99514949  1
  O  O346  1  0.49324245  0.87572394  0.49256120  1
  O  O347  1  0.49807103  0.88094434  0.99207223  1
  O  O348  1  0.99380247  0.38125892  0.49397533  1
  O  O349  1  1.00171073  0.38168268  0.99073577  1
  O  O350  1  0.99400946  0.87855190  0.49488770  1
  O  O351  1  0.99449283  0.88040797  0.99481135  1
  O  O352  1  0.49582569  0.49563397  0.37976747  1
  O  O353  1  0.49314093  0.49588387  0.87942378  1
  O  O354  1  0.49501840  0.99324497  0.37643063  1
  O  O355  1  0.49937474  0.99109764  0.87998779  1
  O  O356  1  0.99498871  0.49466562  0.37969834  1
  O  O357  1  1.00155611  0.49089965  0.88081222  1
  O  O358  1  0.99435016  0.99335938  0.37962643  1
  O  O359  1  0.99502969  0.99384159  0.88138469  1
  O  O360  1  0.00445518  0.00530974  0.12000493  1
  O  O361  1  0.00468564  0.00445305  0.62017778  1
  O  O362  1  0.00542414  0.50712288  0.11982689  1
  O  O363  1  0.00715475  0.50476772  0.61951278  1
  O  O364  1  0.50589132  0.00557347  0.12059700  1
  O  O365  1  0.50768877  0.00710936  0.62778315  1
  O  O366  1  0.49749467  0.51151039  0.11908865  1
  O  O367  1  0.50542575  0.50434462  0.61999909  1
  O  O368  1  0.24391696  0.37773407  0.24178187  1
  O  O369  1  0.24502952  0.38114462  0.74479523  1
  O  O370  1  0.24869405  0.88274483  0.24260653  1
  O  O371  1  0.24200954  0.88260012  0.74794710  1
  O  O372  1  0.74399004  0.38510549  0.24837042  1
  O  O373  1  0.74390003  0.38175437  0.75205045  1
  O  O374  1  0.74605993  0.88133808  0.24368484  1
  O  O375  1  0.74789265  0.88035694  0.74427543  1
  O  O376  1  0.25901406  0.11830029  0.24804524  1
  O  O377  1  0.24721553  0.11281474  0.75043713  1
  O  O378  1  0.25646400  0.62333544  0.25726129  1
  O  O379  1  0.25510662  0.61887191  0.75443661  1
  O  O380  1  0.75729256  0.11857552  0.25159984  1
  O  O381  1  0.75067694  0.11658325  0.75875676  1
  O  O382  1  0.75649238  0.61693497  0.25128582  1
  O  O383  1  0.75480025  0.62002479  0.75721117  1
  O  O384  1  0.37817011  0.11791010  0.36782906  1
  O  O385  1  0.36931264  0.12148712  0.86971007  1
  O  O386  1  0.37140443  0.62079583  0.37025240  1
  O  O387  1  0.36906912  0.62004386  0.86867655  1
  O  O388  1  0.87674472  0.11792244  0.36764121  1
  O  O389  1  0.86775346  0.11589877  0.87767270  1
  O  O390  1  0.87508223  0.61809109  0.36782697  1
  O  O391  1  0.86526526  0.62361654  0.86876391  1
  O  O392  1  0.12959810  0.38160666  0.12901370  1
  O  O393  1  0.12965410  0.38020008  0.63077059  1
  O  O394  1  0.13117711  0.88219176  0.12694159  1
  O  O395  1  0.12491061  0.88062392  0.63163678  1
  O  O396  1  0.62545112  0.37873014  0.13557644  1
  O  O397  1  0.62524908  0.38164682  0.63278109  1
  O  O398  1  0.63066659  0.88026360  0.13011581  1
  O  O399  1  0.62930540  0.88398803  0.62654288  1
  O  O400  1  0.11719013  0.25832295  0.24707854  1
  O  O401  1  0.12214637  0.25717539  0.75727837  1
  O  O402  1  0.11799954  0.75052745  0.25736542  1
  O  O403  1  0.11931143  0.75379962  0.75501602  1
  O  O404  1  0.61985340  0.25714638  0.25635691  1
  O  O405  1  0.61818919  0.25666119  0.75269376  1
  O  O406  1  0.62644887  0.75729363  0.25944086  1
  O  O407  1  0.61450938  0.75144936  0.75311403  1
  O  O408  1  0.38185763  0.24711116  0.24361311  1
  O  O409  1  0.38254536  0.25010922  0.74264850  1
  O  O410  1  0.37674917  0.74456492  0.23938903  1
  O  O411  1  0.37924982  0.74335635  0.74331393  1
  O  O412  1  0.88018129  0.24542679  0.24474449  1
  O  O413  1  0.88047523  0.24513706  0.74892722  1
  O  O414  1  0.88015532  0.74552733  0.24497126  1
  O  O415  1  0.88253172  0.74224354  0.74782685  1
  O  O416  1  0.38229330  0.49396128  0.49450839  1
  O  O417  1  0.37924917  0.49554009  0.99365251  1
  O  O418  1  0.37756768  0.99180860  0.49408270  1
  O  O419  1  0.38335830  0.99905133  0.99900884  1
  O  O420  1  0.88126913  0.49264656  0.49394606  1
  O  O421  1  0.88413879  0.49789980  0.99763378  1
  O  O422  1  0.88033300  0.99283841  0.49401854  1
  O  O423  1  0.88018027  0.99401728  0.99639577  1
  O  O424  1  0.11839180  0.00558241  0.00596592  1
  O  O425  1  0.11761671  -0.00323770  0.50766775  1
  O  O426  1  0.11936826  0.50758470  0.00553776  1
  O  O427  1  0.12014698  0.50412994  0.50507183  1
  O  O428  1  0.61929039  0.00508274  0.00720279  1
  O  O429  1  0.62272346  0.00062793  0.51380627  1
  O  O430  1  0.61586624  0.50423216  0.00402627  1
  O  O431  1  0.61941816  0.49912886  0.50505089  1
  O  O432  1  0.37052620  0.37113733  0.11944038  1
  O  O433  1  0.37074199  0.37006579  0.61991318  1
  O  O434  1  0.36986781  0.86662138  0.12576827  1
  O  O435  1  0.37429215  0.86649012  0.61748659  1
  O  O436  1  0.87178643  0.36651268  0.12134976  1
  O  O437  1  0.87725966  0.37490679  0.61256191  1
  O  O438  1  0.87008380  0.87018021  0.12004340  1
  O  O439  1  0.86775562  0.87339987  0.61837797  1
  O  O440  1  0.12881382  0.12733759  0.37811089  1
  O  O441  1  0.12416389  0.13198001  0.88303718  1
  O  O442  1  0.13017012  0.62919311  0.38097809  1
  O  O443  1  0.12946727  0.63018924  0.87890404  1
  O  O444  1  0.62364848  0.13742848  0.37497782  1
  O  O445  1  0.63089868  0.12512896  0.88298000  1
  O  O446  1  0.62654517  0.63733742  0.37530326  1
  O  O447  1  0.63769352  0.62608502  0.87604508  1
