# generated using pymatgen
data_V3Zn3O8
_symmetry_space_group_name_H-M   'P 1'
_cell_length_a   17.08844391
_cell_length_b   17.09134436
_cell_length_c   17.08931871
_cell_angle_alpha   89.99324811
_cell_angle_beta   89.98517019
_cell_angle_gamma   90.00910894
_symmetry_Int_Tables_number   1
_chemical_formula_structural   V3Zn3O8
_chemical_formula_sum   'V96 Zn96 O256'
_cell_volume   4991.18270644
_cell_formula_units_Z   32
loop_
 _symmetry_equiv_pos_site_id
 _symmetry_equiv_pos_as_xyz
  1  'x, y, z'
loop_
 _atom_site_type_symbol
 _atom_site_label
 _atom_site_symmetry_multiplicity
 _atom_site_fract_x
 _atom_site_fract_y
 _atom_site_fract_z
 _atom_site_occupancy
  V  V0  1  0.87520336  0.75054111  0.12545432  1
  V  V1  1  0.00328846  0.62294802  0.62410830  1
  V  V2  1  0.50007152  0.24999234  0.25025864  1
  V  V3  1  0.24943319  0.12658650  0.87592345  1
  V  V4  1  0.62459700  0.37394311  0.25035180  1
  V  V5  1  0.50101604  0.49958314  0.00041150  1
  V  V6  1  0.87465385  0.74938218  0.62403700  1
  V  V7  1  0.12513847  0.12572072  -0.00032506  1
  V  V8  1  0.74978135  0.87465060  0.62456389  1
  V  V9  1  0.12501727  0.87567520  0.24883295  1
  V  V10  1  0.87640133  0.37628049  -0.00020239  1
  V  V11  1  0.87555005  0.12514324  0.24973502  1
  V  V12  1  0.87548839  0.87498226  0.49857741  1
  V  V13  1  0.37400648  0.12419878  0.25017305  1
  V  V14  1  0.37478804  0.37452258  0.50029841  1
  V  V15  1  0.74928086  0.74896916  0.49960413  1
  V  V16  1  0.75000449  0.37548676  0.62504256  1
  V  V17  1  0.75038182  0.25043197  -0.00089381  1
  V  V18  1  0.74968829  0.00040793  0.25003500  1
  V  V19  1  0.49989482  0.49992016  0.50097943  1
  V  V20  1  0.37439579  0.00019960  0.37461184  1
  V  V21  1  0.00001922  0.50080817  -0.00037370  1
  V  V22  1  0.00062578  0.37471077  0.37548441  1
  V  V23  1  0.37127435  0.87424321  0.50054754  1
  V  V24  1  -0.00038430  0.12548687  0.12414259  1
  V  V25  1  0.12575477  0.49993742  0.12471320  1
  V  V26  1  0.50025177  0.12431155  0.12486745  1
  V  V27  1  0.12554961  0.74862746  0.37489313  1
  V  V28  1  0.37499537  0.50111673  0.87394245  1
  V  V29  1  0.00045704  0.49983374  0.50108530  1
  V  V30  1  0.24942961  0.24848141  0.50026301  1
  V  V31  1  0.62588165  0.49941825  0.12595368  1
  V  V32  1  0.50087400  0.87592495  0.87559288  1
  V  V33  1  0.75137832  0.49984106  0.25096617  1
  V  V34  1  0.87463996  0.62454177  0.74990779  1
  V  V35  1  0.37435330  0.49941913  0.37538613  1
  V  V36  1  0.62592723  0.37608380  0.74939517  1
  V  V37  1  0.62503278  0.24953368  0.37506555  1
  V  V38  1  0.37481657  0.25043692  0.62401282  1
  V  V39  1  0.62471333  -0.00048232  0.62415912  1
  V  V40  1  0.87431147  0.87585063  -0.00016589  1
  V  V41  1  0.24963712  0.49899902  0.24950883  1
  V  V42  1  0.00009280  0.75062400  0.75079491  1
  V  V43  1  0.37498141  0.74892336  0.62655687  1
  V  V44  1  0.50070289  0.74933139  0.25109883  1
  V  V45  1  0.50067454  0.00059304  0.00069534  1
  V  V46  1  0.37522086  0.74988924  0.12558561  1
  V  V47  1  0.74950523  0.25006341  0.50038059  1
  V  V48  1  0.74941798  0.00033462  0.74959168  1
  V  V49  1  0.87578328  0.25000914  0.12557577  1
  V  V50  1  0.62397548  0.75131890  0.37461529  1
  V  V51  1  0.62464078  0.62420945  0.50131886  1
  V  V52  1  0.62433828  0.75099077  0.87505175  1
  V  V53  1  0.87398204  0.37432416  0.50031923  1
  V  V54  1  0.87525064  -0.00027630  0.37463402  1
  V  V55  1  0.37670346  -0.00041750  0.87605207  1
  V  V56  1  0.00238868  0.25127247  0.75154957  1
  V  V57  1  0.74941068  0.12602220  0.87451918  1
  V  V58  1  0.12615704  0.62682656  -0.00033929  1
  V  V59  1  0.62601822  0.25037488  0.87505812  1
  V  V60  1  0.25093925  0.75087572  0.00041380  1
  V  V61  1  -0.00091945  0.00056846  -0.00084650  1
  V  V62  1  0.37567631  0.12518592  0.75038228  1
  V  V63  1  0.87374705  -0.00016721  0.87460206  1
  V  V64  1  0.37528628  0.37437209  0.00061528  1
  V  V65  1  0.87621135  0.50022980  0.87610010  1
  V  V66  1  0.25053225  0.37541024  0.12443653  1
  V  V67  1  0.00004898  0.87385004  0.87357075  1
  V  V68  1  0.74971648  0.75076093  0.00081224  1
  V  V69  1  0.25246572  0.62469965  0.87266226  1
  V  V70  1  0.25021254  0.87472548  0.12440625  1
  V  V71  1  0.62458133  0.00048428  0.12615638  1
  V  V72  1  0.50029179  0.37556354  0.87485169  1
  V  V73  1  0.50051428  0.25046733  0.74987759  1
  V  V74  1  0.00146248  0.12171161  0.62358947  1
  V  V75  1  -0.00066017  0.87462658  0.37452580  1
  V  V76  1  0.87472254  0.50006400  0.37398056  1
  V  V77  1  -0.00008612  0.62611245  0.12498261  1
  V  V78  1  0.25037157  -0.00032743  0.24911578  1
  V  V79  1  0.62575413  0.62510384  0.00076680  1
  V  V80  1  0.62409260  0.87444408  0.75016751  1
  V  V81  1  0.12441347  0.24972000  0.37476880  1
  V  V82  1  0.50066341  0.12503339  0.62514438  1
  V  V83  1  0.74878948  0.87606804  0.12596158  1
  V  V84  1  0.62592734  0.12502897  0.49941434  1
  V  V85  1  0.50071754  0.62452274  0.12580651  1
  V  V86  1  0.37441638  0.25018725  0.12512605  1
  V  V87  1  0.49882555  -0.00016473  0.49946505  1
  V  V88  1  0.75077226  0.37462358  0.12492392  1
  V  V89  1  -0.00091666  0.75018382  0.24870496  1
  V  V90  1  0.24873644  0.62563159  0.37543355  1
  V  V91  1  0.74978696  0.49952347  0.74972838  1
  V  V92  1  0.87505050  0.12506166  0.74929964  1
  V  V93  1  0.37522385  0.62402339  0.25035758  1
  V  V94  1  0.75002751  0.62542995  0.87541120  1
  V  V95  1  0.24696589  -0.00186461  0.74759443  1
  Zn  Zn96  1  0.12712570  0.37972784  0.75248007  1
  Zn  Zn97  1  0.00287788  -0.00078946  0.49940106  1
  Zn  Zn98  1  0.12871265  0.49547800  0.62554664  1
  Zn  Zn99  1  0.24948089  0.25081422  0.00042701  1
  Zn  Zn100  1  0.62373311  0.50114322  0.62621852  1
  Zn  Zn101  1  0.37540498  0.87536159  0.00058127  1
  Zn  Zn102  1  0.12720272  0.75246103  0.87336841  1
  Zn  Zn103  1  0.24586357  0.87224599  0.62676684  1
  Zn  Zn104  1  0.12573090  -0.00415637  0.61963846  1
  Zn  Zn105  1  0.12312501  0.87449434  0.74789624  1
  Zn  Zn106  1  0.12637997  0.62353357  0.49940631  1
  Zn  Zn107  1  0.62309758  0.87601454  0.25124646  1
  Zn  Zn108  1  0.49956229  0.62604331  0.62863138  1
  Zn  Zn109  1  0.12384634  0.37435865  0.24851799  1
  Zn  Zn110  1  0.75119417  0.12450407  0.37556989  1
  Zn  Zn111  1  0.49863320  0.87499851  0.37384016  1
  Zn  Zn112  1  0.62539160  0.12608028  0.00037794  1
  Zn  Zn113  1  0.49954875  0.37428943  0.37468041  1
  Zn  Zn114  1  0.87421562  0.62514565  0.25102916  1
  Zn  Zn115  1  0.75243477  0.62460996  0.37358029  1
  Zn  Zn116  1  0.00104260  0.25081170  0.25000585  1
  Zn  Zn117  1  0.37810051  0.62411947  0.74809692  1
  Zn  Zn118  1  0.49926850  0.74860609  0.75029268  1
  Zn  Zn119  1  0.12551622  0.25426103  0.87471157  1
  Zn  Zn120  1  0.00296415  0.37523142  0.87466988  1
  Zn  Zn121  1  0.24615237  0.37541302  0.62908826  1
  Zn  Zn122  1  0.24694643  0.74819725  0.50223561  1
  Zn  Zn123  1  0.24744393  0.12398811  0.37390016  1
  Zn  Zn124  1  0.87524113  0.24919716  0.62450936  1
  Zn  Zn125  1  0.25019973  0.49755835  0.74570081  1
  Zn  Zn126  1  0.12433930  0.12181600  0.49912295  1
  Zn  Zn127  1  0.12492167  0.00009716  0.12529598  1
  Zn  Zn128  1  0.18763533  0.18802290  0.18747766  1
  Zn  Zn129  1  0.18485750  0.18671236  0.68611842  1
  Zn  Zn130  1  0.18756441  0.68759972  0.18812658  1
  Zn  Zn131  1  0.18773576  0.68938439  0.68946329  1
  Zn  Zn132  1  0.68821463  0.18624602  0.18796244  1
  Zn  Zn133  1  0.68780852  0.18884755  0.68645034  1
  Zn  Zn134  1  0.68881547  0.68641066  0.18903790  1
  Zn  Zn135  1  0.68670168  0.68797304  0.68789047  1
  Zn  Zn136  1  0.31164208  0.31343851  0.31307897  1
  Zn  Zn137  1  0.31281300  0.31392467  0.81154739  1
  Zn  Zn138  1  0.31174339  0.81267171  0.31285924  1
  Zn  Zn139  1  0.31436692  0.81302428  0.81292346  1
  Zn  Zn140  1  0.81277132  0.31184780  0.31338798  1
  Zn  Zn141  1  0.81595666  0.31248304  0.81201954  1
  Zn  Zn142  1  0.81108800  0.81310926  0.31158253  1
  Zn  Zn143  1  0.81279962  0.81243088  0.81176888  1
  Zn  Zn144  1  0.18631315  0.43673529  0.44055519  1
  Zn  Zn145  1  0.18665624  0.43747991  0.93598984  1
  Zn  Zn146  1  0.18638586  0.93803606  0.43604121  1
  Zn  Zn147  1  0.18605014  0.93762536  0.93617734  1
  Zn  Zn148  1  0.68768946  0.43629079  0.43599189  1
  Zn  Zn149  1  0.68875202  0.43733985  0.93698160  1
  Zn  Zn150  1  0.68886081  0.93734857  0.43708643  1
  Zn  Zn151  1  0.68579375  0.93902091  0.93878700  1
  Zn  Zn152  1  0.31320123  0.06081617  0.06313372  1
  Zn  Zn153  1  0.31251721  0.06368734  0.56254474  1
  Zn  Zn154  1  0.31273894  0.56246447  0.06118637  1
  Zn  Zn155  1  0.31081430  0.56338518  0.56248246  1
  Zn  Zn156  1  0.81153900  0.06373053  0.06229948  1
  Zn  Zn157  1  0.81452647  0.06254731  0.56170321  1
  Zn  Zn158  1  0.81346478  0.56322866  0.06418077  1
  Zn  Zn159  1  0.81271234  0.56106131  0.56199254  1
  Zn  Zn160  1  0.43752297  0.43658954  0.18816587  1
  Zn  Zn161  1  0.43415145  0.43791802  0.68669040  1
  Zn  Zn162  1  0.43776588  0.93540009  0.18826591  1
  Zn  Zn163  1  0.43592300  0.93603644  0.68785220  1
  Zn  Zn164  1  0.93934244  0.43712192  0.18885790  1
  Zn  Zn165  1  0.93721974  0.43588810  0.68753484  1
  Zn  Zn166  1  0.93763354  0.93880414  0.18727783  1
  Zn  Zn167  1  0.93702277  0.93721540  0.68687926  1
  Zn  Zn168  1  0.06195013  0.06287292  0.31195336  1
  Zn  Zn169  1  0.06278196  0.06301834  0.81181405  1
  Zn  Zn170  1  0.06189758  0.56197629  0.31149272  1
  Zn  Zn171  1  0.06632473  0.56230280  0.81210666  1
  Zn  Zn172  1  0.56173926  0.06278393  0.31326836  1
  Zn  Zn173  1  0.56370130  0.06278628  0.81274491  1
  Zn  Zn174  1  0.56334181  0.56243867  0.31467331  1
  Zn  Zn175  1  0.56156903  0.56405373  0.81152369  1
  Zn  Zn176  1  0.43743365  0.18650594  0.43581283  1
  Zn  Zn177  1  0.43788814  0.18744675  0.93861293  1
  Zn  Zn178  1  0.43653524  0.68715808  0.43892854  1
  Zn  Zn179  1  0.43779278  0.68889978  0.93881676  1
  Zn  Zn180  1  0.93697799  0.18716958  0.43799607  1
  Zn  Zn181  1  0.93693821  0.18817007  0.93617506  1
  Zn  Zn182  1  0.93792454  0.68664557  0.43644035  1
  Zn  Zn183  1  0.93775197  0.68828426  0.93783678  1
  Zn  Zn184  1  0.06265232  0.31278566  0.06167670  1
  Zn  Zn185  1  0.06303150  0.31179630  0.56556959  1
  Zn  Zn186  1  0.06379799  0.81307019  0.06108568  1
  Zn  Zn187  1  0.06434160  0.81263277  0.56211826  1
  Zn  Zn188  1  0.56263488  0.31147997  0.06267157  1
  Zn  Zn189  1  0.56320742  0.31388768  0.56272279  1
  Zn  Zn190  1  0.56234505  0.81411197  0.06304274  1
  Zn  Zn191  1  0.55877446  0.81328988  0.56207954  1
  O  O192  1  0.11974485  0.12389037  0.11525773  1
  O  O193  1  0.11278672  0.12127332  0.62328635  1
  O  O194  1  0.12002952  0.62011691  0.11943164  1
  O  O195  1  0.11025877  0.62734890  0.62417050  1
  O  O196  1  0.61797832  0.11907427  0.12386816  1
  O  O197  1  0.61981008  0.11894409  0.62008616  1
  O  O198  1  0.62039640  0.61922740  0.11992401  1
  O  O199  1  0.62341532  0.62460292  0.61201337  1
  O  O200  1  0.37709020  0.38182219  0.38171572  1
  O  O201  1  0.38219969  0.38000382  0.88130088  1
  O  O202  1  0.37589029  0.88047484  0.38399345  1
  O  O203  1  0.38302854  0.88240199  0.87736539  1
  O  O204  1  0.88047371  0.37995951  0.38083566  1
  O  O205  1  0.87586305  0.38319090  0.88276252  1
  O  O206  1  0.87980395  0.87903135  0.37913439  1
  O  O207  1  0.87827424  0.88074724  0.88082772  1
  O  O208  1  0.25692830  0.00151527  0.36674603  1
  O  O209  1  0.25569511  0.00937296  0.86899866  1
  O  O210  1  0.25513760  0.50461054  0.36959458  1
  O  O211  1  0.25818919  0.51180194  0.87963423  1
  O  O212  1  0.75687444  0.00045804  0.36834315  1
  O  O213  1  0.75398732  0.00536665  0.86928424  1
  O  O214  1  0.75650270  0.49942215  0.36832465  1
  O  O215  1  0.75555516  0.50651563  0.87026161  1
  O  O216  1  0.24577894  0.49562517  0.12966000  1
  O  O217  1  0.24875024  0.49620888  0.62602506  1
  O  O218  1  0.24940305  0.99261004  0.13133862  1
  O  O219  1  0.25143698  1.00158857  0.63794239  1
  O  O220  1  0.74477277  0.49392053  0.12950479  1
  O  O221  1  0.74811920  0.49400219  0.63228227  1
  O  O222  1  0.74514656  0.99542912  0.12960700  1
  O  O223  1  0.74440097  0.99420737  0.62988097  1
  O  O224  1  0.00325169  0.37176236  0.25899644  1
  O  O225  1  -0.00274746  0.36189690  0.75169191  1
  O  O226  1  0.00482210  0.86960552  0.25413039  1
  O  O227  1  -0.00351210  0.86808503  0.75675402  1
  O  O228  1  0.50678758  0.36804053  0.25035566  1
  O  O229  1  0.50530965  0.36983817  0.75543310  1
  O  O230  1  0.50292559  0.86521788  0.25326962  1
  O  O231  1  0.50779129  0.87548195  0.75744195  1
  O  O232  1  0.49377031  0.13036973  0.24393149  1
  O  O233  1  0.49576601  0.13043148  0.74509662  1
  O  O234  1  0.49517476  0.62852834  0.24472244  1
  O  O235  1  0.49758999  0.63019472  0.74652858  1
  O  O236  1  0.99318010  0.12671943  0.24175246  1
  O  O237  1  0.99402384  0.12997208  0.74404477  1
  O  O238  1  0.99844289  0.63225445  0.24190410  1
  O  O239  1  0.99280463  0.62987209  0.74279998  1
  O  O240  1  0.37498784  0.25657708  0.00728890  1
  O  O241  1  0.36893777  0.25371373  0.50332432  1
  O  O242  1  0.36935987  0.75121366  0.00897709  1
  O  O243  1  0.37442380  0.75930563  0.50658481  1
  O  O244  1  0.86949473  0.25583445  0.00512056  1
  O  O245  1  0.86724733  0.25702063  0.50044506  1
  O  O246  1  0.86863414  0.75626120  0.00532563  1
  O  O247  1  0.86858813  0.75481879  0.50420784  1
  O  O248  1  0.13372262  0.24852802  0.49191187  1
  O  O249  1  0.12685311  0.23646899  0.99768146  1
  O  O250  1  0.12627929  0.74673455  0.48948289  1
  O  O251  1  0.13268059  0.74375475  0.99861112  1
  O  O252  1  0.62923594  0.24466872  0.49535060  1
  O  O253  1  0.63221797  0.25029052  0.99283592  1
  O  O254  1  0.62793117  0.74316552  0.49375272  1
  O  O255  1  0.63080046  0.74449581  0.99572576  1
  O  O256  1  0.49475182  0.24462859  0.13062270  1
  O  O257  1  0.49594871  0.24422825  0.63043031  1
  O  O258  1  0.49631127  0.74318432  0.13034161  1
  O  O259  1  0.48863054  0.74981380  0.62616775  1
  O  O260  1  0.99327059  0.24346706  0.12500217  1
  O  O261  1  0.99692424  0.23889691  0.63385914  1
  O  O262  1  0.99454344  0.74638790  0.12890875  1
  O  O263  1  0.99257572  0.74179170  0.62941416  1
  O  O264  1  0.00927942  0.25598449  0.37642507  1
  O  O265  1  0.00027295  0.24953507  0.86424458  1
  O  O266  1  0.00450671  0.75511568  0.36793752  1
  O  O267  1  -0.00154193  0.75625812  0.86860190  1
  O  O268  1  0.50662870  0.25072585  0.36770179  1
  O  O269  1  0.50518218  0.25567361  0.86940964  1
  O  O270  1  0.50869331  0.74895281  0.36993879  1
  O  O271  1  0.50773262  0.75751645  0.87643699  1
  O  O272  1  0.25073636  0.13774306  0.49685904  1
  O  O273  1  0.24245156  0.12339765  0.99233358  1
  O  O274  1  0.24764905  0.62718979  0.48882787  1
  O  O275  1  0.24606143  0.63105817  0.99398762  1
  O  O276  1  0.74317887  0.13104699  0.50008670  1
  O  O277  1  0.74930451  0.13262933  0.99243606  1
  O  O278  1  0.74043743  0.63014865  0.49893107  1
  O  O279  1  0.74493802  0.63065233  0.99570457  1
  O  O280  1  0.25807669  0.37374423  0.00602844  1
  O  O281  1  0.25678341  0.36223002  0.50021295  1
  O  O282  1  0.25129957  0.86953719  0.00564391  1
  O  O283  1  0.26264671  0.87471646  0.50113545  1
  O  O284  1  0.75603443  0.37042062  0.00560140  1
  O  O285  1  0.75385979  0.37011005  0.50550765  1
  O  O286  1  0.75499068  0.87030260  0.00514193  1
  O  O287  1  0.75477236  0.86847927  0.50612004  1
  O  O288  1  0.13207141  0.49865438  0.24226077  1
  O  O289  1  0.12982078  0.49962055  0.74533621  1
  O  O290  1  0.13155720  0.99338292  0.24848296  1
  O  O291  1  0.13731878  1.00028308  0.74993687  1
  O  O292  1  0.62968751  0.49440333  0.24497538  1
  O  O293  1  0.63184330  0.49379359  0.74976218  1
  O  O294  1  0.63092521  0.99919348  0.24438097  1
  O  O295  1  0.63044963  0.99483573  0.74358571  1
  O  O296  1  0.37049121  0.00444171  0.25482773  1
  O  O297  1  0.36843441  0.00670343  0.75594021  1
  O  O298  1  0.37048960  0.50505755  0.25507855  1
  O  O299  1  0.37418195  0.50295909  0.76031409  1
  O  O300  1  0.86923763  0.00502368  0.25459665  1
  O  O301  1  0.86757632  0.00434387  0.75574609  1
  O  O302  1  0.86873287  0.49959174  0.25588225  1
  O  O303  1  0.86926111  0.50567649  0.75633478  1
  O  O304  1  0.11937800  0.36512992  0.37524338  1
  O  O305  1  0.12046212  0.37067127  0.87315329  1
  O  O306  1  0.11928799  0.86837453  0.36765508  1
  O  O307  1  0.11487574  0.87349133  0.87215943  1
  O  O308  1  0.62286407  0.36777409  0.36764011  1
  O  O309  1  0.62012790  0.37013864  0.86945793  1
  O  O310  1  0.62240083  0.86194698  0.37625188  1
  O  O311  1  0.62130663  0.87055540  0.86988856  1
  O  O312  1  0.38060903  0.13015925  0.13056712  1
  O  O313  1  0.38240902  0.13053618  0.63069124  1
  O  O314  1  0.38155852  0.62908311  0.13073117  1
  O  O315  1  0.37686432  0.63738541  0.62374522  1
  O  O316  1  0.88006370  0.13069389  0.12888380  1
  O  O317  1  0.88273544  0.12504132  0.63209422  1
  O  O318  1  0.88198228  0.63316438  0.12512452  1
  O  O319  1  0.88138848  0.63010276  0.63019843  1
  O  O320  1  0.25730019  0.25664115  0.12351406  1
  O  O321  1  0.25694492  0.24712795  0.61542997  1
  O  O322  1  0.25615711  0.75442158  0.12089763  1
  O  O323  1  0.26037995  0.75141515  0.62286828  1
  O  O324  1  0.75536704  0.25562002  0.11920594  1
  O  O325  1  0.75114406  0.25726772  0.61863727  1
  O  O326  1  0.75437695  0.75551637  0.11969191  1
  O  O327  1  0.75484483  0.75516749  0.61966023  1
  O  O328  1  0.24203059  0.24954837  0.38285228  1
  O  O329  1  0.25154213  0.23501288  0.87694515  1
  O  O330  1  0.24309957  0.74275787  0.37361955  1
  O  O331  1  0.25205585  0.74138183  0.88206246  1
  O  O332  1  0.74268056  0.24842697  0.38216967  1
  O  O333  1  0.74572957  0.24579813  0.87923813  1
  O  O334  1  0.74056013  0.74874148  0.38090853  1
  O  O335  1  0.74504513  0.74511331  0.88128579  1
  O  O336  1  0.00640577  0.12004748  0.00288196  1
  O  O337  1  -0.00160937  0.12355163  0.51226784  1
  O  O338  1  0.00544415  0.62111878  0.00574917  1
  O  O339  1  -0.00201318  0.61937347  0.51030505  1
  O  O340  1  0.50201057  0.11908518  0.00695080  1
  O  O341  1  0.50540642  0.11987966  0.50629431  1
  O  O342  1  0.50668466  0.61928928  0.00623318  1
  O  O343  1  0.50832647  0.61617698  0.50008314  1
  O  O344  1  0.49560118  0.38431549  0.49796375  1
  O  O345  1  0.49609446  0.38045198  0.99490998  1
  O  O346  1  0.48828482  0.88212411  0.49881849  1
  O  O347  1  0.49955774  0.88281284  0.99373558  1
  O  O348  1  0.99302228  0.37976463  0.49527987  1
  O  O349  1  0.99299294  0.38310041  1.00008826  1
  O  O350  1  0.99185629  0.87400550  0.49214859  1
  O  O351  1  0.99319186  0.88046037  0.99460393  1
  O  O352  1  0.49388159  0.49944150  0.38478442  1
  O  O353  1  0.49644338  0.49457741  0.88200090  1
  O  O354  1  0.49307503  0.99860909  0.38201364  1
  O  O355  1  0.49646620  0.99634038  0.88016301  1
  O  O356  1  0.99453311  0.49443414  0.38030396  1
  O  O357  1  0.99244953  0.50259040  0.88271897  1
  O  O358  1  0.99244149  0.99181392  0.37404855  1
  O  O359  1  0.99246335  0.99541289  0.87944216  1
  O  O360  1  0.00044980  0.00704851  0.11641175  1
  O  O361  1  -0.00007406  0.01018956  0.62519113  1
  O  O362  1  0.00534505  0.50619117  0.11931769  1
  O  O363  1  -0.00441765  0.51103878  0.61988259  1
  O  O364  1  0.50439246  0.00505302  0.12105770  1
  O  O365  1  0.50514069  0.00563289  0.62018721  1
  O  O366  1  0.50620618  0.50495059  0.12035967  1
  O  O367  1  0.50104918  0.50176483  0.61160053  1
  O  O368  1  0.24961321  0.38250802  0.24240057  1
  O  O369  1  0.24786996  0.37675745  0.74793290  1
  O  O370  1  0.24469856  0.87964914  0.24391914  1
  O  O371  1  0.25016588  0.88829563  0.75216382  1
  O  O372  1  0.74425621  0.37946464  0.24339129  1
  O  O373  1  0.74574902  0.38006774  0.74592092  1
  O  O374  1  0.74767156  0.88211861  0.24275564  1
  O  O375  1  0.74481419  0.88078511  0.74415028  1
  O  O376  1  0.25715881  0.11795325  0.24954755  1
  O  O377  1  0.25525864  0.11876080  0.75808174  1
  O  O378  1  0.25677581  0.61856831  0.25431125  1
  O  O379  1  0.25349534  0.62613789  0.76464154  1
  O  O380  1  0.75775193  0.11803945  0.25084988  1
  O  O381  1  0.75420980  0.11967532  0.75440211  1
  O  O382  1  0.75271343  0.61548341  0.25182683  1
  O  O383  1  0.75473221  0.62017135  0.75552917  1
  O  O384  1  0.37348932  0.11814663  0.36741030  1
  O  O385  1  0.36837272  0.12008914  0.87047652  1
  O  O386  1  0.36953854  0.61949826  0.36914815  1
  O  O387  1  0.36733950  0.61962305  0.87804716  1
  O  O388  1  0.87431980  0.11812032  0.36816918  1
  O  O389  1  0.86839684  0.11851538  0.86962506  1
  O  O390  1  0.87292065  0.61627660  0.37262192  1
  O  O391  1  0.86843686  0.62065722  0.87039974  1
  O  O392  1  0.13223615  0.38191783  0.12405127  1
  O  O393  1  0.12672557  0.37626355  0.63117054  1
  O  O394  1  0.13148086  0.87666039  0.13115011  1
  O  O395  1  0.12853151  0.87821997  0.62963753  1
  O  O396  1  0.63092180  0.38009566  0.12991752  1
  O  O397  1  0.63135033  0.37724272  0.63228954  1
  O  O398  1  0.63186748  0.88193628  0.12673477  1
  O  O399  1  0.63012049  0.88006760  0.62897360  1
  O  O400  1  0.12472158  0.25255869  0.26160244  1
  O  O401  1  0.11179131  0.24602357  0.75318187  1
  O  O402  1  0.11869292  0.75600706  0.25413952  1
  O  O403  1  0.11490023  0.75209037  0.75369143  1
  O  O404  1  0.62024148  0.25452365  0.25433632  1
  O  O405  1  0.61982368  0.25603100  0.75543873  1
  O  O406  1  0.62001933  0.74848972  0.25993172  1
  O  O407  1  0.62584964  0.75756213  0.75739798  1
  O  O408  1  0.38007578  0.24493451  0.24480924  1
  O  O409  1  0.38212188  0.24393694  0.74495103  1
  O  O410  1  0.38058703  0.74280320  0.24534602  1
  O  O411  1  0.37707472  0.75077331  0.73867713  1
  O  O412  1  0.87558061  0.24365514  0.24298439  1
  O  O413  1  0.88322490  0.24211582  0.74875834  1
  O  O414  1  0.88098143  0.75001808  0.24271703  1
  O  O415  1  0.87819850  0.74363710  0.74358848  1
  O  O416  1  0.38308734  0.49544507  0.49430763  1
  O  O417  1  0.38284319  0.49420983  0.99572939  1
  O  O418  1  0.37912670  0.99372368  0.49583203  1
  O  O419  1  0.38275167  0.99933951  0.99354645  1
  O  O420  1  0.87934450  0.49352970  0.49363618  1
  O  O421  1  0.87984981  0.49606559  0.99593421  1
  O  O422  1  0.87538277  0.99160637  0.49270544  1
  O  O423  1  0.87872742  0.99508894  0.99391094  1
  O  O424  1  0.11851914  0.01082493  0.00044542  1
  O  O425  1  0.12140170  0.00437026  0.50086655  1
  O  O426  1  0.11966585  0.50737502  0.00609902  1
  O  O427  1  0.11465381  0.50338196  0.50260045  1
  O  O428  1  0.61894238  0.00328666  0.00764399  1
  O  O429  1  0.61995322  0.00414023  0.50534090  1
  O  O430  1  0.62109665  0.50494248  0.00602470  1
  O  O431  1  0.61732246  0.50802151  0.49822260  1
  O  O432  1  0.37072496  0.37026253  0.11985387  1
  O  O433  1  0.37540209  0.36588900  0.61696018  1
  O  O434  1  0.36844859  0.86708117  0.12425406  1
  O  O435  1  0.37296256  0.86827925  0.61629402  1
  O  O436  1  0.86966278  0.37035728  0.11944391  1
  O  O437  1  0.86727982  0.37353186  0.61770032  1
  O  O438  1  0.86910586  0.87048951  0.11864526  1
  O  O439  1  0.86876417  0.86897618  0.61935834  1
  O  O440  1  0.12542718  0.13711294  0.37625179  1
  O  O441  1  0.13400989  0.12437649  0.88376199  1
  O  O442  1  0.13103635  0.63156916  0.37294553  1
  O  O443  1  0.13618584  0.62717017  0.88264431  1
  O  O444  1  0.62664403  0.13113679  0.38233750  1
  O  O445  1  0.63181779  0.13280278  0.87527269  1
  O  O446  1  0.62629073  0.63401720  0.38512868  1
  O  O447  1  0.63114908  0.63040138  0.88186396  1
