# generated using pymatgen
data_V3Zn3O8
_symmetry_space_group_name_H-M   'P 1'
_cell_length_a   17.08933472
_cell_length_b   17.08905505
_cell_length_c   17.08859391
_cell_angle_alpha   90.00939088
_cell_angle_beta   89.98678560
_cell_angle_gamma   89.99734981
_symmetry_Int_Tables_number   1
_chemical_formula_structural   V3Zn3O8
_chemical_formula_sum   'V96 Zn96 O256'
_cell_volume   4990.56270239
_cell_formula_units_Z   32
loop_
 _symmetry_equiv_pos_site_id
 _symmetry_equiv_pos_as_xyz
  1  'x, y, z'
loop_
 _atom_site_type_symbol
 _atom_site_label
 _atom_site_symmetry_multiplicity
 _atom_site_fract_x
 _atom_site_fract_y
 _atom_site_fract_z
 _atom_site_occupancy
  V  V0  1  0.37413407  0.75164979  0.12611738  1
  V  V1  1  0.24975595  0.62500736  0.37571986  1
  V  V2  1  0.00058762  0.12586428  0.62474363  1
  V  V3  1  0.37583503  0.50025020  0.87486521  1
  V  V4  1  0.62486183  0.74971649  0.37491290  1
  V  V5  1  -0.00015249  0.62557876  0.62580901  1
  V  V6  1  0.37441817  0.12463830  0.25032281  1
  V  V7  1  0.37355183  0.00133101  0.37524428  1
  V  V8  1  0.62564167  0.87293381  0.75102016  1
  V  V9  1  0.25044318  0.12568147  0.87541014  1
  V  V10  1  0.00048109  0.49970959  -0.00016826  1
  V  V11  1  0.74899620  0.50031369  0.24964218  1
  V  V12  1  0.37605868  0.12527298  0.74854504  1
  V  V13  1  0.87444397  0.25095891  0.62469730  1
  V  V14  1  0.87433423  0.62655968  0.24871532  1
  V  V15  1  0.87481991  0.50118917  0.37452878  1
  V  V16  1  0.24922253  0.50052101  0.24971122  1
  V  V17  1  0.37631971  0.62363205  0.75123391  1
  V  V18  1  0.87526417  0.49902177  0.87491027  1
  V  V19  1  0.37551059  0.74924250  0.62522517  1
  V  V20  1  0.12499843  0.37525138  0.74959826  1
  V  V21  1  0.87667322  0.87622922  0.49962503  1
  V  V22  1  0.37554725  0.87425529  0.50091452  1
  V  V23  1  0.12546515  0.62487381  -0.00068304  1
  V  V24  1  0.49883437  0.75078482  0.24998874  1
  V  V25  1  0.00043836  0.37431231  0.87566150  1
  V  V26  1  0.00162415  0.75014014  0.75028725  1
  V  V27  1  0.49955804  0.25003462  0.25069670  1
  V  V28  1  0.50100593  0.50044330  0.00068509  1
  V  V29  1  0.62374571  0.37391375  0.25006966  1
  V  V30  1  -0.00080166  -0.00041049  0.00000977  1
  V  V31  1  0.62524772  0.62472474  0.00049862  1
  V  V32  1  0.12420239  0.25064606  0.37432456  1
  V  V33  1  0.37475101  0.25035030  0.12403643  1
  V  V34  1  0.25120279  0.74921535  0.50173458  1
  V  V35  1  0.87415924  0.74999854  0.12393006  1
  V  V36  1  0.24858140  0.25040153  0.49915824  1
  V  V37  1  0.12535029  0.50039780  0.12540864  1
  V  V38  1  0.12500779  0.62513666  0.50092881  1
  V  V39  1  0.75177711  0.87422011  0.62634797  1
  V  V40  1  0.87402206  0.12516450  0.24994361  1
  V  V41  1  0.75048446  0.37432646  0.12484449  1
  V  V42  1  0.12431708  0.00027892  0.12621314  1
  V  V43  1  0.50048473  0.12449604  0.12404807  1
  V  V44  1  0.49952927  0.87433495  0.87520584  1
  V  V45  1  -0.00015281  0.24995727  0.74990511  1
  V  V46  1  0.87652443  0.75093187  0.62576369  1
  V  V47  1  0.37579421  0.37487104  -0.00036023  1
  V  V48  1  0.12486523  0.37609507  0.25005322  1
  V  V49  1  0.12603550  0.74914353  0.87501146  1
  V  V50  1  0.50136812  0.37493391  0.87422711  1
  V  V51  1  0.37445160  0.49972089  0.37505708  1
  V  V52  1  -0.00121877  0.12482948  0.12529178  1
  V  V53  1  0.12594857  -0.00082931  0.62500114  1
  V  V54  1  0.25008494  -0.00055299  0.74986325  1
  V  V55  1  0.12429723  0.12613308  0.49869966  1
  V  V56  1  0.37546540  -0.00028269  0.87450573  1
  V  V57  1  0.12577798  0.24979660  0.87602623  1
  V  V58  1  0.24847361  0.87577428  0.12654220  1
  V  V59  1  0.37460833  0.62640827  0.24973865  1
  V  V60  1  0.62535633  0.87650463  0.24966277  1
  V  V61  1  0.74816537  -0.00046756  0.24921632  1
  V  V62  1  0.62363604  0.12359288  -0.00024474  1
  V  V63  1  0.25130860  0.25030162  -0.00056941  1
  V  V64  1  0.75038709  0.62413151  0.87534982  1
  V  V65  1  0.62335470  0.00051325  0.62253756  1
  V  V66  1  0.87509902  0.25000588  0.12603619  1
  V  V67  1  -0.00040040  0.37661951  0.37429929  1
  V  V68  1  0.74837225  0.12572806  0.37546673  1
  V  V69  1  0.75122643  0.49943811  0.74820783  1
  V  V70  1  0.37517389  0.87571876  0.00024359  1
  V  V71  1  0.75003850  0.74968534  -0.00099498  1
  V  V72  1  0.50149782  0.62311898  0.62462628  1
  V  V73  1  0.24872410  0.37499237  0.62486514  1
  V  V74  1  0.49865413  0.37455056  0.37435651  1
  V  V75  1  0.74867664  0.25000235  0.49907128  1
  V  V76  1  0.12228239  0.75268697  0.37416545  1
  V  V77  1  0.62495119  0.62459678  0.49889032  1
  V  V78  1  0.62428411  0.49962785  0.12439996  1
  V  V79  1  0.62604545  0.37469555  0.74831000  1
  V  V80  1  0.87503240  0.37411489  0.00143054  1
  V  V81  1  0.74878531  0.62552754  0.37449434  1
  V  V82  1  0.00191421  0.87504700  0.87492005  1
  V  V83  1  0.75160273  -0.00046578  0.75063599  1
  V  V84  1  0.49935315  0.87528371  0.37646388  1
  V  V85  1  0.87487483  0.00000260  0.37592237  1
  V  V86  1  0.50135947  0.74861588  0.75109175  1
  V  V87  1  0.12459795  0.49936253  0.62535545  1
  V  V88  1  0.37586307  0.24974197  0.62453485  1
  V  V89  1  0.87459739  0.87455992  -0.00073919  1
  V  V90  1  0.62505338  0.24937455  0.87335204  1
  V  V91  1  0.50003268  0.49954347  0.49888336  1
  V  V92  1  0.75187198  0.12392838  0.87444351  1
  V  V93  1  -0.00130381  0.50042990  0.49928734  1
  V  V94  1  -0.00082182  0.62608752  0.12488002  1
  V  V95  1  0.25111184  0.62443047  0.87565195  1
  Zn  Zn96  1  0.12065568  0.87482148  0.25068055  1
  Zn  Zn97  1  0.24984013  0.74934109  0.00062860  1
  Zn  Zn98  1  0.87306628  0.37718156  0.49821232  1
  Zn  Zn99  1  0.24749550  0.00196515  0.25102084  1
  Zn  Zn100  1  -0.00198591  0.75252177  0.24998047  1
  Zn  Zn101  1  0.62424889  -0.00122304  0.12476509  1
  Zn  Zn102  1  0.62204124  0.24828414  0.37717152  1
  Zn  Zn103  1  0.00109339  0.00134663  0.49774383  1
  Zn  Zn104  1  0.75029909  0.74875838  0.50100529  1
  Zn  Zn105  1  0.75062203  0.24962514  0.00017361  1
  Zn  Zn106  1  0.37459068  0.37509025  0.49985404  1
  Zn  Zn107  1  0.74797093  0.87618389  0.12306809  1
  Zn  Zn108  1  0.24994496  0.37528972  0.12461561  1
  Zn  Zn109  1  0.87693899  0.12376253  0.75120572  1
  Zn  Zn110  1  0.49983613  -0.00106510  0.00069878  1
  Zn  Zn111  1  0.50174982  0.12598413  0.62388119  1
  Zn  Zn112  1  -0.00037649  0.87698021  0.37223697  1
  Zn  Zn113  1  0.62204979  0.12500905  0.49982979  1
  Zn  Zn114  1  0.24767403  0.12552212  0.37270809  1
  Zn  Zn115  1  0.25077704  0.87331744  0.62741816  1
  Zn  Zn116  1  0.62684519  0.49927800  0.62216285  1
  Zn  Zn117  1  0.49871639  0.00241605  0.50217647  1
  Zn  Zn118  1  0.87535106  0.62525962  0.74964293  1
  Zn  Zn119  1  0.87798022  0.00029138  0.87386243  1
  Zn  Zn120  1  0.62537143  0.74952676  0.87626412  1
  Zn  Zn121  1  0.00026624  0.25041742  0.25040668  1
  Zn  Zn122  1  0.49897660  0.62580851  0.12481932  1
  Zn  Zn123  1  0.12772926  0.87419174  0.75052581  1
  Zn  Zn124  1  0.25039459  0.49940211  0.75001096  1
  Zn  Zn125  1  0.50038502  0.24862249  0.74841154  1
  Zn  Zn126  1  0.74981526  0.37592492  0.62160350  1
  Zn  Zn127  1  0.12487832  0.12647115  0.00083485  1
  Zn  Zn128  1  0.18826753  0.18810562  0.18784576  1
  Zn  Zn129  1  0.18874673  0.18698517  0.68777075  1
  Zn  Zn130  1  0.18700130  0.68801204  0.18846780  1
  Zn  Zn131  1  0.18890553  0.68574880  0.68939857  1
  Zn  Zn132  1  0.68741629  0.18798844  0.18768737  1
  Zn  Zn133  1  0.68888807  0.18600008  0.68725018  1
  Zn  Zn134  1  0.68678634  0.68887730  0.18580803  1
  Zn  Zn135  1  0.68801725  0.68696770  0.68655840  1
  Zn  Zn136  1  0.31134050  0.31297977  0.31208017  1
  Zn  Zn137  1  0.31216140  0.31307470  0.81100273  1
  Zn  Zn138  1  0.31039502  0.81431367  0.31268555  1
  Zn  Zn139  1  0.31174994  0.81192989  0.81231506  1
  Zn  Zn140  1  0.81264915  0.31256398  0.31240485  1
  Zn  Zn141  1  0.81222969  0.31132879  0.81289998  1
  Zn  Zn142  1  0.81054274  0.81253670  0.31210259  1
  Zn  Zn143  1  0.81459147  0.81208646  0.81354541  1
  Zn  Zn144  1  0.18680541  0.43684873  0.43815973  1
  Zn  Zn145  1  0.18928294  0.43756487  0.93735906  1
  Zn  Zn146  1  0.19052480  0.93654824  0.44060772  1
  Zn  Zn147  1  0.18718563  0.93749815  0.93911370  1
  Zn  Zn148  1  0.68619405  0.43613616  0.43565327  1
  Zn  Zn149  1  0.68866012  0.43719834  0.93730714  1
  Zn  Zn150  1  0.69017466  0.93621603  0.43760391  1
  Zn  Zn151  1  0.68734271  0.93754411  0.93661132  1
  Zn  Zn152  1  0.31278612  0.06257633  0.06130679  1
  Zn  Zn153  1  0.31041251  0.06408909  0.56088173  1
  Zn  Zn154  1  0.31245525  0.56292865  0.06278161  1
  Zn  Zn155  1  0.31310444  0.56176384  0.56305166  1
  Zn  Zn156  1  0.81178888  0.06043879  0.06296555  1
  Zn  Zn157  1  0.81142314  0.06363039  0.56267670  1
  Zn  Zn158  1  0.81202687  0.56201052  0.06221246  1
  Zn  Zn159  1  0.81311987  0.56462964  0.56193646  1
  Zn  Zn160  1  0.43701189  0.43738050  0.18687311  1
  Zn  Zn161  1  0.43811248  0.43729014  0.68649775  1
  Zn  Zn162  1  0.43875809  0.93935044  0.18837227  1
  Zn  Zn163  1  0.43821253  0.93585335  0.68875482  1
  Zn  Zn164  1  0.93803673  0.43864330  0.18824349  1
  Zn  Zn165  1  0.93747648  0.43577063  0.68669482  1
  Zn  Zn166  1  0.93630709  0.93488244  0.18857875  1
  Zn  Zn167  1  0.93959115  0.93787985  0.68944896  1
  Zn  Zn168  1  0.05945833  0.06268739  0.31208152  1
  Zn  Zn169  1  0.06401079  0.06370069  0.81222364  1
  Zn  Zn170  1  0.06144757  0.56485764  0.31169674  1
  Zn  Zn171  1  0.06282657  0.56304701  0.81141067  1
  Zn  Zn172  1  0.56216019  0.06323392  0.31412915  1
  Zn  Zn173  1  0.56123411  0.06066814  0.80927289  1
  Zn  Zn174  1  0.56077795  0.56273469  0.31159353  1
  Zn  Zn175  1  0.56450172  0.56173596  0.81372630  1
  Zn  Zn176  1  0.43844031  0.18548572  0.43993117  1
  Zn  Zn177  1  0.43856408  0.18820054  0.93547605  1
  Zn  Zn178  1  0.43839798  0.68682610  0.43744204  1
  Zn  Zn179  1  0.43758279  0.68884471  0.93968779  1
  Zn  Zn180  1  0.93785327  0.18811921  0.43760283  1
  Zn  Zn181  1  0.93782313  0.18753845  0.94034131  1
  Zn  Zn182  1  0.93689800  0.68786765  0.43884422  1
  Zn  Zn183  1  0.93731513  0.68724955  0.93646909  1
  Zn  Zn184  1  0.06317870  0.31185171  0.06398378  1
  Zn  Zn185  1  0.06114904  0.31370114  0.56055544  1
  Zn  Zn186  1  0.06150914  0.81155184  0.06061141  1
  Zn  Zn187  1  0.06250580  0.81409029  0.56241944  1
  Zn  Zn188  1  0.56281388  0.31076735  0.06168482  1
  Zn  Zn189  1  0.56192718  0.31439925  0.56216092  1
  Zn  Zn190  1  0.56259294  0.81256046  0.06304622  1
  Zn  Zn191  1  0.56232936  0.81185028  0.56232425  1
  O  O192  1  0.11918129  0.11592484  0.12435249  1
  O  O193  1  0.12097430  0.11856997  0.61961086  1
  O  O194  1  0.11960507  0.62006173  0.11968849  1
  O  O195  1  0.11969277  0.61968497  0.61971210  1
  O  O196  1  0.61973548  0.12656925  0.11449357  1
  O  O197  1  0.62606673  0.11193940  0.62507235  1
  O  O198  1  0.62342681  0.61714609  0.11882740  1
  O  O199  1  0.61891652  0.62281054  0.61784413  1
  O  O200  1  0.38075556  0.38222144  0.37556349  1
  O  O201  1  0.38123959  0.38007512  0.87921640  1
  O  O202  1  0.37910789  0.88195228  0.37986915  1
  O  O203  1  0.37949551  0.87990264  0.88030154  1
  O  O204  1  0.88116009  0.38396126  0.37411012  1
  O  O205  1  0.88091385  0.37890006  0.88101036  1
  O  O206  1  0.87275694  0.88013756  0.38549521  1
  O  O207  1  0.88394097  0.87614253  0.88180116  1
  O  O208  1  0.26148738  0.00059406  0.37314651  1
  O  O209  1  0.25511884  0.00549529  0.87029603  1
  O  O210  1  0.25402389  0.50603833  0.37029375  1
  O  O211  1  0.25796719  0.50598731  0.87342395  1
  O  O212  1  0.75560100  0.00610552  0.36982241  1
  O  O213  1  0.75029114  0.00976989  0.86907319  1
  O  O214  1  0.75452218  0.50571194  0.36833578  1
  O  O215  1  0.75590928  0.50356983  0.86722982  1
  O  O216  1  0.24306128  0.49953656  0.13170845  1
  O  O217  1  0.24261125  0.49390685  0.62605095  1
  O  O218  1  0.24107874  0.99287971  0.12464000  1
  O  O219  1  0.24042085  1.00090589  0.63040558  1
  O  O220  1  0.74466883  0.49396769  0.13053039  1
  O  O221  1  0.75039749  0.49790728  0.63574160  1
  O  O222  1  0.74632905  0.99805912  0.13402851  1
  O  O223  1  0.74343821  0.99422899  0.63106884  1
  O  O224  1  0.00714359  0.37602076  0.25675125  1
  O  O225  1  0.00537445  0.36920146  0.75624534  1
  O  O226  1  0.00241408  0.86921578  0.25435625  1
  O  O227  1  0.00393100  0.86818460  0.75693120  1
  O  O228  1  0.50429164  0.36979011  0.25447268  1
  O  O229  1  0.51179470  0.37662141  0.75573398  1
  O  O230  1  0.50469450  0.86983925  0.25721562  1
  O  O231  1  0.50525261  0.86742151  0.75579900  1
  O  O232  1  0.49426833  0.13103599  0.24467838  1
  O  O233  1  0.49195878  0.12821905  0.74529123  1
  O  O234  1  0.49229221  0.63250830  0.24897434  1
  O  O235  1  0.49625446  0.62844316  0.74552420  1
  O  O236  1  0.99120411  0.12622147  0.24247935  1
  O  O237  1  0.99927004  0.13354066  0.74357474  1
  O  O238  1  0.99201003  0.62667561  0.24254407  1
  O  O239  1  0.99848364  0.63106725  0.74321289  1
  O  O240  1  0.37154970  0.25562839  0.00396135  1
  O  O241  1  0.36805557  0.25109386  0.50982272  1
  O  O242  1  0.37241716  0.75745646  0.00789004  1
  O  O243  1  0.37054985  0.75313157  0.50527724  1
  O  O244  1  0.87350705  0.25723753  0.00744681  1
  O  O245  1  0.86656799  0.25158602  0.50802277  1
  O  O246  1  0.86967414  0.75419162  0.00423441  1
  O  O247  1  0.87385045  0.75925036  0.50663859  1
  O  O248  1  0.12894280  0.24580361  0.49448580  1
  O  O249  1  0.13220134  0.24984522  0.99372546  1
  O  O250  1  0.13047229  0.74462086  0.49419783  1
  O  O251  1  0.12614496  0.74167975  0.99333483  1
  O  O252  1  0.63717592  0.24915658  0.50115972  1
  O  O253  1  0.62676466  0.23961800  0.99312183  1
  O  O254  1  0.62606769  0.74314467  0.49260060  1
  O  O255  1  0.63156737  0.74289482  0.99922772  1
  O  O256  1  0.49391206  0.24445224  0.13026163  1
  O  O257  1  0.48720320  0.25136609  0.62630259  1
  O  O258  1  0.49167901  0.74996294  0.13289779  1
  O  O259  1  0.49503390  0.74286954  0.63105630  1
  O  O260  1  0.99353130  0.24333076  0.12685954  1
  O  O261  1  0.99306401  0.24640627  0.62911338  1
  O  O262  1  0.99264094  0.74224386  0.12415912  1
  O  O263  1  0.99672220  0.74504565  0.63019646  1
  O  O264  1  0.00601976  0.25800849  0.37368079  1
  O  O265  1  0.00515612  0.25525049  0.87064343  1
  O  O266  1  0.01228606  0.74971534  0.37625602  1
  O  O267  1  0.00633532  0.75399185  0.86990552  1
  O  O268  1  0.49900455  0.25634467  0.36850467  1
  O  O269  1  0.50675025  0.25755914  0.87079948  1
  O  O270  1  0.50475656  0.75548830  0.36924696  1
  O  O271  1  0.50110151  0.75592587  0.86834089  1
  O  O272  1  0.24130990  0.13354278  0.49734494  1
  O  O273  1  0.24986041  0.13253292  0.99250413  1
  O  O274  1  0.24452108  0.62973998  0.49498489  1
  O  O275  1  0.24336332  0.62554672  0.99341102  1
  O  O276  1  0.74958404  0.13492268  0.49456337  1
  O  O277  1  0.74147540  0.12533293  0.99076397  1
  O  O278  1  0.74314497  0.62576620  0.49237065  1
  O  O279  1  0.74503154  0.62856492  0.99437002  1
  O  O280  1  0.25838743  0.36859656  0.00033605  1
  O  O281  1  0.25042717  0.36845106  0.50710110  1
  O  O282  1  0.25564939  0.87416300  0.01173760  1
  O  O283  1  0.25854634  0.86613254  0.50371043  1
  O  O284  1  0.75671772  0.37397190  0.00639773  1
  O  O285  1  0.75207368  0.36495277  0.50092786  1
  O  O286  1  0.75597944  0.86839118  -0.00109274  1
  O  O287  1  0.76149262  0.87292248  0.50713792  1
  O  O288  1  0.13013007  0.49730062  0.24506815  1
  O  O289  1  0.12507431  0.49300179  0.74313824  1
  O  O290  1  0.12536677  0.99812071  0.23748609  1
  O  O291  1  0.13126723  1.00113853  0.73976144  1
  O  O292  1  0.62943016  0.49444863  0.24452044  1
  O  O293  1  0.63514691  0.49101371  0.75085847  1
  O  O294  1  0.63055955  0.99387607  0.25087669  1
  O  O295  1  0.63149626  0.99275383  0.74192638  1
  O  O296  1  0.37458147  0.00541422  0.26029133  1
  O  O297  1  0.36952269  0.00496904  0.75446809  1
  O  O298  1  0.36929177  0.50610658  0.25507288  1
  O  O299  1  0.37545645  0.50582145  0.75710865  1
  O  O300  1  0.86789434  0.00533393  0.25560316  1
  O  O301  1  0.86795185  0.00360341  0.75253281  1
  O  O302  1  0.86821467  0.50697816  0.25422218  1
  O  O303  1  0.86612382  0.49811591  0.75588928  1
  O  O304  1  0.11892520  0.37144685  0.36936949  1
  O  O305  1  0.11952626  0.36993841  0.87026835  1
  O  O306  1  0.12536894  0.86407385  0.37634241  1
  O  O307  1  0.11962647  0.86773334  0.87538366  1
  O  O308  1  0.61680372  0.37292955  0.36676401  1
  O  O309  1  0.62206794  0.36992043  0.86736043  1
  O  O310  1  0.61961240  0.86942683  0.37053411  1
  O  O311  1  0.61843008  0.87343486  0.86822252  1
  O  O312  1  0.38079123  0.13053324  0.12933926  1
  O  O313  1  0.37286974  0.13535584  0.62986498  1
  O  O314  1  0.37467610  0.63295677  0.13215118  1
  O  O315  1  0.38166170  0.62934059  0.63083038  1
  O  O316  1  0.87885972  0.13017057  0.13007038  1
  O  O317  1  0.88065207  0.13592696  0.62618756  1
  O  O318  1  0.87973589  0.62932026  0.12900883  1
  O  O319  1  0.88243844  0.63247681  0.62575934  1
  O  O320  1  0.25731702  0.25193318  0.11765000  1
  O  O321  1  0.25632074  0.25514173  0.61984334  1
  O  O322  1  0.25424304  0.76003176  0.12456190  1
  O  O323  1  0.25741215  0.74843572  0.61944393  1
  O  O324  1  0.75676364  0.25711140  0.12383206  1
  O  O325  1  0.75911548  0.24960612  0.61765801  1
  O  O326  1  0.75693510  0.75046724  0.11648805  1
  O  O327  1  0.75788188  0.75644502  0.62469995  1
  O  O328  1  0.24241250  0.25004539  0.38158574  1
  O  O329  1  0.24563443  0.24533814  0.87946724  1
  O  O330  1  0.24279443  0.74448419  0.38118302  1
  O  O331  1  0.24441881  0.74248941  0.87713041  1
  O  O332  1  0.75033154  0.24517255  0.38442297  1
  O  O333  1  0.74404064  0.23986012  0.87564257  1
  O  O334  1  0.74244582  0.74233726  0.37598433  1
  O  O335  1  0.74971442  0.74178699  0.88082516  1
  O  O336  1  0.00153328  0.11800759  0.00760197  1
  O  O337  1  0.00649378  0.12473027  0.50737551  1
  O  O338  1  0.00536807  0.61807549  0.00457435  1
  O  O339  1  0.00563473  0.61956619  0.50595386  1
  O  O340  1  0.50916632  0.12512622  0.00372790  1
  O  O341  1  0.50476239  0.12036391  0.50615299  1
  O  O342  1  0.50639118  0.61815793  0.00182399  1
  O  O343  1  0.50555081  0.61917826  0.50417691  1
  O  O344  1  0.49827109  0.38171311  0.49250672  1
  O  O345  1  0.49600931  0.38019122  0.99371877  1
  O  O346  1  0.49278398  0.87548402  0.49336619  1
  O  O347  1  0.49352737  0.87622578  0.99334989  1
  O  O348  1  0.99841917  0.38341772  0.49229156  1
  O  O349  1  0.99519805  0.38051133  0.99506847  1
  O  O350  1  0.98673249  0.87755983  0.49928744  1
  O  O351  1  0.99447195  0.88000413  0.99431987  1
  O  O352  1  0.49345035  0.49497945  0.37881988  1
  O  O353  1  0.49577354  0.49424188  0.88139360  1
  O  O354  1  0.48906452  0.99384126  0.37675506  1
  O  O355  1  0.49266945  0.99242322  0.87446128  1
  O  O356  1  0.99447980  0.49755041  0.38003527  1
  O  O357  1  0.99538652  0.49390299  0.88011701  1
  O  O358  1  0.99071158  0.99778483  0.37836628  1
  O  O359  1  1.00154453  0.99456950  0.88177994  1
  O  O360  1  0.00671698  0.00384712  0.12007926  1
  O  O361  1  0.01100978  0.00666295  0.62480052  1
  O  O362  1  0.00523012  0.50614483  0.11877984  1
  O  O363  1  0.00456438  0.50494652  0.61964716  1
  O  O364  1  0.50263167  0.00927646  0.12190002  1
  O  O365  1  0.51243289  -0.00174516  0.62531594  1
  O  O366  1  0.50657572  0.50079261  0.11831013  1
  O  O367  1  0.50171929  0.50583210  0.61760943  1
  O  O368  1  0.24294085  0.38335526  0.24854553  1
  O  O369  1  0.24207153  0.37665269  0.74327815  1
  O  O370  1  0.24691415  0.87835549  0.23700083  1
  O  O371  1  0.24822378  0.88332609  0.74751556  1
  O  O372  1  0.74407081  0.38120564  0.24496671  1
  O  O373  1  0.74200704  0.38298046  0.75123805  1
  O  O374  1  0.74255480  0.88203173  0.24966642  1
  O  O375  1  0.74586922  0.87967372  0.74605381  1
  O  O376  1  0.25886289  0.12245678  0.25225088  1
  O  O377  1  0.25620468  0.11954211  0.75639176  1
  O  O378  1  0.25489936  0.61995947  0.25644668  1
  O  O379  1  0.25844386  0.62197475  0.75724481  1
  O  O380  1  0.75477215  0.12020313  0.25567022  1
  O  O381  1  0.75010548  0.11933629  0.76073180  1
  O  O382  1  0.75400325  0.61899227  0.25455906  1
  O  O383  1  0.75067864  0.61404725  0.75511261  1
  O  O384  1  0.37416886  0.11569406  0.37006484  1
  O  O385  1  0.37014518  0.12023359  0.86868541  1
  O  O386  1  0.36871397  0.62021211  0.36952932  1
  O  O387  1  0.37140456  0.61963292  0.87091696  1
  O  O388  1  0.86891936  0.11999839  0.36990655  1
  O  O389  1  0.86328494  0.12483012  0.87483053  1
  O  O390  1  0.86913822  0.62069678  0.36922281  1
  O  O391  1  0.86912502  0.61634699  0.87312007  1
  O  O392  1  0.12583801  0.38311181  0.13132106  1
  O  O393  1  0.12848215  0.37972434  0.63026724  1
  O  O394  1  0.13224081  0.88251254  0.12383296  1
  O  O395  1  0.12702331  0.88708709  0.62553416  1
  O  O396  1  0.63031690  0.37975780  0.12981071  1
  O  O397  1  0.62765827  0.37742850  0.63675905  1
  O  O398  1  0.62664258  0.87750526  0.13360330  1
  O  O399  1  0.63141719  0.88013265  0.63086467  1
  O  O400  1  0.12381277  0.25761624  0.25590764  1
  O  O401  1  0.11978466  0.25582579  0.75560104  1
  O  O402  1  0.12414447  0.74992204  0.26305854  1
  O  O403  1  0.11940826  0.75022933  0.75675614  1
  O  O404  1  0.61738950  0.25656985  0.25083074  1
  O  O405  1  0.62569756  0.26004929  0.75371423  1
  O  O406  1  0.61909263  0.75536786  0.25551445  1
  O  O407  1  0.61909558  0.75524341  0.75147558  1
  O  O408  1  0.38007255  0.24526762  0.24407858  1
  O  O409  1  0.37381726  0.24498931  0.73967768  1
  O  O410  1  0.37887609  0.74616703  0.24633119  1
  O  O411  1  0.38162314  0.74316202  0.74514408  1
  O  O412  1  0.87587758  0.24312147  0.24383623  1
  O  O413  1  0.88068438  0.24954256  0.74066333  1
  O  O414  1  0.87338604  0.74277820  0.24295420  1
  O  O415  1  0.88335121  0.74865805  0.74325298  1
  O  O416  1  0.38119487  0.49927887  0.49264770  1
  O  O417  1  0.38117815  0.49490385  0.99485407  1
  O  O418  1  0.37396278  0.99417389  0.49148729  1
  O  O419  1  0.37612258  0.99386622  0.99211088  1
  O  O420  1  0.88075993  0.50020897  0.49259754  1
  O  O421  1  0.88119680  0.49362016  0.99524388  1
  O  O422  1  0.87479911  0.99163391  0.49572268  1
  O  O423  1  0.88178757  0.99294703  0.99839657  1
  O  O424  1  0.11910923  0.00149337  0.01140188  1
  O  O425  1  0.12542060  0.00583627  0.50956043  1
  O  O426  1  0.11947533  0.50462659  0.00477558  1
  O  O427  1  0.11901140  0.50629343  0.50537226  1
  O  O428  1  0.62290831  0.01307246  -0.00024656  1
  O  O429  1  0.62616272  -0.00237363  0.51271439  1
  O  O430  1  0.62054584  0.50402475  0.00500252  1
  O  O431  1  0.61850955  0.50627406  0.49973144  1
  O  O432  1  0.37437853  0.36853429  0.11745277  1
  O  O433  1  0.36847933  0.36582342  0.62474648  1
  O  O434  1  0.36680010  0.87240716  0.12146594  1
  O  O435  1  0.37491826  0.86679534  0.61920630  1
  O  O436  1  0.87033167  0.37087735  0.12100881  1
  O  O437  1  0.87389791  0.36231688  0.62233872  1
  O  O438  1  0.87277154  0.86745735  0.11676213  1
  O  O439  1  0.87143676  0.87139692  0.61841317  1
  O  O440  1  0.12466899  0.13144628  0.38040595  1
  O  O441  1  0.13232423  0.13253422  0.87700506  1
  O  O442  1  0.13036843  0.63201416  0.38147857  1
  O  O443  1  0.13054729  0.62863940  0.88025604  1
  O  O444  1  0.63306644  0.12800461  0.37785940  1
  O  O445  1  0.63137692  0.12856446  0.88019565  1
  O  O446  1  0.62927011  0.62996946  0.37864207  1
  O  O447  1  0.63270942  0.62509752  0.88262978  1
