# generated using pymatgen
data_V3Zn3O8
_symmetry_space_group_name_H-M   'P 1'
_cell_length_a   17.08681289
_cell_length_b   17.08669493
_cell_length_c   17.08702404
_cell_angle_alpha   90.00952437
_cell_angle_beta   89.97354745
_cell_angle_gamma   90.00723510
_symmetry_Int_Tables_number   1
_chemical_formula_structural   V3Zn3O8
_chemical_formula_sum   'V96 Zn96 O256'
_cell_volume   4988.67835833
_cell_formula_units_Z   32
loop_
 _symmetry_equiv_pos_site_id
 _symmetry_equiv_pos_as_xyz
  1  'x, y, z'
loop_
 _atom_site_type_symbol
 _atom_site_label
 _atom_site_symmetry_multiplicity
 _atom_site_fract_x
 _atom_site_fract_y
 _atom_site_fract_z
 _atom_site_occupancy
  V  V0  1  0.62514886  0.49971938  0.12512660  1
  V  V1  1  0.12399881  0.74991080  0.87427954  1
  V  V2  1  0.00097780  0.62345940  0.62503293  1
  V  V3  1  0.49939423  0.37602162  0.37374740  1
  V  V4  1  0.24923168  0.49929561  0.74975654  1
  V  V5  1  0.62420907  0.25001369  0.87515026  1
  V  V6  1  0.25007907  0.00064093  0.25023617  1
  V  V7  1  0.25092463  0.75032450  0.49974204  1
  V  V8  1  0.62437191  0.50021800  0.62371808  1
  V  V9  1  0.87325169  0.50116207  0.37381683  1
  V  V10  1  0.37626145  0.00113079  0.37472386  1
  V  V11  1  0.24905559  0.75084500  -0.00006331  1
  V  V12  1  0.74946299  0.50057165  0.74951719  1
  V  V13  1  0.37482335  0.75196827  0.12444662  1
  V  V14  1  0.25170611  0.87470499  0.62413523  1
  V  V15  1  0.12591203  0.12620512  0.50153339  1
  V  V16  1  0.87569109  0.37352202  0.50070555  1
  V  V17  1  0.24922607  0.25011593  -0.00119093  1
  V  V18  1  0.62468637  0.62599093  -0.00011033  1
  V  V19  1  0.50026790  0.75032877  0.75045053  1
  V  V20  1  0.37501573  0.50000217  0.37452408  1
  V  V21  1  0.37513041  0.62541625  0.74903879  1
  V  V22  1  0.87471010  0.12415805  0.74955213  1
  V  V23  1  0.00153116  0.87369915  0.37571115  1
  V  V24  1  0.37472089  0.87648614  -0.00135726  1
  V  V25  1  0.37594769  0.12661883  0.24841471  1
  V  V26  1  0.62651102  0.12587019  0.49823382  1
  V  V27  1  0.00049949  0.50013634  0.50107149  1
  V  V28  1  0.62657341  0.24971631  0.37424837  1
  V  V29  1  0.75019915  0.87480477  0.12641578  1
  V  V30  1  0.50028611  0.37472087  0.87406389  1
  V  V31  1  0.74805955  0.12484013  0.87477951  1
  V  V32  1  0.50004475  -0.00024694  0.49972899  1
  V  V33  1  -0.00147964  0.24928306  0.75026597  1
  V  V34  1  -0.00091263  0.62509392  0.12574180  1
  V  V35  1  0.12451064  0.50034718  0.12447570  1
  V  V36  1  0.87445880  0.62417816  0.75021427  1
  V  V37  1  0.12510408  -0.00019377  0.62557808  1
  V  V38  1  -0.00198889  0.37543402  0.87513381  1
  V  V39  1  0.50066956  0.87621080  0.37593699  1
  V  V40  1  0.74938509  -0.00010762  0.74982516  1
  V  V41  1  0.62557606  0.75020809  0.37563870  1
  V  V42  1  0.00029140  0.74881622  0.75038997  1
  V  V43  1  0.87461106  0.00103904  0.37409715  1
  V  V44  1  0.49911972  0.62523114  0.62477314  1
  V  V45  1  0.24977913  0.62523749  0.87465406  1
  V  V46  1  0.25040928  0.37617597  0.12334665  1
  V  V47  1  -0.00143635  0.49900208  -0.00008840  1
  V  V48  1  0.12639790  0.87644274  0.25041157  1
  V  V49  1  0.24954317  0.50131762  0.24908509  1
  V  V50  1  0.74985360  0.87470065  0.62670637  1
  V  V51  1  0.62665814  0.87577827  0.25021168  1
  V  V52  1  0.87541907  0.87432178  -0.00010426  1
  V  V53  1  0.12555159  0.37480976  0.24993565  1
  V  V54  1  0.74976017  0.74835074  0.50012384  1
  V  V55  1  0.74960624  0.62434187  0.87452428  1
  V  V56  1  0.24814046  0.12579793  0.87636170  1
  V  V57  1  0.49950026  0.50100567  -0.00069502  1
  V  V58  1  0.12563723  0.37505789  0.74936352  1
  V  V59  1  0.00164574  -0.00129922  0.50143907  1
  V  V60  1  0.87533983  0.74880559  0.12650147  1
  V  V61  1  0.00028305  -0.00032358  0.00051368  1
  V  V62  1  0.12535852  0.74973968  0.37491173  1
  V  V63  1  0.12584391  0.25049627  0.37609869  1
  V  V64  1  0.50065251  0.25073365  0.74974987  1
  V  V65  1  -0.00006965  0.74896429  0.24995344  1
  V  V66  1  0.74907896  0.24880231  -0.00024375  1
  V  V67  1  0.12401228  0.87393761  0.74991001  1
  V  V68  1  0.37452640  0.62669670  0.24954044  1
  V  V69  1  0.49877652  0.50037792  0.49819843  1
  V  V70  1  0.37574173  -0.00055933  0.87588914  1
  V  V71  1  0.87451687  0.37455408  -0.00050442  1
  V  V72  1  0.12474040  0.62348634  0.50019120  1
  V  V73  1  0.24929208  0.87671805  0.12584023  1
  V  V74  1  0.62546588  0.00218595  0.12435891  1
  V  V75  1  -0.00048612  0.24875955  0.24840653  1
  V  V76  1  0.87504750  0.74865408  0.62506390  1
  V  V77  1  0.62494235  0.37569312  0.24924727  1
  V  V78  1  0.74965258  0.74969179  0.00075320  1
  V  V79  1  0.37435911  0.12499438  0.74988541  1
  V  V80  1  0.24962284  0.62545680  0.37460653  1
  V  V81  1  0.87561607  0.24882592  0.12591609  1
  V  V82  1  0.62482028  0.62569821  0.49876269  1
  V  V83  1  0.12421559  0.62523844  -0.00029848  1
  V  V84  1  0.37450480  0.37567587  -0.00030356  1
  V  V85  1  0.37341400  0.25150504  0.62114225  1
  V  V86  1  0.37548807  0.25035380  0.12542103  1
  V  V87  1  0.50017902  0.12470030  0.62422015  1
  V  V88  1  0.62375145  0.75168634  0.87471700  1
  V  V89  1  0.74879454  0.37492614  0.12485958  1
  V  V90  1  0.37515450  0.50042104  0.87448728  1
  V  V91  1  0.50050475  0.75176323  0.24997171  1
  V  V92  1  0.49996494  0.62662214  0.12430110  1
  V  V93  1  0.87659576  0.87326656  0.50100339  1
  V  V94  1  0.74913668  0.37378841  0.62436325  1
  V  V95  1  0.62550190  -0.00007091  0.62504874  1
  Zn  Zn96  1  0.25151647  0.37645315  0.62360432  1
  Zn  Zn97  1  0.00098418  0.12408295  0.12349606  1
  Zn  Zn98  1  0.12197182  0.12577919  0.00157201  1
  Zn  Zn99  1  0.37613354  0.87473397  0.50009760  1
  Zn  Zn100  1  0.37176491  0.37528526  0.49848170  1
  Zn  Zn101  1  0.00068933  0.37577632  0.37589726  1
  Zn  Zn102  1  0.62330164  0.87622255  0.75187600  1
  Zn  Zn103  1  0.75325697  0.12522592  0.37581381  1
  Zn  Zn104  1  0.25182747  0.12624328  0.37604562  1
  Zn  Zn105  1  0.87321737  0.62387987  0.25057579  1
  Zn  Zn106  1  0.62337093  0.12453201  0.00089395  1
  Zn  Zn107  1  -0.00142957  0.87424215  0.87487208  1
  Zn  Zn108  1  0.24872229  0.25336213  0.50135741  1
  Zn  Zn109  1  0.50046460  0.25051222  0.24753746  1
  Zn  Zn110  1  0.74916189  0.62489936  0.37204836  1
  Zn  Zn111  1  0.12723698  0.49907760  0.62368628  1
  Zn  Zn112  1  0.12418596  0.00353907  0.12566590  1
  Zn  Zn113  1  0.62450475  0.37541678  0.74917146  1
  Zn  Zn114  1  0.87413460  -0.00374998  0.87511357  1
  Zn  Zn115  1  0.50235914  0.12679922  0.12258553  1
  Zn  Zn116  1  0.50165170  0.00125097  0.00015946  1
  Zn  Zn117  1  0.12357257  0.24826452  0.87645184  1
  Zn  Zn118  1  0.87368292  0.49973965  0.87507097  1
  Zn  Zn119  1  0.24844938  0.00016503  0.75011234  1
  Zn  Zn120  1  0.75047279  0.50209295  0.24931164  1
  Zn  Zn121  1  0.75186845  0.00269131  0.25080049  1
  Zn  Zn122  1  0.37629600  0.75101478  0.62368668  1
  Zn  Zn123  1  0.50093495  0.87620355  0.87471507  1
  Zn  Zn124  1  0.87380370  0.24713821  0.62304442  1
  Zn  Zn125  1  0.87552424  0.12376242  0.24976399  1
  Zn  Zn126  1  0.00045691  0.12323785  0.62806449  1
  Zn  Zn127  1  0.75189121  0.24752460  0.49979350  1
  Zn  Zn128  1  0.18753709  0.18532723  0.18481024  1
  Zn  Zn129  1  0.18776553  0.18797832  0.68915239  1
  Zn  Zn130  1  0.18657983  0.68902292  0.18662505  1
  Zn  Zn131  1  0.18749564  0.68738890  0.68635406  1
  Zn  Zn132  1  0.69279615  0.18490786  0.19223753  1
  Zn  Zn133  1  0.68662722  0.18834470  0.68752288  1
  Zn  Zn134  1  0.68900347  0.68617840  0.18954524  1
  Zn  Zn135  1  0.68594825  0.68748186  0.68779556  1
  Zn  Zn136  1  0.31126814  0.31294283  0.31218968  1
  Zn  Zn137  1  0.31353260  0.31141917  0.81118811  1
  Zn  Zn138  1  0.31358325  0.81461805  0.31331353  1
  Zn  Zn139  1  0.31192152  0.81226411  0.81082834  1
  Zn  Zn140  1  0.81127281  0.31497583  0.31198805  1
  Zn  Zn141  1  0.81176999  0.31209918  0.81234100  1
  Zn  Zn142  1  0.81260071  0.81302683  0.31261312  1
  Zn  Zn143  1  0.81195405  0.81219031  0.81324231  1
  Zn  Zn144  1  0.18930644  0.43595642  0.43882461  1
  Zn  Zn145  1  0.18586217  0.43714179  0.93544501  1
  Zn  Zn146  1  0.18945131  0.93882430  0.43695456  1
  Zn  Zn147  1  0.18576079  0.93758424  0.93729108  1
  Zn  Zn148  1  0.68764584  0.43731652  0.43700292  1
  Zn  Zn149  1  0.68688579  0.43660967  0.93726802  1
  Zn  Zn150  1  0.68900156  0.93622745  0.43966078  1
  Zn  Zn151  1  0.68838584  0.93697680  0.93762363  1
  Zn  Zn152  1  0.31181477  0.06266590  0.06277657  1
  Zn  Zn153  1  0.31184763  0.06278221  0.56124872  1
  Zn  Zn154  1  0.31241827  0.56389925  0.06206157  1
  Zn  Zn155  1  0.31228870  0.56215988  0.56329969  1
  Zn  Zn156  1  0.81404187  0.06338129  0.06316776  1
  Zn  Zn157  1  0.81205751  0.06180016  0.56192662  1
  Zn  Zn158  1  0.81264895  0.56184560  0.06258932  1
  Zn  Zn159  1  0.81194473  0.56200794  0.56141212  1
  Zn  Zn160  1  0.43828062  0.43814896  0.18786482  1
  Zn  Zn161  1  0.43769539  0.43699780  0.68723052  1
  Zn  Zn162  1  0.43918314  0.93923524  0.18735048  1
  Zn  Zn163  1  0.43718091  0.93759869  0.68957171  1
  Zn  Zn164  1  0.93758960  0.43465013  0.18763299  1
  Zn  Zn165  1  0.93691329  0.43862018  0.68707043  1
  Zn  Zn166  1  0.93923250  0.93547697  0.18671751  1
  Zn  Zn167  1  0.93806507  0.93680782  0.68794850  1
  Zn  Zn168  1  0.06228910  0.06351941  0.31407908  1
  Zn  Zn169  1  0.06189299  0.05873657  0.81543001  1
  Zn  Zn170  1  0.06009998  0.56182528  0.31341218  1
  Zn  Zn171  1  0.06175959  0.56078473  0.81296610  1
  Zn  Zn172  1  0.56239225  0.06321313  0.31029845  1
  Zn  Zn173  1  0.56197174  0.06396159  0.81162230  1
  Zn  Zn174  1  0.56274376  0.56330067  0.31137230  1
  Zn  Zn175  1  0.56368703  0.56322863  0.81125850  1
  Zn  Zn176  1  0.44087669  0.18739349  0.43598016  1
  Zn  Zn177  1  0.43901986  0.18585241  0.94027636  1
  Zn  Zn178  1  0.43679021  0.68885695  0.43818278  1
  Zn  Zn179  1  0.43684847  0.68885665  0.93623377  1
  Zn  Zn180  1  0.94170553  0.18702304  0.43796044  1
  Zn  Zn181  1  0.93490959  0.18566358  0.93622788  1
  Zn  Zn182  1  0.93773705  0.68553761  0.43761914  1
  Zn  Zn183  1  0.93644526  0.68713166  0.93727775  1
  Zn  Zn184  1  0.06366022  0.31155871  0.06158025  1
  Zn  Zn185  1  0.06050776  0.31257596  0.56582749  1
  Zn  Zn186  1  0.06230506  0.81470799  0.06381357  1
  Zn  Zn187  1  0.06403268  0.81061811  0.56315207  1
  Zn  Zn188  1  0.56170117  0.31143515  0.06176036  1
  Zn  Zn189  1  0.56070662  0.31305976  0.55911894  1
  Zn  Zn190  1  0.56166936  0.81667705  0.06095928  1
  Zn  Zn191  1  0.56326079  0.81351622  0.56378949  1
  O  O192  1  0.12053835  0.12135735  0.11991783  1
  O  O193  1  0.12470867  0.11949513  0.61783486  1
  O  O194  1  0.11992641  0.62000934  0.11910112  1
  O  O195  1  0.11871592  0.62365484  0.61790554  1
  O  O196  1  0.62701117  0.11351148  0.12690190  1
  O  O197  1  0.61964627  0.12016996  0.61906011  1
  O  O198  1  0.61868718  0.62097858  0.11920961  1
  O  O199  1  0.61908146  0.61958878  0.61859768  1
  O  O200  1  0.38042234  0.38243238  0.37379018  1
  O  O201  1  0.38009607  0.38094751  0.87995908  1
  O  O202  1  0.38311814  0.88255350  0.37575577  1
  O  O203  1  0.37132744  0.88526943  0.87933205  1
  O  O204  1  0.87574638  0.38231322  0.38601533  1
  O  O205  1  0.87986385  0.37659854  0.88154517  1
  O  O206  1  0.88254018  0.88028234  0.38188839  1
  O  O207  1  0.87665075  0.87435186  0.88446018  1
  O  O208  1  0.25789614  0.00223181  0.36827698  1
  O  O209  1  0.25860720  0.00858225  0.87471950  1
  O  O210  1  0.25439227  0.50631396  0.36795207  1
  O  O211  1  0.25566202  0.50603724  0.87039811  1
  O  O212  1  0.76431092  -0.00308895  0.37624303  1
  O  O213  1  0.75110065  0.00667815  0.86768337  1
  O  O214  1  0.76127417  0.50064379  0.37472521  1
  O  O215  1  0.74959384  0.50665583  0.86851859  1
  O  O216  1  0.24451691  0.49640202  0.12921837  1
  O  O217  1  0.24783411  0.49772699  0.63450894  1
  O  O218  1  0.24943138  0.99301573  0.13219302  1
  O  O219  1  0.24386594  0.99074772  0.62551041  1
  O  O220  1  0.74230553  0.49273754  0.12349480  1
  O  O221  1  0.74446568  0.49266592  0.62870568  1
  O  O222  1  0.74319333  0.99251892  0.12703810  1
  O  O223  1  0.74506817  0.99434795  0.62997320  1
  O  O224  1  0.00786609  0.36490735  0.25123537  1
  O  O225  1  0.00474948  0.36876356  0.75450629  1
  O  O226  1  0.00705605  0.86823359  0.25614449  1
  O  O227  1  0.00610144  0.86624838  0.75005990  1
  O  O228  1  0.50664576  0.37468806  0.25618484  1
  O  O229  1  0.50120430  0.36937100  0.75692763  1
  O  O230  1  0.50603060  0.86961865  0.25574544  1
  O  O231  1  0.50167989  0.86543105  0.75248775  1
  O  O232  1  0.48639724  0.12633887  0.24688976  1
  O  O233  1  0.49362423  0.13120819  0.74329543  1
  O  O234  1  0.49418670  0.63180619  0.24368217  1
  O  O235  1  0.49458898  0.63002065  0.74443448  1
  O  O236  1  0.99935617  0.13877646  0.25022874  1
  O  O237  1  0.99214476  0.13197622  0.75251956  1
  O  O238  1  0.99939269  0.63140456  0.24303635  1
  O  O239  1  0.99487762  0.62908484  0.74499023  1
  O  O240  1  0.36913308  0.25739566  0.00493932  1
  O  O241  1  0.37481813  0.24820581  0.51024493  1
  O  O242  1  0.36818870  0.75495965  0.00483963  1
  O  O243  1  0.36682290  0.75333050  0.50221693  1
  O  O244  1  0.86929074  0.25575183  0.00504803  1
  O  O245  1  0.87554883  0.26071838  0.50109116  1
  O  O246  1  0.86931909  0.75373403  0.00680769  1
  O  O247  1  0.87079634  0.75391020  0.50576861  1
  O  O248  1  0.12126820  0.24311902  0.49358900  1
  O  O249  1  0.13320308  0.24915243  0.99517134  1
  O  O250  1  0.13025695  0.74346782  0.49331582  1
  O  O251  1  0.12974553  0.74457044  0.99526139  1
  O  O252  1  0.62478811  0.24477581  0.48983693  1
  O  O253  1  0.63197760  0.24946137  0.99336358  1
  O  O254  1  0.62988136  0.74529141  0.49508816  1
  O  O255  1  0.62997014  0.74489111  0.99610240  1
  O  O256  1  0.49099127  0.24915937  0.12776951  1
  O  O257  1  0.49339676  0.24436122  0.62870424  1
  O  O258  1  0.49453128  0.74625391  0.12982192  1
  O  O259  1  0.49946077  0.74335371  0.63186585  1
  O  O260  1  0.99467756  0.25174629  0.13408782  1
  O  O261  1  0.99640829  0.24774544  0.63971889  1
  O  O262  1  0.99540709  0.74470934  0.13025401  1
  O  O263  1  0.99469454  0.74322925  0.63015739  1
  O  O264  1  0.01031420  0.25287041  0.36727925  1
  O  O265  1  -0.00042573  0.25558746  0.86434008  1
  O  O266  1  0.00588620  0.75427951  0.37073527  1
  O  O267  1  0.00696927  0.74887107  0.86824791  1
  O  O268  1  0.51058244  0.25687818  0.37247134  1
  O  O269  1  0.50343670  0.25535659  0.86985411  1
  O  O270  1  0.50533069  0.75585746  0.36944261  1
  O  O271  1  0.50578667  0.74952400  0.86750591  1
  O  O272  1  0.23670679  0.12793609  0.49833564  1
  O  O273  1  0.25141411  0.13144113  0.99022321  1
  O  O274  1  0.24460521  0.62967263  0.49367161  1
  O  O275  1  0.24416154  0.63077123  0.99492730  1
  O  O276  1  0.74309089  0.12803304  0.49657475  1
  O  O277  1  0.74970093  0.13211236  0.99243320  1
  O  O278  1  0.74255047  0.63127346  0.49920558  1
  O  O279  1  0.74392444  0.63026918  0.99516282  1
  O  O280  1  0.25541945  0.37181618  0.00374548  1
  O  O281  1  0.25388438  0.37097150  0.50577014  1
  O  O282  1  0.25457138  0.86914906  0.00561385  1
  O  O283  1  0.24923165  0.86973683  0.50910057  1
  O  O284  1  0.75469256  0.36884030  0.00487554  1
  O  O285  1  0.75876989  0.37606287  0.50937823  1
  O  O286  1  0.75560581  0.86787564  0.00647368  1
  O  O287  1  0.75680950  0.86801626  0.50741057  1
  O  O288  1  0.12976966  0.49546572  0.24442633  1
  O  O289  1  0.13018759  0.49050608  0.75013405  1
  O  O290  1  0.13106518  0.99352958  0.25170269  1
  O  O291  1  0.12613615  0.99268715  0.74386596  1
  O  O292  1  0.62499667  0.49425620  0.24224999  1
  O  O293  1  0.63102654  0.49879084  0.74165926  1
  O  O294  1  0.62729453  0.99310213  0.24261396  1
  O  O295  1  0.63100048  1.00031590  0.74226174  1
  O  O296  1  0.37077964  0.00795087  0.25439246  1
  O  O297  1  0.37184632  0.00651481  0.75896511  1
  O  O298  1  0.36907523  0.50748728  0.25364358  1
  O  O299  1  0.37031192  0.50556015  0.75615756  1
  O  O300  1  0.87861138  -0.00196711  0.26358796  1
  O  O301  1  0.86985301  0.00874517  0.75029882  1
  O  O302  1  0.87598565  0.49797418  0.26213585  1
  O  O303  1  0.86781786  0.50714741  0.75117781  1
  O  O304  1  0.12360556  0.36679071  0.36922210  1
  O  O305  1  0.11787503  0.37349899  0.86424062  1
  O  O306  1  0.12094984  0.86892414  0.37076154  1
  O  O307  1  0.12499491  0.86657106  0.86761578  1
  O  O308  1  0.61990384  0.36909189  0.37013684  1
  O  O309  1  0.61783779  0.36884871  0.87298395  1
  O  O310  1  0.61994196  0.87001744  0.37066857  1
  O  O311  1  0.62283407  0.86705535  0.87319098  1
  O  O312  1  0.37358018  0.13140039  0.13404520  1
  O  O313  1  0.38016259  0.13141453  0.62956345  1
  O  O314  1  0.37980374  0.63178436  0.12961307  1
  O  O315  1  0.38148958  0.62622315  0.63171620  1
  O  O316  1  0.87887965  0.13445115  0.12855298  1
  O  O317  1  0.87662320  0.12582882  0.63693506  1
  O  O318  1  0.88214162  0.63097193  0.12526325  1
  O  O319  1  0.88029957  0.62964452  0.62983531  1
  O  O320  1  0.25563213  0.25776005  0.11924125  1
  O  O321  1  0.26259205  0.25055696  0.62594605  1
  O  O322  1  0.25564911  0.75559301  0.11966571  1
  O  O323  1  0.24987250  0.75928826  0.61894840  1
  O  O324  1  0.75528475  0.25589394  0.11997405  1
  O  O325  1  0.75093292  0.26219935  0.62300909  1
  O  O326  1  0.75466350  0.75450115  0.11941979  1
  O  O327  1  0.75565069  0.75420354  0.62017107  1
  O  O328  1  0.23623296  0.24884465  0.37611986  1
  O  O329  1  0.25176620  0.24036091  0.87983141  1
  O  O330  1  0.24486887  0.74484991  0.37891789  1
  O  O331  1  0.24439209  0.74400529  0.88022713  1
  O  O332  1  0.73735766  0.25233598  0.37764718  1
  O  O333  1  0.74385207  0.24538091  0.87924393  1
  O  O334  1  0.74361280  0.75013485  0.38282064  1
  O  O335  1  0.74400851  0.74350306  0.88088650  1
  O  O336  1  -0.00072949  0.11382588  -0.00148976  1
  O  O337  1  0.01129460  0.11917881  0.50392983  1
  O  O338  1  0.00552466  0.61977370  0.00560045  1
  O  O339  1  0.00574363  0.62036110  0.50584553  1
  O  O340  1  0.50463924  0.11984012  0.00481660  1
  O  O341  1  0.50705553  0.11875587  0.50514952  1
  O  O342  1  0.50429482  0.62084366  0.00499588  1
  O  O343  1  0.50510367  0.62046170  0.50476983  1
  O  O344  1  0.49693018  0.38329229  0.49163817  1
  O  O345  1  0.49354560  0.38171997  0.99415140  1
  O  O346  1  0.49971105  0.88216753  0.49432588  1
  O  O347  1  0.48979383  0.87847176  0.99524484  1
  O  O348  1  0.98984931  0.38036921  0.50208348  1
  O  O349  1  0.99480817  0.37934159  0.99494196  1
  O  O350  1  0.99646290  0.87804144  0.49515674  1
  O  O351  1  0.99339984  0.88151318  0.99961000  1
  O  O352  1  0.49415802  0.49653184  0.37868152  1
  O  O353  1  0.49465248  0.49609533  0.88002464  1
  O  O354  1  0.49633019  0.99515836  0.37995880  1
  O  O355  1  0.48619626  1.00035333  0.87438433  1
  O  O356  1  0.99105787  0.49715697  0.38208610  1
  O  O357  1  0.99739443  0.49383686  0.88248609  1
  O  O358  1  0.99464876  0.99289600  0.38205958  1
  O  O359  1  0.99587478  0.99493308  0.88550450  1
  O  O360  1  0.00072549  0.00059352  0.11436798  1
  O  O361  1  0.00764433  -0.00055800  0.61849857  1
  O  O362  1  0.00579992  0.50412157  0.11983437  1
  O  O363  1  0.00158074  0.50662582  0.61891442  1
  O  O364  1  0.51330695  0.00040303  0.12439796  1
  O  O365  1  0.50485086  0.00561640  0.62032065  1
  O  O366  1  0.50408185  0.50695123  0.11850634  1
  O  O367  1  0.50456908  0.50535753  0.61904546  1
  O  O368  1  0.24507355  0.38219423  0.24312713  1
  O  O369  1  0.24065769  0.37967651  0.75158970  1
  O  O370  1  0.24578143  0.88032051  0.24533372  1
  O  O371  1  0.24317169  0.87452267  0.73932882  1
  O  O372  1  0.74257797  0.37787633  0.24194540  1
  O  O373  1  0.74999752  0.38066311  0.73907727  1
  O  O374  1  0.74381059  0.87579339  0.24369881  1
  O  O375  1  0.74937742  0.88104488  0.74329552  1
  O  O376  1  0.26040596  0.11992983  0.25147027  1
  O  O377  1  0.25580005  0.12420346  0.76009162  1
  O  O378  1  0.25445879  0.62109294  0.25424058  1
  O  O379  1  0.25457187  0.62029873  0.75605115  1
  O  O380  1  0.75853202  0.12013112  0.25912864  1
  O  O381  1  0.75711728  0.12077340  0.75340725  1
  O  O382  1  0.75504549  0.62015735  0.25383308  1
  O  O383  1  0.75489808  0.62039283  0.75429884  1
  O  O384  1  0.37458792  0.12094677  0.36551898  1
  O  O385  1  0.36745163  0.11826395  0.87068305  1
  O  O386  1  0.36938460  0.62096509  0.36794041  1
  O  O387  1  0.36904124  0.61947604  0.87008520  1
  O  O388  1  0.87859597  0.11163045  0.37758565  1
  O  O389  1  0.86706675  0.12408392  0.86255761  1
  O  O390  1  0.87393151  0.61297794  0.37551363  1
  O  O391  1  0.86723464  0.62402314  0.86866156  1
  O  O392  1  0.13130967  0.38138152  0.12950615  1
  O  O393  1  0.12526160  0.37562622  0.63932227  1
  O  O394  1  0.13253212  0.87544261  0.13332843  1
  O  O395  1  0.13299688  0.87879333  0.62900785  1
  O  O396  1  0.62889710  0.38038461  0.12887826  1
  O  O397  1  0.63400135  0.38108898  0.62307628  1
  O  O398  1  0.63058042  0.88147869  0.13041277  1
  O  O399  1  0.63259986  0.88230485  0.62634562  1
  O  O400  1  0.11966784  0.25446918  0.25664863  1
  O  O401  1  0.11603016  0.25727371  0.75286846  1
  O  O402  1  0.12029576  0.75539065  0.25608034  1
  O  O403  1  0.11937807  0.75314279  0.75490868  1
  O  O404  1  0.62402548  0.25612853  0.25878834  1
  O  O405  1  0.61764367  0.25211746  0.75588792  1
  O  O406  1  0.61912477  0.75559159  0.25498499  1
  O  O407  1  0.61733213  0.74950655  0.75666578  1
  O  O408  1  0.37374713  0.24199894  0.24461106  1
  O  O409  1  0.38122879  0.24447907  0.74163289  1
  O  O410  1  0.38033178  0.74592480  0.24448287  1
  O  O411  1  0.38188627  0.74259166  0.74873306  1
  O  O412  1  0.88588561  0.25353510  0.24664330  1
  O  O413  1  0.88202200  0.24156352  0.74894531  1
  O  O414  1  0.88283512  0.74956972  0.24446977  1
  O  O415  1  0.87983564  0.74366898  0.74383549  1
  O  O416  1  0.38126829  0.50168574  0.49139154  1
  O  O417  1  0.37976306  0.49602966  0.99440417  1
  O  O418  1  0.38241632  1.00060952  0.49302008  1
  O  O419  1  0.37361246  0.99477419  0.99049073  1
  O  O420  1  0.87977730  0.49245619  0.49355043  1
  O  O421  1  0.88137754  0.49270864  0.99933712  1
  O  O422  1  0.88194560  0.99269489  0.49471590  1
  O  O423  1  0.88240447  0.99231942  0.99940150  1
  O  O424  1  0.11305938  -0.00089704  0.00147655  1
  O  O425  1  0.12072761  0.00767325  0.50374544  1
  O  O426  1  0.11962118  0.50517238  0.00513163  1
  O  O427  1  0.11847822  0.50575900  0.50005638  1
  O  O428  1  0.62574316  0.00036819  0.01206950  1
  O  O429  1  0.61995264  0.00558244  0.50509444  1
  O  O430  1  0.61831119  0.50620248  0.00480531  1
  O  O431  1  0.61861163  0.50599757  0.50394017  1
  O  O432  1  0.36913024  0.37230787  0.11938303  1
  O  O433  1  0.37629271  0.36270004  0.62352112  1
  O  O434  1  0.36942717  0.87019726  0.12040801  1
  O  O435  1  0.36296859  0.87497090  0.62367734  1
  O  O436  1  0.86897442  0.36922118  0.11904949  1
  O  O437  1  0.86589359  0.37629564  0.61632093  1
  O  O438  1  0.86951316  0.86756389  0.12033003  1
  O  O439  1  0.87052305  0.86805516  0.61994809  1
  O  O440  1  0.12526497  0.13384450  0.38448230  1
  O  O441  1  0.13803257  0.12492688  0.87604933  1
  O  O442  1  0.13035384  0.63001841  0.37971866  1
  O  O443  1  0.13040932  0.62951658  0.88053374  1
  O  O444  1  0.62395387  0.13470997  0.37936042  1
  O  O445  1  0.63117634  0.13215034  0.87509327  1
  O  O446  1  0.62433763  0.63250390  0.38115854  1
  O  O447  1  0.62999889  0.63032426  0.88136797  1
