# generated using pymatgen
data_V3Zn3O8
_symmetry_space_group_name_H-M   'P 1'
_cell_length_a   17.09001366
_cell_length_b   17.09209675
_cell_length_c   17.09297288
_cell_angle_alpha   89.99067986
_cell_angle_beta   89.99694298
_cell_angle_gamma   89.99751367
_symmetry_Int_Tables_number   1
_chemical_formula_structural   V3Zn3O8
_chemical_formula_sum   'V96 Zn96 O256'
_cell_volume   4992.92852687
_cell_formula_units_Z   32
loop_
 _symmetry_equiv_pos_site_id
 _symmetry_equiv_pos_as_xyz
  1  'x, y, z'
loop_
 _atom_site_type_symbol
 _atom_site_label
 _atom_site_symmetry_multiplicity
 _atom_site_fract_x
 _atom_site_fract_y
 _atom_site_fract_z
 _atom_site_occupancy
  V  V0  1  0.62464108  0.62591897  0.00061163  1
  V  V1  1  0.49975702  0.50097694  0.00148874  1
  V  V2  1  0.87498618  0.75056936  0.12469163  1
  V  V3  1  0.00018745  0.37346170  0.87295388  1
  V  V4  1  0.62348184  0.37581521  0.25002848  1
  V  V5  1  0.74823748  0.12708427  0.87585556  1
  V  V6  1  0.62417246  0.24989057  0.37604291  1
  V  V7  1  0.62616959  -0.00059704  0.62395496  1
  V  V8  1  0.74941062  0.87639281  0.12501468  1
  V  V9  1  0.12532774  0.87537475  0.25011508  1
  V  V10  1  0.50036324  0.00139811  0.50159756  1
  V  V11  1  0.12426769  0.24915144  0.37396393  1
  V  V12  1  0.75073160  -0.00062210  0.74789111  1
  V  V13  1  0.12670787  0.74949750  0.87649657  1
  V  V14  1  0.00051137  0.50029153  0.49967355  1
  V  V15  1  0.12627338  0.87495009  0.75008069  1
  V  V16  1  0.37287745  0.37351119  0.50166425  1
  V  V17  1  0.25030639  0.12459346  0.87509299  1
  V  V18  1  0.37424491  0.37466583  0.00023188  1
  V  V19  1  0.62480444  0.62448638  0.50033212  1
  V  V20  1  0.49974179  0.62524328  0.62578721  1
  V  V21  1  0.37681854  -0.00115018  0.87524365  1
  V  V22  1  0.62537283  0.37647669  0.74956615  1
  V  V23  1  0.87517871  0.00102834  0.87424385  1
  V  V24  1  0.62559625  0.74979456  0.37517562  1
  V  V25  1  0.87317191  0.37669931  -0.00019075  1
  V  V26  1  0.87446665  0.00043801  0.37354556  1
  V  V27  1  0.74998768  0.62461398  0.37534194  1
  V  V28  1  0.25011163  -0.00070532  0.74992622  1
  V  V29  1  0.25070140  0.87437044  0.12593707  1
  V  V30  1  0.87452183  0.87548609  -0.00006973  1
  V  V31  1  0.87537403  0.50000931  0.37553879  1
  V  V32  1  0.12502194  0.12514066  0.49855163  1
  V  V33  1  0.00024409  0.75036818  0.25022687  1
  V  V34  1  0.37497328  0.87456302  0.50120363  1
  V  V35  1  0.25011604  0.24953755  -0.00138405  1
  V  V36  1  0.87620154  0.12567314  0.74855925  1
  V  V37  1  0.87600460  0.25111090  0.62371814  1
  V  V38  1  0.12390664  0.37468914  0.24816225  1
  V  V39  1  0.00169034  0.74912717  0.75045812  1
  V  V40  1  0.25098343  0.00059770  0.25020335  1
  V  V41  1  0.62604022  0.25051937  0.87411327  1
  V  V42  1  0.37546986  0.62461796  0.75075694  1
  V  V43  1  0.74826221  0.50008002  0.25038451  1
  V  V44  1  0.74853226  0.37634978  0.12567735  1
  V  V45  1  0.75163498  0.87527200  0.62547472  1
  V  V46  1  0.12510412  0.62546432  0.00130141  1
  V  V47  1  0.49884008  0.49940021  0.50046423  1
  V  V48  1  0.25104970  0.74927413  0.50107610  1
  V  V49  1  0.25068947  0.74988437  0.00163735  1
  V  V50  1  0.00076272  0.00097983  0.00008716  1
  V  V51  1  0.37452234  0.50098516  0.87573116  1
  V  V52  1  0.37431821  0.00095073  0.37544038  1
  V  V53  1  0.87649972  0.74952609  0.62542857  1
  V  V54  1  0.87605034  0.87455723  0.49969188  1
  V  V55  1  0.37534146  0.12441671  0.24894790  1
  V  V56  1  0.37354068  0.49902567  0.37497686  1
  V  V57  1  0.50109250  0.75057154  0.75030092  1
  V  V58  1  0.12504087  0.00048996  0.12425874  1
  V  V59  1  -0.00080003  0.25006331  0.24847468  1
  V  V60  1  0.37546712  0.24852290  0.12409781  1
  V  V61  1  0.50007940  0.74901268  0.25119389  1
  V  V62  1  0.87538915  0.62451637  0.75105614  1
  V  V63  1  0.12558247  -0.00037870  0.62503954  1
  V  V64  1  0.25021924  0.49983937  0.25067045  1
  V  V65  1  0.49811735  0.24886447  0.24965155  1
  V  V66  1  0.74986858  0.25151341  0.50018644  1
  V  V67  1  0.12403556  0.49984358  0.12498828  1
  V  V68  1  0.62696977  0.87820879  0.24956284  1
  V  V69  1  0.24893757  0.24977019  0.50014262  1
  V  V70  1  -0.00105443  0.37570270  0.37503886  1
  V  V71  1  0.37560034  0.12507951  0.74963331  1
  V  V72  1  0.75058687  0.74951803  0.50057578  1
  V  V73  1  0.24805873  0.49855639  0.74930919  1
  V  V74  1  0.74987566  0.50099449  0.74998497  1
  V  V75  1  -0.00011103  0.62486253  0.12514664  1
  V  V76  1  0.87409583  0.62561005  0.24986528  1
  V  V77  1  -0.00018601  0.12475511  0.62442916  1
  V  V78  1  0.00065596  0.87517203  0.87539707  1
  V  V79  1  0.62524224  0.49965388  0.62588384  1
  V  V80  1  0.50124511  0.87615879  0.87572166  1
  V  V81  1  0.87424964  0.50049289  0.87501940  1
  V  V82  1  0.37379960  0.24991512  0.62555448  1
  V  V83  1  0.49836005  0.37386658  0.37542222  1
  V  V84  1  0.00146425  0.62344491  0.62494945  1
  V  V85  1  0.00003007  0.87529591  0.37473602  1
  V  V86  1  0.50076630  0.37555668  0.87539564  1
  V  V87  1  0.49931851  0.25021598  0.74942212  1
  V  V88  1  0.75079119  0.12413338  0.37326703  1
  V  V89  1  0.74960033  0.75002800  -0.00114816  1
  V  V90  1  0.12517524  0.62434839  0.50055479  1
  V  V91  1  0.37603329  0.74958536  0.12674029  1
  V  V92  1  0.12544631  0.12495025  -0.00111850  1
  V  V93  1  0.87388281  0.24976039  0.12520453  1
  V  V94  1  0.12527593  0.74968515  0.37589831  1
  V  V95  1  0.00095332  -0.00044404  0.49913085  1
  Zn  Zn96  1  0.25026551  0.62547583  0.87605896  1
  Zn  Zn97  1  0.62748857  0.75160064  0.87470150  1
  Zn  Zn98  1  0.50165402  0.12578447  0.62548582  1
  Zn  Zn99  1  0.24570158  0.37403201  0.62609561  1
  Zn  Zn100  1  0.74691866  0.25154713  0.00055720  1
  Zn  Zn101  1  0.00021127  0.50018583  -0.00030907  1
  Zn  Zn102  1  0.62359656  0.12551515  0.50137787  1
  Zn  Zn103  1  0.62221585  0.50002635  0.12605493  1
  Zn  Zn104  1  0.24831412  0.37406122  0.12244038  1
  Zn  Zn105  1  0.50377019  0.12143809  0.12385751  1
  Zn  Zn106  1  0.12449842  0.24994716  0.87282554  1
  Zn  Zn107  1  0.62609580  0.00329055  0.11969930  1
  Zn  Zn108  1  0.12444674  0.37235380  0.74841698  1
  Zn  Zn109  1  0.87620396  0.12287061  0.24776659  1
  Zn  Zn110  1  0.50156711  0.00184317  0.00300275  1
  Zn  Zn111  1  0.12460074  0.49683436  0.62541686  1
  Zn  Zn112  1  0.62702178  0.87389477  0.74979720  1
  Zn  Zn113  1  0.25022391  0.87474416  0.62618646  1
  Zn  Zn114  1  0.25136439  0.62421897  0.37612536  1
  Zn  Zn115  1  0.37473774  0.74949154  0.62513410  1
  Zn  Zn116  1  0.75056986  0.37598765  0.62439896  1
  Zn  Zn117  1  0.49926996  0.62262983  0.12636614  1
  Zn  Zn118  1  -0.00120019  0.12528117  0.12430625  1
  Zn  Zn119  1  0.00362967  0.25006350  0.74895921  1
  Zn  Zn120  1  0.87524685  0.37704395  0.50004106  1
  Zn  Zn121  1  0.50245943  0.87509747  0.37649639  1
  Zn  Zn122  1  0.37702504  0.87583132  0.00081828  1
  Zn  Zn123  1  0.75113604  0.00174448  0.24723994  1
  Zn  Zn124  1  0.24888674  0.12525282  0.37396271  1
  Zn  Zn125  1  0.62165086  0.12583033  0.00234081  1
  Zn  Zn126  1  0.75058004  0.62724568  0.87489314  1
  Zn  Zn127  1  0.37508580  0.62420010  0.25258139  1
  Zn  Zn128  1  0.18888345  0.18636975  0.18495266  1
  Zn  Zn129  1  0.18682196  0.18842406  0.68864210  1
  Zn  Zn130  1  0.18815432  0.68549684  0.18828686  1
  Zn  Zn131  1  0.18806716  0.68496253  0.68714936  1
  Zn  Zn132  1  0.68600676  0.18903685  0.18784559  1
  Zn  Zn133  1  0.68640780  0.18580438  0.68713908  1
  Zn  Zn134  1  0.68688460  0.68840932  0.18507333  1
  Zn  Zn135  1  0.68748215  0.68650208  0.68763181  1
  Zn  Zn136  1  0.31079821  0.31230418  0.31232273  1
  Zn  Zn137  1  0.31272995  0.31299641  0.81386944  1
  Zn  Zn138  1  0.31285503  0.81449054  0.31502316  1
  Zn  Zn139  1  0.31396101  0.81215449  0.81373562  1
  Zn  Zn140  1  0.81257614  0.31362484  0.31160295  1
  Zn  Zn141  1  0.81298724  0.31363682  0.81019522  1
  Zn  Zn142  1  0.81183696  0.81269906  0.31250885  1
  Zn  Zn143  1  0.81341617  0.81207179  0.81318744  1
  Zn  Zn144  1  0.18604266  0.43553749  0.43733265  1
  Zn  Zn145  1  0.18671321  0.43775350  0.93636324  1
  Zn  Zn146  1  0.18872486  0.93718745  0.43700779  1
  Zn  Zn147  1  0.18974880  0.93676496  0.93851195  1
  Zn  Zn148  1  0.68658909  0.43660863  0.43732167  1
  Zn  Zn149  1  0.68776629  0.43980682  0.93775195  1
  Zn  Zn150  1  0.68779505  0.93707152  0.43742062  1
  Zn  Zn151  1  0.68471088  0.93914464  0.93693466  1
  Zn  Zn152  1  0.31591225  0.06205151  0.06122530  1
  Zn  Zn153  1  0.31115419  0.06494275  0.56432121  1
  Zn  Zn154  1  0.31186010  0.56367591  0.06453721  1
  Zn  Zn155  1  0.31258225  0.56223401  0.56488606  1
  Zn  Zn156  1  0.81001865  0.06221072  0.06159515  1
  Zn  Zn157  1  0.81312035  0.06364750  0.56017645  1
  Zn  Zn158  1  0.81096154  0.56170586  0.06214676  1
  Zn  Zn159  1  0.81324629  0.56281366  0.56382226  1
  Zn  Zn160  1  0.43611435  0.43512433  0.18560149  1
  Zn  Zn161  1  0.43551803  0.43659245  0.68744349  1
  Zn  Zn162  1  0.44073479  0.93770772  0.18761460  1
  Zn  Zn163  1  0.43731459  0.93705899  0.68705973  1
  Zn  Zn164  1  0.93657881  0.43768244  0.18752151  1
  Zn  Zn165  1  0.93712135  0.43741106  0.68741947  1
  Zn  Zn166  1  0.93718029  0.93845444  0.18729832  1
  Zn  Zn167  1  0.93877174  0.93765168  0.68777455  1
  Zn  Zn168  1  0.06139121  0.06442764  0.31030432  1
  Zn  Zn169  1  0.06319443  0.06333514  0.81197852  1
  Zn  Zn170  1  0.06337747  0.56330886  0.31324300  1
  Zn  Zn171  1  0.06319681  0.56114674  0.81473019  1
  Zn  Zn172  1  0.56117804  0.06350234  0.31475568  1
  Zn  Zn173  1  0.56379088  0.06196961  0.81003327  1
  Zn  Zn174  1  0.56153781  0.56199067  0.31385268  1
  Zn  Zn175  1  0.56311608  0.56380901  0.81540434  1
  Zn  Zn176  1  0.43464528  0.18611307  0.43701004  1
  Zn  Zn177  1  0.43894222  0.18611152  0.93784816  1
  Zn  Zn178  1  0.43712086  0.68551250  0.43574192  1
  Zn  Zn179  1  0.43765218  0.68759314  0.93766878  1
  Zn  Zn180  1  0.93731431  0.18728012  0.43642172  1
  Zn  Zn181  1  0.93630471  0.18944446  0.93898114  1
  Zn  Zn182  1  0.93841590  0.68622513  0.43753209  1
  Zn  Zn183  1  0.93843995  0.68698242  0.93791923  1
  Zn  Zn184  1  0.06151106  0.31266129  0.05962814  1
  Zn  Zn185  1  0.06384050  0.31475148  0.56205576  1
  Zn  Zn186  1  0.06294678  0.81305421  0.06275276  1
  Zn  Zn187  1  0.06376901  0.81254751  0.56348658  1
  Zn  Zn188  1  0.56242218  0.31021121  0.06225152  1
  Zn  Zn189  1  0.56165946  0.31325638  0.56396866  1
  Zn  Zn190  1  0.56323568  0.81343521  0.06272577  1
  Zn  Zn191  1  0.56334688  0.81352709  0.56443965  1
  O  O192  1  0.12363753  0.11732620  0.11698693  1
  O  O193  1  0.11894783  0.11891862  0.61856968  1
  O  O194  1  0.11847179  0.62049780  0.12131535  1
  O  O195  1  0.11778690  0.62324275  0.61803096  1
  O  O196  1  0.62446279  0.12299756  0.12286016  1
  O  O197  1  0.62278537  0.11591610  0.62094030  1
  O  O198  1  0.62284599  0.62361395  0.11331757  1
  O  O199  1  0.61941531  0.61922006  0.61889517  1
  O  O200  1  0.38007449  0.37901605  0.38164223  1
  O  O201  1  0.38216571  0.38113860  0.88107212  1
  O  O202  1  0.37687882  0.88094308  0.38734595  1
  O  O203  1  0.38487533  0.88018867  0.87489085  1
  O  O204  1  0.88111235  0.38241460  0.37536527  1
  O  O205  1  0.88006740  0.38039655  0.87942300  1
  O  O206  1  0.88035179  0.87915104  0.38079421  1
  O  O207  1  0.88127388  0.88118754  0.88025951  1
  O  O208  1  0.25600705  0.00066128  0.36794135  1
  O  O209  1  0.25609819  0.00398447  0.86911349  1
  O  O210  1  0.25435334  0.49888129  0.36614642  1
  O  O211  1  0.25674746  0.50259958  0.86690689  1
  O  O212  1  0.75549900  0.00948143  0.37653867  1
  O  O213  1  0.75640053  0.00746010  0.86769339  1
  O  O214  1  0.75459397  0.50571051  0.37065748  1
  O  O215  1  0.75676767  0.50279528  0.86745966  1
  O  O216  1  0.24389569  0.49840780  0.13520231  1
  O  O217  1  0.24951825  0.49842814  0.63688956  1
  O  O218  1  0.24545900  0.99351684  0.13048449  1
  O  O219  1  0.24280704  0.99877496  0.63185011  1
  O  O220  1  0.74850148  0.49388455  0.13389070  1
  O  O221  1  0.74324424  0.49935291  0.63059641  1
  O  O222  1  0.74875924  0.99131069  0.12820941  1
  O  O223  1  0.74746296  0.99465772  0.62749474  1
  O  O224  1  0.00477129  0.37031327  0.25538629  1
  O  O225  1  -0.00194267  0.37371792  0.76151641  1
  O  O226  1  0.00561325  0.86941942  0.25527602  1
  O  O227  1  0.00561871  0.86936993  0.75585379  1
  O  O228  1  0.50342692  0.36937993  0.25698617  1
  O  O229  1  0.50511090  0.37089504  0.75628421  1
  O  O230  1  0.50911365  0.86420267  0.25361845  1
  O  O231  1  0.50027073  0.86534963  0.75561461  1
  O  O232  1  0.49267541  0.13259823  0.25169633  1
  O  O233  1  0.49317562  0.13233985  0.74918280  1
  O  O234  1  0.50023777  0.63762683  0.24864057  1
  O  O235  1  0.49597257  0.63203828  0.74632041  1
  O  O236  1  0.99657511  0.13410875  0.24542543  1
  O  O237  1  0.99332626  0.12495058  0.74219371  1
  O  O238  1  0.99406727  0.63136827  0.24552420  1
  O  O239  1  0.99581813  0.63043722  0.74513449  1
  O  O240  1  0.36989865  0.25546634  0.00395345  1
  O  O241  1  0.36921829  0.25407373  0.50493074  1
  O  O242  1  0.37040632  0.75107438  0.01100118  1
  O  O243  1  0.36832051  0.75737024  0.49902507  1
  O  O244  1  0.87155887  0.25723693  0.01040411  1
  O  O245  1  0.86677381  0.25010478  0.50728639  1
  O  O246  1  0.87100710  0.75601280  0.00563849  1
  O  O247  1  0.87057439  0.75443463  0.50526850  1
  O  O248  1  0.12867646  0.24421921  0.49381547  1
  O  O249  1  0.13154324  0.24286546  0.99748343  1
  O  O250  1  0.13250959  0.74621398  0.49551319  1
  O  O251  1  0.13050734  0.74565362  0.99654438  1
  O  O252  1  0.63362723  0.24943040  0.49531842  1
  O  O253  1  0.62851616  0.24897649  0.98884830  1
  O  O254  1  0.63078047  0.74463192  0.49584228  1
  O  O255  1  0.63076257  0.74203785  0.99961176  1
  O  O256  1  0.49244214  0.25010869  0.13356626  1
  O  O257  1  0.49305099  0.24904669  0.63163444  1
  O  O258  1  0.49166452  0.75132077  0.13476797  1
  O  O259  1  0.49967591  0.74424562  0.63389402  1
  O  O260  1  0.98878863  0.25125294  0.12925976  1
  O  O261  1  0.98948667  0.24327923  0.62180247  1
  O  O262  1  0.99459284  0.74587293  0.13138768  1
  O  O263  1  0.99563318  0.74460549  0.63060047  1
  O  O264  1  0.00425187  0.25564902  0.36908613  1
  O  O265  1  -0.00242384  0.26091134  0.87259472  1
  O  O266  1  0.00470966  0.75589292  0.36979581  1
  O  O267  1  0.00596774  0.75608643  0.86991854  1
  O  O268  1  0.50409329  0.25502536  0.37125285  1
  O  O269  1  0.50527860  0.25693266  0.86803461  1
  O  O270  1  0.50636710  0.75092348  0.36727120  1
  O  O271  1  0.49933304  0.75808587  0.86515110  1
  O  O272  1  0.24234366  0.13109206  0.49743260  1
  O  O273  1  0.24549073  0.12915170  0.99385566  1
  O  O274  1  0.24557671  0.63381731  0.49926597  1
  O  O275  1  0.24288620  0.63266234  1.00067335  1
  O  O276  1  0.74975407  0.13482699  0.48991958  1
  O  O277  1  0.75143267  0.12731400  0.98358146  1
  O  O278  1  0.74464540  0.63024996  0.49515930  1
  O  O279  1  0.74177966  0.63136553  0.99993625  1
  O  O280  1  0.25675712  0.36854410  -0.00102238  1
  O  O281  1  0.25591627  0.36778103  0.50072680  1
  O  O282  1  0.25156530  0.86735800  0.00870548  1
  O  O283  1  0.25773915  0.86661684  0.50103093  1
  O  O284  1  0.75556124  0.37479193  0.00712142  1
  O  O285  1  0.75199497  0.36289463  0.50043165  1
  O  O286  1  0.75598726  0.87019236  0.00436437  1
  O  O287  1  0.75703851  0.86878310  0.50493448  1
  O  O288  1  0.13145692  0.49507482  0.24602051  1
  O  O289  1  0.13716046  0.50016987  0.75018624  1
  O  O290  1  0.12967660  0.99424605  0.24473097  1
  O  O291  1  0.13010967  0.99435585  0.74497576  1
  O  O292  1  0.63034375  0.49386231  0.25053663  1
  O  O293  1  0.62930020  0.49657559  0.74535652  1
  O  O294  1  0.62626281  0.98554677  0.25458856  1
  O  O295  1  0.63361461  0.99773356  0.74134052  1
  O  O296  1  0.37032545  0.00304771  0.25605215  1
  O  O297  1  0.36941594  0.00473558  0.75412847  1
  O  O298  1  0.36556692  0.49810123  0.25512069  1
  O  O299  1  0.36906885  0.50498269  0.75596185  1
  O  O300  1  0.87237943  0.00153130  0.25793479  1
  O  O301  1  0.87093867  0.00555670  0.75441370  1
  O  O302  1  0.86897694  0.50669374  0.25598842  1
  O  O303  1  0.86919878  0.50606147  0.75417982  1
  O  O304  1  0.11760402  0.36868267  0.36821062  1
  O  O305  1  0.11162449  0.37425471  0.87453228  1
  O  O306  1  0.11915316  0.86972242  0.36996559  1
  O  O307  1  0.11966997  0.86981033  0.87014717  1
  O  O308  1  0.61808764  0.36947206  0.37035410  1
  O  O309  1  0.61998978  0.37130604  0.86858672  1
  O  O310  1  0.62635940  0.86682618  0.36695510  1
  O  O311  1  0.61477932  0.87231961  0.86925505  1
  O  O312  1  0.37591326  0.13148725  0.13275670  1
  O  O313  1  0.37710778  0.13165083  0.63244018  1
  O  O314  1  0.37630950  0.63848693  0.13034657  1
  O  O315  1  0.38372581  0.62665102  0.63146038  1
  O  O316  1  0.87359788  0.13762018  0.12520302  1
  O  O317  1  0.87981869  0.13188297  0.62782895  1
  O  O318  1  0.87918070  0.63117044  0.13092450  1
  O  O319  1  0.88154755  0.63129424  0.63068708  1
  O  O320  1  0.25691894  0.25159568  0.11672613  1
  O  O321  1  0.25646257  0.25027713  0.61809375  1
  O  O322  1  0.25740877  0.75481199  0.12354804  1
  O  O323  1  0.25146199  0.75188496  0.61240644  1
  O  O324  1  0.75912380  0.25811951  0.12583444  1
  O  O325  1  0.75819273  0.24808474  0.61563927  1
  O  O326  1  0.75694877  0.75612579  0.11932036  1
  O  O327  1  0.75673175  0.75415272  0.61969739  1
  O  O328  1  0.24161716  0.24881066  0.38109473  1
  O  O329  1  0.25066760  0.24184397  0.88157326  1
  O  O330  1  0.24481927  0.74997208  0.38581652  1
  O  O331  1  0.24420093  0.74919591  0.88273087  1
  O  O332  1  0.74621129  0.24402095  0.38206381  1
  O  O333  1  0.74582903  0.24145889  0.87210748  1
  O  O334  1  0.74625778  0.74357892  0.38144145  1
  O  O335  1  0.74876463  0.74824521  0.88279396  1
  O  O336  1  0.00571388  0.11800527  0.00020642  1
  O  O337  1  0.00497246  0.11833149  0.50428689  1
  O  O338  1  0.00648308  0.62503855  0.00832565  1
  O  O339  1  0.00533628  0.62052259  0.50509228  1
  O  O340  1  0.50265577  0.12184852  0.00294003  1
  O  O341  1  0.49956256  0.11216042  0.50152352  1
  O  O342  1  0.50819303  0.62043559  0.00183607  1
  O  O343  1  0.50574642  0.61929344  0.50495305  1
  O  O344  1  0.49372317  0.38014754  0.49462490  1
  O  O345  1  0.49466751  0.38066577  0.99390353  1
  O  O346  1  0.49203527  0.88271621  0.49970329  1
  O  O347  1  0.49912508  0.87337647  0.98601624  1
  O  O348  1  0.99832390  0.38207656  0.49171211  1
  O  O349  1  0.99175482  0.37705607  0.99042907  1
  O  O350  1  0.99547356  0.87952463  0.49431022  1
  O  O351  1  0.99461853  0.88022480  0.99452133  1
  O  O352  1  0.49444301  0.49366267  0.38115876  1
  O  O353  1  0.49436014  0.49459994  0.88083573  1
  O  O354  1  0.49413804  0.99718315  0.38591293  1
  O  O355  1  0.49464447  0.98882536  0.86895293  1
  O  O356  1  0.99436406  0.49608910  0.37924419  1
  O  O357  1  0.99237952  0.49129975  0.87656669  1
  O  O358  1  0.99549650  0.99414536  0.37997162  1
  O  O359  1  0.99470467  0.99438390  0.87971977  1
  O  O360  1  0.00646724  0.00041428  0.11772877  1
  O  O361  1  0.00496109  0.00462122  0.61831027  1
  O  O362  1  0.00546083  0.50754004  0.12523333  1
  O  O363  1  -0.00068723  0.50698646  0.61808373  1
  O  O364  1  0.50571323  0.00108889  0.12294326  1
  O  O365  1  0.50578565  -0.00064093  0.61604474  1
  O  O366  1  0.50089598  0.50244709  0.11795135  1
  O  O367  1  0.50512270  0.50514329  0.61978363  1
  O  O368  1  0.24273498  0.38464637  0.24859993  1
  O  O369  1  0.25093711  0.38727828  0.75054082  1
  O  O370  1  0.24420241  0.87996110  0.24574373  1
  O  O371  1  0.24400698  0.88034771  0.74874464  1
  O  O372  1  0.74315272  0.38102579  0.24672016  1
  O  O373  1  0.74301285  0.38256654  0.74729455  1
  O  O374  1  0.74117949  0.87300733  0.24462347  1
  O  O375  1  0.75211675  0.88102188  0.74271429  1
  O  O376  1  0.25623985  0.11742664  0.25114237  1
  O  O377  1  0.25561132  0.11839451  0.75558239  1
  O  O378  1  0.25010452  0.61187198  0.25331208  1
  O  O379  1  0.25706543  0.61704979  0.75182376  1
  O  O380  1  0.75174823  0.12559143  0.26427306  1
  O  O381  1  0.75676008  0.11955463  0.75666937  1
  O  O382  1  0.75443225  0.62117820  0.25560733  1
  O  O383  1  0.75744968  0.61972451  0.75076896  1
  O  O384  1  0.37158302  0.11796306  0.36774645  1
  O  O385  1  0.36955425  0.11857205  0.86815385  1
  O  O386  1  0.37217673  0.61505038  0.37240437  1
  O  O387  1  0.37418142  0.61846186  0.86888701  1
  O  O388  1  0.86630206  0.11963884  0.37432339  1
  O  O389  1  0.86792774  0.12091552  0.86885885  1
  O  O390  1  0.86941268  0.62073330  0.36908556  1
  O  O391  1  0.87582435  0.61899640  0.86820440  1
  O  O392  1  0.12476920  0.38140378  0.13059977  1
  O  O393  1  0.12752654  0.37939082  0.62979816  1
  O  O394  1  0.13041717  0.88007822  0.13140357  1
  O  O395  1  0.12544419  0.88184624  0.63211824  1
  O  O396  1  0.63061773  0.37543531  0.13292799  1
  O  O397  1  0.62589945  0.38243158  0.63170069  1
  O  O398  1  0.63164813  0.87284740  0.13585307  1
  O  O399  1  0.63444065  0.88088877  0.62631959  1
  O  O400  1  0.11980419  0.25508726  0.25316048  1
  O  O401  1  0.12106927  0.25285280  0.75498047  1
  O  O402  1  0.12014550  0.75553155  0.25535243  1
  O  O403  1  0.12075788  0.75457724  0.75558576  1
  O  O404  1  0.61861747  0.25678388  0.25784193  1
  O  O405  1  0.61970856  0.25657888  0.75365062  1
  O  O406  1  0.61854525  0.75663371  0.25459780  1
  O  O407  1  0.61299875  0.74955180  0.75137282  1
  O  O408  1  0.37859268  0.24525960  0.24529990  1
  O  O409  1  0.38001948  0.24510765  0.74563886  1
  O  O410  1  0.38338560  0.75106237  0.24556958  1
  O  O411  1  0.38449788  0.74429851  0.74779936  1
  O  O412  1  0.88030132  0.25146876  0.23987964  1
  O  O413  1  0.87488484  0.24416083  0.73702219  1
  O  O414  1  0.88029132  0.74529182  0.24509847  1
  O  O415  1  0.88246975  0.74533294  0.74460552  1
  O  O416  1  0.37998349  0.49397322  0.49558769  1
  O  O417  1  0.37915450  0.49587945  0.99574485  1
  O  O418  1  0.38061454  0.99328658  0.49732195  1
  O  O419  1  0.37784164  0.99534509  0.99007882  1
  O  O420  1  0.88111936  0.50042278  0.49299311  1
  O  O421  1  0.87602296  0.49445036  0.99369738  1
  O  O422  1  0.88144090  0.99378525  0.49438769  1
  O  O423  1  0.88024275  0.99470117  0.99364790  1
  O  O424  1  0.12047534  0.00394909  0.00509690  1
  O  O425  1  0.11983518  0.00407941  0.50430935  1
  O  O426  1  0.12411709  0.50718662  0.00728975  1
  O  O427  1  0.11847510  0.50708545  0.49947067  1
  O  O428  1  0.62147972  0.00563353  0.00033834  1
  O  O429  1  0.61553516  -0.00128845  0.50445287  1
  O  O430  1  0.61867010  0.50894586  0.00149290  1
  O  O431  1  0.61884907  0.50486647  0.50449685  1
  O  O432  1  0.37208810  0.36698557  0.11701210  1
  O  O433  1  0.37299160  0.36770198  0.61825805  1
  O  O434  1  0.36962973  0.86377857  0.12664878  1
  O  O435  1  0.37255754  0.87251226  0.61206396  1
  O  O436  1  0.86912868  0.36869466  0.12092034  1
  O  O437  1  0.87282496  0.36343238  0.62186420  1
  O  O438  1  0.87046391  0.86939060  0.11929001  1
  O  O439  1  0.87207761  0.86916924  0.61895797  1
  O  O440  1  0.12468143  0.13140673  0.38106559  1
  O  O441  1  0.13252409  0.12376991  0.88171792  1
  O  O442  1  0.12618935  0.63310317  0.38235228  1
  O  O443  1  0.12544658  0.63277211  0.88294890  1
  O  O444  1  0.63412933  0.13115396  0.37835000  1
  O  O445  1  0.63636400  0.13188393  0.86928786  1
  O  O446  1  0.63068985  0.62982625  0.38117691  1
  O  O447  1  0.62691292  0.62790688  0.88829508  1
