# generated using pymatgen
data_V3Zn3O8
_symmetry_space_group_name_H-M   'P 1'
_cell_length_a   17.08977253
_cell_length_b   17.08905169
_cell_length_c   17.08861720
_cell_angle_alpha   89.99791765
_cell_angle_beta   89.99861767
_cell_angle_gamma   90.00130431
_symmetry_Int_Tables_number   1
_chemical_formula_structural   V3Zn3O8
_chemical_formula_sum   'V96 Zn96 O256'
_cell_volume   4990.69657446
_cell_formula_units_Z   32
loop_
 _symmetry_equiv_pos_site_id
 _symmetry_equiv_pos_as_xyz
  1  'x, y, z'
loop_
 _atom_site_type_symbol
 _atom_site_label
 _atom_site_symmetry_multiplicity
 _atom_site_fract_x
 _atom_site_fract_y
 _atom_site_fract_z
 _atom_site_occupancy
  V  V0  1  0.62513531  0.25223230  0.37515184  1
  V  V1  1  0.37548379  0.74974349  0.62546044  1
  V  V2  1  0.50006640  0.37534630  0.87682429  1
  V  V3  1  0.37311160  0.50118195  0.87552010  1
  V  V4  1  -0.00106528  0.87564563  0.37529606  1
  V  V5  1  0.75057948  0.12351884  0.87429096  1
  V  V6  1  -0.00079435  0.75051393  0.24967825  1
  V  V7  1  -0.00071283  0.24862059  0.74838837  1
  V  V8  1  0.74879190  0.50019432  0.75056581  1
  V  V9  1  0.24808541  0.49991516  0.25011449  1
  V  V10  1  0.49873338  0.50015702  0.49982117  1
  V  V11  1  0.87517532  -0.00181960  0.87447775  1
  V  V12  1  0.12475384  -0.00021178  0.12418509  1
  V  V13  1  0.24998187  0.37371093  0.12565088  1
  V  V14  1  0.50037308  0.87497684  0.87468334  1
  V  V15  1  0.75081029  0.12548717  0.37411597  1
  V  V16  1  0.62599521  0.12521698  0.50033160  1
  V  V17  1  0.50025464  0.62538826  0.12609155  1
  V  V18  1  0.75090749  0.87328159  0.62421207  1
  V  V19  1  0.37380700  0.50054039  0.37662871  1
  V  V20  1  0.25055012  0.00135716  0.24959364  1
  V  V21  1  0.87443260  0.62434971  0.75001077  1
  V  V22  1  0.62603840  -0.00041439  0.62391227  1
  V  V23  1  0.12528091  0.75072828  0.37577225  1
  V  V24  1  0.62458423  0.87382496  0.74963888  1
  V  V25  1  0.87512193  0.24997897  0.62405463  1
  V  V26  1  0.00064580  0.62366198  0.12380947  1
  V  V27  1  0.87552717  0.87339269  0.50102779  1
  V  V28  1  0.75071585  0.25065456  0.50024958  1
  V  V29  1  0.62412408  0.50059421  0.62564013  1
  V  V30  1  0.87473308  0.87440731  -0.00035262  1
  V  V31  1  0.62555797  0.37580358  0.75018345  1
  V  V32  1  0.37502969  0.87618645  0.49963224  1
  V  V33  1  0.50001842  0.12638091  0.12562583  1
  V  V34  1  0.00129314  0.00053282  0.50093714  1
  V  V35  1  -0.00077409  0.12488644  0.12462202  1
  V  V36  1  0.12452650  0.25085276  0.37437376  1
  V  V37  1  0.87299982  0.62464625  0.25104077  1
  V  V38  1  0.62480083  0.87595688  0.24990764  1
  V  V39  1  -0.00031387  -0.00196168  -0.00167532  1
  V  V40  1  0.25059225  0.12496021  0.87438702  1
  V  V41  1  0.25110369  0.12569993  0.37431642  1
  V  V42  1  0.62454366  0.62610797  0.49936503  1
  V  V43  1  0.87410174  0.50010300  0.37469176  1
  V  V44  1  0.12511435  0.87253757  0.75153557  1
  V  V45  1  0.24966374  0.87498360  0.12393827  1
  V  V46  1  -0.00021017  0.50008681  0.50056281  1
  V  V47  1  0.62375743  0.74971469  0.87501145  1
  V  V48  1  0.74953983  0.74969647  -0.00014954  1
  V  V49  1  0.74994100  0.00104984  0.25059400  1
  V  V50  1  0.12451228  0.50021549  0.62464929  1
  V  V51  1  0.00054073  0.24934671  0.24959045  1
  V  V52  1  0.87517279  0.37488935  0.49957078  1
  V  V53  1  0.25074537  0.87622813  0.62480032  1
  V  V54  1  0.00115278  0.49890595  -0.00040039  1
  V  V55  1  0.12373120  0.87613843  0.24966879  1
  V  V56  1  0.49879322  0.75112767  0.24941112  1
  V  V57  1  0.50044302  0.25232663  0.25013104  1
  V  V58  1  -0.00032151  0.62451344  0.62665560  1
  V  V59  1  0.37668530  0.00004246  0.87455519  1
  V  V60  1  0.25097616  0.00005743  0.74893443  1
  V  V61  1  0.74906382  0.62485256  0.87534700  1
  V  V62  1  0.49987654  0.00000940  -0.00056391  1
  V  V63  1  0.62471798  0.00059643  0.12479966  1
  V  V64  1  0.50025668  0.24988379  0.75039939  1
  V  V65  1  0.74982505  0.87466253  0.12457652  1
  V  V66  1  0.37584386  0.25047373  0.62541563  1
  V  V67  1  0.37563745  0.37601412  0.49996894  1
  V  V68  1  0.49992028  0.87616002  0.37424454  1
  V  V69  1  0.62522896  0.24973605  0.87472382  1
  V  V70  1  0.37476368  0.00149587  0.37403512  1
  V  V71  1  0.24848496  0.62588565  0.37529075  1
  V  V72  1  0.75131307  -0.00099304  0.74999156  1
  V  V73  1  0.37436075  0.75175288  0.12534440  1
  V  V74  1  0.87482170  0.12481311  0.24975802  1
  V  V75  1  0.12489008  0.12349778  -0.00091053  1
  V  V76  1  0.37597441  0.12612384  0.74926092  1
  V  V77  1  0.49795525  0.62598066  0.62639165  1
  V  V78  1  0.25045341  0.24998880  0.49900025  1
  V  V79  1  0.12507338  0.24863954  0.87400658  1
  V  V80  1  0.62545823  0.12496826  -0.00040109  1
  V  V81  1  -0.00031778  0.37369009  0.87512899  1
  V  V82  1  0.12490283  0.37407406  0.74925501  1
  V  V83  1  0.24803570  0.74732836  -0.00135520  1
  V  V84  1  0.24929050  0.75140344  0.49893540  1
  V  V85  1  0.50147105  0.00114432  0.49959592  1
  V  V86  1  0.62482138  0.74985527  0.37613497  1
  V  V87  1  0.87580723  0.74918177  0.62629837  1
  V  V88  1  0.25007662  0.37519407  0.62489251  1
  V  V89  1  0.25079628  0.24976230  0.00105053  1
  V  V90  1  0.50058958  0.50018571  0.00245169  1
  V  V91  1  0.25049967  0.50014562  0.75118474  1
  V  V92  1  0.00036324  0.12493463  0.62434272  1
  V  V93  1  0.75090549  0.24984116  -0.00025608  1
  V  V94  1  0.87563236  0.37289626  -0.00095740  1
  V  V95  1  0.74889680  0.37691629  0.12591919  1
  Zn  Zn96  1  0.87397495  0.49919935  0.87336150  1
  Zn  Zn97  1  0.12641711  0.00155611  0.62532029  1
  Zn  Zn98  1  0.87560489  0.24969330  0.12534125  1
  Zn  Zn99  1  0.12319079  0.74570190  0.87526020  1
  Zn  Zn100  1  0.50152503  0.12558680  0.62494808  1
  Zn  Zn101  1  0.24700177  0.62465558  0.87446420  1
  Zn  Zn102  1  0.74744990  0.50052454  0.24921112  1
  Zn  Zn103  1  0.75087868  0.74811978  0.49861256  1
  Zn  Zn104  1  0.87429408  -0.00051170  0.37534693  1
  Zn  Zn105  1  0.74769374  0.62596940  0.37528912  1
  Zn  Zn106  1  0.12501850  0.62410263  -0.00265056  1
  Zn  Zn107  1  0.74955667  0.37524502  0.62528189  1
  Zn  Zn108  1  0.62653443  0.62498536  0.00106063  1
  Zn  Zn109  1  0.00057844  0.37554850  0.37232113  1
  Zn  Zn110  1  0.50186283  0.37694140  0.37434499  1
  Zn  Zn111  1  0.62610768  0.37942979  0.25244244  1
  Zn  Zn112  1  0.62519428  0.50076502  0.12890849  1
  Zn  Zn113  1  0.87357231  0.74987894  0.12453926  1
  Zn  Zn114  1  0.00167112  0.74823777  0.75359880  1
  Zn  Zn115  1  0.12646675  0.12462841  0.50144607  1
  Zn  Zn116  1  0.12410936  0.62625109  0.50143529  1
  Zn  Zn117  1  0.37559892  0.37242889  0.00217287  1
  Zn  Zn118  1  0.37519538  0.24829460  0.12532271  1
  Zn  Zn119  1  0.37544723  0.12637370  0.24904591  1
  Zn  Zn120  1  0.49781741  0.74865005  0.75129750  1
  Zn  Zn121  1  0.37358395  0.62688109  0.25180382  1
  Zn  Zn122  1  0.37389098  0.62712405  0.75108622  1
  Zn  Zn123  1  0.37468526  0.87502134  -0.00153524  1
  Zn  Zn124  1  0.87546405  0.12367510  0.74939120  1
  Zn  Zn125  1  0.00100336  0.87120253  0.87487075  1
  Zn  Zn126  1  0.12218260  0.37565798  0.24920784  1
  Zn  Zn127  1  0.12569802  0.49947441  0.12514988  1
  Zn  Zn128  1  0.18665906  0.18679306  0.18777055  1
  Zn  Zn129  1  0.18695331  0.18656488  0.68585853  1
  Zn  Zn130  1  0.18604678  0.68729894  0.18718708  1
  Zn  Zn131  1  0.18950827  0.68602914  0.68759312  1
  Zn  Zn132  1  0.68684900  0.19033319  0.18721707  1
  Zn  Zn133  1  0.68897235  0.18679277  0.68700913  1
  Zn  Zn134  1  0.68617713  0.68903819  0.18765519  1
  Zn  Zn135  1  0.68713918  0.68775172  0.68745662  1
  Zn  Zn136  1  0.31466147  0.31396712  0.31216421  1
  Zn  Zn137  1  0.31353153  0.31399828  0.81346855  1
  Zn  Zn138  1  0.31222850  0.81438032  0.31159437  1
  Zn  Zn139  1  0.31306016  0.81221878  0.81291336  1
  Zn  Zn140  1  0.81410693  0.31243219  0.31151973  1
  Zn  Zn141  1  0.81312267  0.31226682  0.81123234  1
  Zn  Zn142  1  0.81178935  0.81202392  0.31414408  1
  Zn  Zn143  1  0.81246852  0.81098323  0.81277556  1
  Zn  Zn144  1  0.18657106  0.43704062  0.43795239  1
  Zn  Zn145  1  0.18643679  0.43533646  0.93878032  1
  Zn  Zn146  1  0.18653174  0.93819480  0.43666909  1
  Zn  Zn147  1  0.18887759  0.93544095  0.93616440  1
  Zn  Zn148  1  0.68799764  0.43793929  0.43822327  1
  Zn  Zn149  1  0.68680110  0.43832577  0.93840177  1
  Zn  Zn150  1  0.68896854  0.93674884  0.43763545  1
  Zn  Zn151  1  0.68746537  0.93643689  0.93704963  1
  Zn  Zn152  1  0.31457711  0.06351116  0.06255563  1
  Zn  Zn153  1  0.31377821  0.06400398  0.56240317  1
  Zn  Zn154  1  0.31486206  0.56353188  0.06412557  1
  Zn  Zn155  1  0.31106330  0.56455393  0.56236782  1
  Zn  Zn156  1  0.81333654  0.06167404  0.06249200  1
  Zn  Zn157  1  0.81411194  0.06241289  0.56248859  1
  Zn  Zn158  1  0.81497292  0.56111128  0.06040731  1
  Zn  Zn159  1  0.81037256  0.56346069  0.56277305  1
  Zn  Zn160  1  0.43409102  0.43650957  0.18950431  1
  Zn  Zn161  1  0.43782571  0.43790212  0.68874152  1
  Zn  Zn162  1  0.43592897  0.93823729  0.18624355  1
  Zn  Zn163  1  0.43924946  0.93749724  0.68716909  1
  Zn  Zn164  1  0.93592162  0.43579170  0.18679721  1
  Zn  Zn165  1  0.93614993  0.43706373  0.68687325  1
  Zn  Zn166  1  0.93545952  0.93874101  0.18650747  1
  Zn  Zn167  1  0.93898604  0.93595349  0.68769935  1
  Zn  Zn168  1  0.06297886  0.06411085  0.31364133  1
  Zn  Zn169  1  0.06227786  0.05984036  0.81112852  1
  Zn  Zn170  1  0.06243599  0.56362610  0.31342861  1
  Zn  Zn171  1  0.06362680  0.56328967  0.81370365  1
  Zn  Zn172  1  0.56335065  0.06534511  0.31271682  1
  Zn  Zn173  1  0.56351782  0.06198427  0.81109514  1
  Zn  Zn174  1  0.56253531  0.56211598  0.31201331  1
  Zn  Zn175  1  0.56147379  0.56448155  0.81244060  1
  Zn  Zn176  1  0.43851808  0.18774995  0.43658370  1
  Zn  Zn177  1  0.43656804  0.18740223  0.93842225  1
  Zn  Zn178  1  0.43669141  0.68717850  0.43790901  1
  Zn  Zn179  1  0.43590458  0.68775983  0.93918946  1
  Zn  Zn180  1  0.93735360  0.18660103  0.43645020  1
  Zn  Zn181  1  0.93642841  0.18577897  0.93676693  1
  Zn  Zn182  1  0.93875155  0.68724576  0.43914486  1
  Zn  Zn183  1  0.93609619  0.68876226  0.93475080  1
  Zn  Zn184  1  0.06470357  0.31133683  0.06362428  1
  Zn  Zn185  1  0.06167694  0.31320672  0.56026018  1
  Zn  Zn186  1  0.06170148  0.81130913  0.06234400  1
  Zn  Zn187  1  0.06291676  0.81249624  0.56585808  1
  Zn  Zn188  1  0.56453572  0.31309697  0.06381676  1
  Zn  Zn189  1  0.56229603  0.31373334  0.56307429  1
  Zn  Zn190  1  0.56285447  0.81297801  0.06068804  1
  Zn  Zn191  1  0.56186015  0.81194193  0.56241224  1
  O  O192  1  0.11974221  0.11853636  0.11836066  1
  O  O193  1  0.11674441  0.12264977  0.62134214  1
  O  O194  1  0.11032816  0.62211432  0.12461698  1
  O  O195  1  0.11864596  0.61737243  0.62449467  1
  O  O196  1  0.62059079  0.11974193  0.11872554  1
  O  O197  1  0.62509522  0.11767064  0.61804797  1
  O  O198  1  0.61144838  0.62474196  0.12374185  1
  O  O199  1  0.61785218  0.62002829  0.61992457  1
  O  O200  1  0.37595276  0.38282024  0.38303951  1
  O  O201  1  0.38148174  0.38481314  0.87770550  1
  O  O202  1  0.38026014  0.88147053  0.38022965  1
  O  O203  1  0.38210404  0.88310508  0.87543012  1
  O  O204  1  0.87689549  0.38465360  0.38010376  1
  O  O205  1  0.88257497  0.37528441  0.88099726  1
  O  O206  1  0.88205951  0.87626771  0.38162731  1
  O  O207  1  0.87474424  0.88141775  0.88203484  1
  O  O208  1  0.25460523  0.00504675  0.36948848  1
  O  O209  1  0.25670845  0.00624647  0.86961011  1
  O  O210  1  0.25335077  0.50489301  0.36888236  1
  O  O211  1  0.25910846  0.49665286  0.87183317  1
  O  O212  1  0.75021853  0.00694702  0.36818621  1
  O  O213  1  0.75455012  0.00442860  0.86980215  1
  O  O214  1  0.76375932  0.50302821  0.37405943  1
  O  O215  1  0.74970472  0.50653537  0.86918009  1
  O  O216  1  0.24972726  0.49346083  0.13323839  1
  O  O217  1  0.24488847  0.49374697  0.62989849  1
  O  O218  1  0.24384982  0.99554230  0.12878153  1
  O  O219  1  0.25080682  0.99432402  0.63078129  1
  O  O220  1  0.74938530  0.48933958  0.12324791  1
  O  O221  1  0.74151155  0.49898205  0.63235815  1
  O  O222  1  0.74314861  0.99508208  0.13028653  1
  O  O223  1  0.74578365  0.99350864  0.62958090  1
  O  O224  1  0.00264524  0.36648016  0.25118843  1
  O  O225  1  0.00568814  0.36884716  0.75461625  1
  O  O226  1  0.00422412  0.87095909  0.25433851  1
  O  O227  1  0.01304778  0.87367016  0.75012592  1
  O  O228  1  0.50189640  0.36470967  0.25092858  1
  O  O229  1  0.50569732  0.36972667  0.75709763  1
  O  O230  1  0.50568194  0.87132188  0.25450440  1
  O  O231  1  0.50758274  0.87452713  0.75673116  1
  O  O232  1  0.50118660  0.13513131  0.24408661  1
  O  O233  1  0.49430059  0.13203611  0.74926593  1
  O  O234  1  0.49719468  0.63214996  0.24138472  1
  O  O235  1  0.49575960  0.62691420  0.74153390  1
  O  O236  1  0.99510434  0.12869830  0.24422202  1
  O  O237  1  0.99922917  0.13086935  0.74276630  1
  O  O238  1  0.99224406  0.62904316  0.24312986  1
  O  O239  1  0.99256774  0.62354244  0.74339879  1
  O  O240  1  0.36651111  0.25197951  0.00236571  1
  O  O241  1  0.37028613  0.25573772  0.50504012  1
  O  O242  1  0.36562707  0.75210426  0.00743157  1
  O  O243  1  0.36919941  0.75797181  0.50393643  1
  O  O244  1  0.86851722  0.25492990  0.00089216  1
  O  O245  1  0.87022521  0.25508926  0.50364918  1
  O  O246  1  0.86693192  0.75650045  0.00164629  1
  O  O247  1  0.87504699  0.75613163  0.50742480  1
  O  O248  1  0.13145203  0.24975981  0.49055641  1
  O  O249  1  0.13014846  0.24266048  0.99318709  1
  O  O250  1  0.13151533  0.75156593  0.49333245  1
  O  O251  1  0.13674659  0.74878375  1.00100463  1
  O  O252  1  0.63023905  0.24510816  0.49579700  1
  O  O253  1  0.63022344  0.24420446  0.99337479  1
  O  O254  1  0.62418120  0.74416845  0.49318951  1
  O  O255  1  0.63185073  0.74928583  0.99281623  1
  O  O256  1  0.50110585  0.24508707  0.13346160  1
  O  O257  1  0.49368047  0.24936091  0.63251322  1
  O  O258  1  0.49534780  0.74441783  0.12880988  1
  O  O259  1  0.49275199  0.74414842  0.62509191  1
  O  O260  1  1.00052335  0.24180693  0.13087357  1
  O  O261  1  0.99528702  0.24459586  0.62864121  1
  O  O262  1  0.99701847  0.74028535  0.13058989  1
  O  O263  1  0.99370207  0.74247828  0.62811135  1
  O  O264  1  0.00959150  0.24901073  0.36944503  1
  O  O265  1  0.00609409  0.25339973  0.86939507  1
  O  O266  1  0.00540921  0.75581272  0.36969448  1
  O  O267  1  0.00444038  0.75379546  0.87150447  1
  O  O268  1  0.50647023  0.25107521  0.36641773  1
  O  O269  1  0.50569593  0.25514577  0.87077657  1
  O  O270  1  0.50352445  0.75718349  0.36932210  1
  O  O271  1  0.50486677  0.75648115  0.87531176  1
  O  O272  1  0.24933767  0.13215919  0.49303660  1
  O  O273  1  0.24385494  0.12896264  0.99402729  1
  O  O274  1  0.24699888  0.63337326  0.49337551  1
  O  O275  1  0.24802168  0.63503606  1.00299878  1
  O  O276  1  0.74571546  0.13044009  0.49413344  1
  O  O277  1  0.74424326  0.12924135  0.99472126  1
  O  O278  1  0.74006830  0.62723135  0.49757014  1
  O  O279  1  0.74916558  0.63064582  0.99460848  1
  O  O280  1  0.24998238  0.36868352  0.00957094  1
  O  O281  1  0.25598946  0.36977146  0.50610982  1
  O  O282  1  0.25128497  0.86638425  0.00681119  1
  O  O283  1  0.25585437  0.87166251  0.50409559  1
  O  O284  1  0.75501012  0.36976750  0.00519575  1
  O  O285  1  0.75725871  0.36813510  0.50177176  1
  O  O286  1  0.75446743  0.87041930  0.00562815  1
  O  O287  1  0.75767915  0.87414921  0.50664107  1
  O  O288  1  0.13662643  0.49810880  0.25062576  1
  O  O289  1  0.13017801  0.49210215  0.74447188  1
  O  O290  1  0.12983801  0.99536878  0.24436216  1
  O  O291  1  0.13321120  0.99130037  0.74850349  1
  O  O292  1  0.62970378  0.49723058  0.24720057  1
  O  O293  1  0.62865536  0.49500899  0.74552253  1
  O  O294  1  0.62975393  0.99546804  0.24443381  1
  O  O295  1  0.63139586  0.99397550  0.74404479  1
  O  O296  1  0.36841474  0.00075632  0.25685065  1
  O  O297  1  0.37090533  0.00612511  0.75462474  1
  O  O298  1  0.36293441  0.50157787  0.25697810  1
  O  O299  1  0.36905779  0.49830424  0.76060129  1
  O  O300  1  0.86743525  0.00637730  0.25185532  1
  O  O301  1  0.86839513  -0.00045539  0.75581986  1
  O  O302  1  0.87605331  0.50870135  0.25829222  1
  O  O303  1  0.86725808  0.50556373  0.75079001  1
  O  O304  1  0.12442588  0.36187314  0.37332938  1
  O  O305  1  0.11962873  0.36752467  0.86909026  1
  O  O306  1  0.11905491  0.87029416  0.36831568  1
  O  O307  1  0.12618887  0.87298058  0.86278051  1
  O  O308  1  0.62325575  0.36714388  0.37418835  1
  O  O309  1  0.61936763  0.36911515  0.87050549  1
  O  O310  1  0.61875982  0.87111017  0.36923247  1
  O  O311  1  0.62006247  0.87004008  0.86926173  1
  O  O312  1  0.38426428  0.12704434  0.12817491  1
  O  O313  1  0.37719815  0.13273296  0.63164272  1
  O  O314  1  0.38572692  0.63204836  0.12801353  1
  O  O315  1  0.38087039  0.63196008  0.62423478  1
  O  O316  1  0.88155582  0.12561280  0.13099355  1
  O  O317  1  0.88264364  0.13177149  0.62619964  1
  O  O318  1  0.88476896  0.62416172  0.13437277  1
  O  O319  1  0.87977736  0.62926022  0.63055280  1
  O  O320  1  0.24994874  0.25712604  0.12054171  1
  O  O321  1  0.25571047  0.25593605  0.61975037  1
  O  O322  1  0.25392276  0.75526998  0.11982902  1
  O  O323  1  0.25597170  0.75629499  0.61784502  1
  O  O324  1  0.75125577  0.25834689  0.11735453  1
  O  O325  1  0.75659552  0.25081742  0.61794390  1
  O  O326  1  0.75020893  0.75713346  0.11888277  1
  O  O327  1  0.75692277  0.75661112  0.62334199  1
  O  O328  1  0.24388697  0.24590000  0.37880535  1
  O  O329  1  0.24435120  0.24472921  0.87930733  1
  O  O330  1  0.24473687  0.74690726  0.37887853  1
  O  O331  1  0.25198447  0.74795336  0.88795449  1
  O  O332  1  0.74529905  0.24467848  0.38023205  1
  O  O333  1  0.74433535  0.24415326  0.87973085  1
  O  O334  1  0.74032409  0.74798225  0.37705703  1
  O  O335  1  0.74349564  0.74457433  0.88048612  1
  O  O336  1  0.00586901  0.11858924  0.00423562  1
  O  O337  1  0.00044335  0.11561192  0.50504778  1
  O  O338  1  -0.00361087  0.61585704  0.00871075  1
  O  O339  1  0.00139416  0.61789350  0.50808521  1
  O  O340  1  0.50683587  0.12024767  0.00442794  1
  O  O341  1  0.50777346  0.11880955  0.50078238  1
  O  O342  1  0.49969607  0.61727086  0.00977822  1
  O  O343  1  0.50438179  0.61907129  0.50612864  1
  O  O344  1  0.49272884  0.38250336  0.49990820  1
  O  O345  1  0.49868084  0.38367931  0.99633590  1
  O  O346  1  0.49487044  0.88164493  0.49340935  1
  O  O347  1  0.49911414  0.88310846  0.99323655  1
  O  O348  1  0.99258622  0.38219718  0.49695192  1
  O  O349  1  0.99660750  0.38000423  0.99608088  1
  O  O350  1  0.99570197  0.88222541  0.49631446  1
  O  O351  1  0.99349462  0.88146979  1.00033368  1
  O  O352  1  0.49166283  0.50001940  0.38199460  1
  O  O353  1  0.49311590  0.49590054  0.88316275  1
  O  O354  1  0.49586908  0.99532588  0.37943122  1
  O  O355  1  0.49638478  0.99572001  0.88000747  1
  O  O356  1  0.98991731  0.50014130  0.38034440  1
  O  O357  1  0.99911512  0.49193242  0.88394775  1
  O  O358  1  0.99932456  0.99459397  0.38399200  1
  O  O359  1  0.99355803  0.99767977  0.88152403  1
  O  O360  1  0.00605035  0.00505578  0.11896274  1
  O  O361  1  0.00079650  0.00558568  0.61564095  1
  O  O362  1  0.00026521  0.50614678  0.11732028  1
  O  O363  1  0.00521112  0.50425887  0.62017797  1
  O  O364  1  0.50615776  0.00523652  0.11993813  1
  O  O365  1  0.50765661  0.00125191  0.61739505  1
  O  O366  1  0.49626920  0.50796548  0.11858367  1
  O  O367  1  0.50421006  0.50555073  0.61981927  1
  O  O368  1  0.24900083  0.38339967  0.24307660  1
  O  O369  1  0.24398703  0.37909956  0.74441945  1
  O  O370  1  0.24285774  0.88131448  0.24441920  1
  O  O371  1  0.24493791  0.88108741  0.74441582  1
  O  O372  1  0.75182668  0.37600100  0.23746023  1
  O  O373  1  0.74240761  0.38125273  0.74971544  1
  O  O374  1  0.74408925  0.88068313  0.24490309  1
  O  O375  1  0.74411955  0.88016230  0.74415799  1
  O  O376  1  0.25158837  0.11817200  0.25586513  1
  O  O377  1  0.25584361  0.12080111  0.75526817  1
  O  O378  1  0.25012931  0.61629995  0.25493604  1
  O  O379  1  0.25379737  0.61466821  0.75240007  1
  O  O380  1  0.75408407  0.12083349  0.25418365  1
  O  O381  1  0.75094667  0.11716637  0.75669253  1
  O  O382  1  0.76284551  0.62436910  0.24963887  1
  O  O383  1  0.75427455  0.61919731  0.75531427  1
  O  O384  1  0.36897085  0.11832708  0.37360928  1
  O  O385  1  0.36977907  0.12013533  0.86850288  1
  O  O386  1  0.36672070  0.61903713  0.37385913  1
  O  O387  1  0.37354351  0.61095992  0.87529077  1
  O  O388  1  0.86782287  0.12293226  0.36812571  1
  O  O389  1  0.86781565  0.11688217  0.87337389  1
  O  O390  1  0.87607895  0.61777870  0.36635007  1
  O  O391  1  0.86667727  0.62253245  0.86783328  1
  O  O392  1  0.13779908  0.37674400  0.12786486  1
  O  O393  1  0.13038599  0.37943876  0.63005305  1
  O  O394  1  0.12902728  0.88100370  0.13091476  1
  O  O395  1  0.13298950  0.87748722  0.63387752  1
  O  O396  1  0.63786381  0.37704129  0.12558567  1
  O  O397  1  0.62539976  0.38254790  0.63258198  1
  O  O398  1  0.62954918  0.88125689  0.13061464  1
  O  O399  1  0.63063192  0.88013653  0.62914081  1
  O  O400  1  0.11951102  0.24921275  0.25978417  1
  O  O401  1  0.11995102  0.25500392  0.75472334  1
  O  O402  1  0.11904967  0.75685154  0.25512176  1
  O  O403  1  0.12775263  0.76159804  0.75020251  1
  O  O404  1  0.61628714  0.25172921  0.25661670  1
  O  O405  1  0.62053675  0.25483656  0.75563412  1
  O  O406  1  0.61795867  0.75699150  0.25525502  1
  O  O407  1  0.62337610  0.75718530  0.75683612  1
  O  O408  1  0.38751282  0.24812338  0.24956007  1
  O  O409  1  0.38035590  0.24598986  0.74575927  1
  O  O410  1  0.38120095  0.75051933  0.24370541  1
  O  O411  1  0.37627961  0.74838463  0.74109612  1
  O  O412  1  0.88278221  0.24213949  0.24853915  1
  O  O413  1  0.88199633  0.24823749  0.74306257  1
  O  O414  1  0.88106265  0.74048309  0.24979180  1
  O  O415  1  0.87543970  0.74238884  0.74329918  1
  O  O416  1  0.37872946  0.49519663  0.49633316  1
  O  O417  1  0.38463033  0.49788135  0.99331919  1
  O  O418  1  0.38106455  0.99523195  0.49409089  1
  O  O419  1  0.38210980  1.00002549  0.99217041  1
  O  O420  1  0.87949808  0.49633830  0.49295899  1
  O  O421  1  0.88681253  0.49242193  0.99725278  1
  O  O422  1  0.88583923  0.99338999  0.49909897  1
  O  O423  1  0.87988445  0.99413866  0.99455780  1
  O  O424  1  0.12055112  0.00430469  0.00438760  1
  O  O425  1  0.11295350  0.00032971  0.50122837  1
  O  O426  1  0.11181986  0.49961309  0.00246325  1
  O  O427  1  0.11843861  0.50049374  0.50678482  1
  O  O428  1  0.62008164  0.00562632  0.00520408  1
  O  O429  1  0.62094745  0.00508043  0.50438530  1
  O  O430  1  0.61026898  0.50239288  0.00208386  1
  O  O431  1  0.61854890  0.50552855  0.50538370  1
  O  O432  1  0.36139514  0.37218139  0.12400835  1
  O  O433  1  0.36926290  0.37002626  0.62047854  1
  O  O434  1  0.36743135  0.86991891  0.12273227  1
  O  O435  1  0.37040885  0.87080809  0.61858676  1
  O  O436  1  0.86620832  0.37228756  0.11727968  1
  O  O437  1  0.87326231  0.36777931  0.61782923  1
  O  O438  1  0.86720837  0.87412207  0.11850652  1
  O  O439  1  0.87035798  0.86888364  0.62080511  1
  O  O440  1  0.13162194  0.13538091  0.37692397  1
  O  O441  1  0.13097521  0.12916813  0.87919736  1
  O  O442  1  0.13043474  0.63344474  0.37702087  1
  O  O443  1  0.12968426  0.62727405  0.87987787  1
  O  O444  1  0.63171463  0.13152105  0.38117431  1
  O  O445  1  0.63058892  0.12997697  0.88034710  1
  O  O446  1  0.62383248  0.63230281  0.38126590  1
  O  O447  1  0.63074857  0.63190352  0.87679971  1
