# generated using pymatgen
data_V3Zn3O8
_symmetry_space_group_name_H-M   'P 1'
_cell_length_a   17.08718059
_cell_length_b   17.08773847
_cell_length_c   17.08626862
_cell_angle_alpha   89.99188646
_cell_angle_beta   90.00493165
_cell_angle_gamma   90.00537407
_symmetry_Int_Tables_number   1
_chemical_formula_structural   V3Zn3O8
_chemical_formula_sum   'V96 Zn96 O256'
_cell_volume   4988.87037631
_cell_formula_units_Z   32
loop_
 _symmetry_equiv_pos_site_id
 _symmetry_equiv_pos_as_xyz
  1  'x, y, z'
loop_
 _atom_site_type_symbol
 _atom_site_label
 _atom_site_symmetry_multiplicity
 _atom_site_fract_x
 _atom_site_fract_y
 _atom_site_fract_z
 _atom_site_occupancy
  V  V0  1  0.12546433  -0.00088061  0.12403882  1
  V  V1  1  -0.00038598  0.74993933  0.75064665  1
  V  V2  1  0.25074947  0.74971019  -0.00009979  1
  V  V3  1  0.87481317  0.12405011  0.25025008  1
  V  V4  1  0.12691028  0.50002692  0.12441414  1
  V  V5  1  0.62205737  0.12425815  0.50156333  1
  V  V6  1  0.62630785  0.50154070  0.12604468  1
  V  V7  1  0.87403436  -0.00015340  0.87417083  1
  V  V8  1  0.24819402  0.87463071  0.62593630  1
  V  V9  1  0.62431497  0.37455856  0.75154906  1
  V  V10  1  0.50058141  0.37541895  0.37537157  1
  V  V11  1  0.24943262  0.74937193  0.50089090  1
  V  V12  1  0.12604395  0.24876367  0.87505353  1
  V  V13  1  0.12582975  0.62417800  0.00064506  1
  V  V14  1  0.87721555  0.62593217  0.24835632  1
  V  V15  1  0.87316504  0.87473847  0.49970143  1
  V  V16  1  0.25049165  0.24874395  -0.00104759  1
  V  V17  1  -0.00019456  0.87378153  0.37295748  1
  V  V18  1  0.24924416  -0.00013161  0.75038756  1
  V  V19  1  0.87421266  0.25097909  0.62494376  1
  V  V20  1  0.12388086  -0.00129566  0.62582539  1
  V  V21  1  0.12341883  0.12488649  0.49962412  1
  V  V22  1  0.50010412  0.49937444  0.50095709  1
  V  V23  1  0.75039861  0.62599961  0.37544680  1
  V  V24  1  0.87750632  0.49988115  0.37406734  1
  V  V25  1  0.25035249  0.12438381  0.87430162  1
  V  V26  1  0.24850790  0.37438192  0.62473007  1
  V  V27  1  0.50013876  0.37503342  0.87551000  1
  V  V28  1  0.49937373  0.62442782  0.62610858  1
  V  V29  1  0.25197982  0.49922142  0.25029959  1
  V  V30  1  0.25232109  0.37384985  0.12533731  1
  V  V31  1  0.62508898  0.62636802  0.00034868  1
  V  V32  1  0.74966424  0.50032920  0.75118751  1
  V  V33  1  0.49979231  -0.00024404  0.00068956  1
  V  V34  1  0.24922273  0.12394822  0.37487382  1
  V  V35  1  0.49891795  0.24762929  0.74873016  1
  V  V36  1  0.62637687  0.62521477  0.49903051  1
  V  V37  1  0.00042666  0.37503042  0.87560284  1
  V  V38  1  0.50060677  0.87362830  0.37611237  1
  V  V39  1  0.74890722  0.00013866  0.74964745  1
  V  V40  1  0.87320263  0.12423714  0.74979511  1
  V  V41  1  0.37545556  0.50022831  0.37558984  1
  V  V42  1  0.24886576  -0.00051435  0.24965479  1
  V  V43  1  0.74819817  0.87535010  0.62441596  1
  V  V44  1  0.37600885  0.74932945  0.12489795  1
  V  V45  1  0.37441793  0.12419330  0.25079756  1
  V  V46  1  -0.00148528  0.12453168  0.62448477  1
  V  V47  1  0.00074059  0.24972070  0.24860275  1
  V  V48  1  0.24897502  0.25036950  0.50050075  1
  V  V49  1  -0.00113106  0.62282448  0.62368946  1
  V  V50  1  0.75160871  0.50044639  0.24884626  1
  V  V51  1  0.00143884  0.49945867  0.00019137  1
  V  V52  1  0.00007765  0.37630904  0.37469507  1
  V  V53  1  0.24944643  0.49844298  0.75011323  1
  V  V54  1  0.50058824  0.87492684  0.87453147  1
  V  V55  1  0.50023655  0.12395682  0.12601113  1
  V  V56  1  0.87478747  0.87648243  -0.00065636  1
  V  V57  1  0.12385452  0.62397401  0.50032242  1
  V  V58  1  0.75017992  0.62567854  0.87465347  1
  V  V59  1  0.49937804  0.75032538  0.75030736  1
  V  V60  1  0.12499230  0.37482141  0.74938063  1
  V  V61  1  0.37519973  0.87735359  0.50017144  1
  V  V62  1  0.37462395  0.74905983  0.62645304  1
  V  V63  1  0.74953541  0.87667394  0.12721336  1
  V  V64  1  0.37462487  0.87402943  0.00035951  1
  V  V65  1  0.12466961  0.74951561  0.87461076  1
  V  V66  1  0.25034189  0.62494790  0.37584240  1
  V  V67  1  0.50115156  0.62575179  0.12595059  1
  V  V68  1  0.87291116  0.74986578  0.62443948  1
  V  V69  1  0.62666252  0.37636202  0.24940170  1
  V  V70  1  0.62426616  0.87616350  0.74981110  1
  V  V71  1  0.75071584  0.37504704  0.62545204  1
  V  V72  1  0.37703827  0.62606052  0.25028909  1
  V  V73  1  0.74976541  0.25074579  -0.00059753  1
  V  V74  1  0.12703212  0.37408609  0.24994146  1
  V  V75  1  0.37496370  0.49888261  0.87496188  1
  V  V76  1  -0.00058632  0.25010513  0.75002505  1
  V  V77  1  0.62573033  0.12596825  0.00113774  1
  V  V78  1  0.12468455  0.75032839  0.37407643  1
  V  V79  1  0.87769860  0.75035300  0.12432905  1
  V  V80  1  0.12452813  0.24970391  0.37422485  1
  V  V81  1  0.75027599  0.12605052  0.37389714  1
  V  V82  1  0.37422571  0.00068659  0.87440513  1
  V  V83  1  0.37355880  0.37422178  0.50073178  1
  V  V84  1  0.37677070  0.37500580  0.00009468  1
  V  V85  1  0.87650293  0.37543097  0.00003216  1
  V  V86  1  0.62490235  0.49942937  0.62523461  1
  V  V87  1  0.00059783  0.00165409  -0.00175407  1
  V  V88  1  0.37580380  0.24950291  0.12491306  1
  V  V89  1  0.50099768  0.24987699  0.24977902  1
  V  V90  1  -0.00208259  -0.00065873  0.49965170  1
  V  V91  1  0.75079202  0.25162197  0.50020752  1
  V  V92  1  0.25118150  0.62352363  0.87437572  1
  V  V93  1  0.62551924  0.25080599  0.37444857  1
  V  V94  1  0.87702749  0.25040452  0.12403632  1
  V  V95  1  0.62541953  -0.00132503  0.12696675  1
  Zn  Zn96  1  0.00010042  0.49787195  0.49987564  1
  Zn  Zn97  1  0.00221152  0.62588365  0.12471334  1
  Zn  Zn98  1  0.62515315  0.75141438  0.87527027  1
  Zn  Zn99  1  0.12486684  0.12555665  -0.00019448  1
  Zn  Zn100  1  0.37533981  0.12468332  0.74640760  1
  Zn  Zn101  1  0.49655023  0.12351376  0.62447139  1
  Zn  Zn102  1  0.00068337  0.12507527  0.12453203  1
  Zn  Zn103  1  0.87625529  0.50101642  0.87535361  1
  Zn  Zn104  1  0.49780845  0.00272786  0.50183775  1
  Zn  Zn105  1  0.74793470  0.12528726  0.87409518  1
  Zn  Zn106  1  0.37432774  0.24754337  0.62447760  1
  Zn  Zn107  1  0.87649450  0.37657108  0.49971050  1
  Zn  Zn108  1  0.50028911  0.49961877  0.00003761  1
  Zn  Zn109  1  0.25054224  0.87338871  0.12674868  1
  Zn  Zn110  1  0.50343899  0.75103055  0.25074429  1
  Zn  Zn111  1  0.74783991  0.00060707  0.25205307  1
  Zn  Zn112  1  0.87266235  -0.00149164  0.37441427  1
  Zn  Zn113  1  0.37371398  -0.00078824  0.37504026  1
  Zn  Zn114  1  0.74795573  0.75115577  0.49828194  1
  Zn  Zn115  1  0.62125481  0.00113853  0.62553271  1
  Zn  Zn116  1  0.00027044  0.87449116  0.87305442  1
  Zn  Zn117  1  0.75085190  0.75152523  -0.00204302  1
  Zn  Zn118  1  0.12368355  0.49931955  0.62434146  1
  Zn  Zn119  1  0.37477345  0.62405713  0.75021122  1
  Zn  Zn120  1  0.12667378  0.87317821  0.24916086  1
  Zn  Zn121  1  0.75159084  0.37749891  0.12427743  1
  Zn  Zn122  1  0.62641871  0.75048720  0.37418346  1
  Zn  Zn123  1  0.62441291  0.24945978  0.87584675  1
  Zn  Zn124  1  0.87320016  0.62381033  0.75041555  1
  Zn  Zn125  1  0.12486326  0.87484260  0.75147639  1
  Zn  Zn126  1  0.00404766  0.74953576  0.24749971  1
  Zn  Zn127  1  0.62480122  0.87479202  0.25380771  1
  Zn  Zn128  1  0.18733258  0.18485002  0.18600400  1
  Zn  Zn129  1  0.18737139  0.18636941  0.68747432  1
  Zn  Zn130  1  0.18930648  0.68734911  0.18781419  1
  Zn  Zn131  1  0.18588484  0.68550126  0.68822852  1
  Zn  Zn132  1  0.68887873  0.18874395  0.18538377  1
  Zn  Zn133  1  0.68631217  0.18818045  0.68708174  1
  Zn  Zn134  1  0.68836403  0.69152957  0.19057529  1
  Zn  Zn135  1  0.68519134  0.68931373  0.68753920  1
  Zn  Zn136  1  0.31340610  0.31082386  0.31364159  1
  Zn  Zn137  1  0.31402871  0.31184037  0.81179000  1
  Zn  Zn138  1  0.31264696  0.81219637  0.31125636  1
  Zn  Zn139  1  0.31257142  0.81315649  0.81258036  1
  Zn  Zn140  1  0.81297173  0.31307595  0.31200802  1
  Zn  Zn141  1  0.81319885  0.31356730  0.81401964  1
  Zn  Zn142  1  0.81315982  0.81015501  0.31120976  1
  Zn  Zn143  1  0.81228724  0.81228537  0.81164009  1
  Zn  Zn144  1  0.18556161  0.43886337  0.43852989  1
  Zn  Zn145  1  0.18832828  0.43578252  0.93713656  1
  Zn  Zn146  1  0.18605644  0.93790345  0.43806899  1
  Zn  Zn147  1  0.18704734  0.93492552  0.93665507  1
  Zn  Zn148  1  0.69002657  0.43926905  0.43698226  1
  Zn  Zn149  1  0.68671431  0.43852767  0.93763523  1
  Zn  Zn150  1  0.68739121  0.94024515  0.43712038  1
  Zn  Zn151  1  0.68748294  0.93899994  0.93794624  1
  Zn  Zn152  1  0.31203195  0.06235521  0.06175530  1
  Zn  Zn153  1  0.31194293  0.06365214  0.56515245  1
  Zn  Zn154  1  0.31416942  0.56258008  0.06176399  1
  Zn  Zn155  1  0.31175673  0.56121244  0.56422070  1
  Zn  Zn156  1  0.81267225  0.06349949  0.06350718  1
  Zn  Zn157  1  0.81035367  0.06159080  0.56210161  1
  Zn  Zn158  1  0.81353506  0.56302786  0.06165382  1
  Zn  Zn159  1  0.81367603  0.56102398  0.56040001  1
  Zn  Zn160  1  0.44004755  0.43903073  0.18719728  1
  Zn  Zn161  1  0.43540752  0.43489871  0.68788313  1
  Zn  Zn162  1  0.43627697  0.93591494  0.18928106  1
  Zn  Zn163  1  0.43861091  0.94054074  0.68640670  1
  Zn  Zn164  1  0.93896290  0.43733476  0.18595118  1
  Zn  Zn165  1  0.93500448  0.43857771  0.69016920  1
  Zn  Zn166  1  0.93848919  0.93845172  0.18735634  1
  Zn  Zn167  1  0.93560840  0.93579440  0.68702771  1
  Zn  Zn168  1  0.06146232  0.06085070  0.31200161  1
  Zn  Zn169  1  0.06285689  0.06304626  0.81218457  1
  Zn  Zn170  1  0.06203662  0.56346660  0.31037748  1
  Zn  Zn171  1  0.06377065  0.56246977  0.81275762  1
  Zn  Zn172  1  0.56112908  0.05837429  0.31513153  1
  Zn  Zn173  1  0.56438618  0.06385058  0.81509655  1
  Zn  Zn174  1  0.56366202  0.56323796  0.31266380  1
  Zn  Zn175  1  0.56181898  0.56202540  0.81289347  1
  Zn  Zn176  1  0.43583400  0.18889843  0.43612600  1
  Zn  Zn177  1  0.43794493  0.18677345  0.93568768  1
  Zn  Zn178  1  0.43841951  0.68905288  0.43911814  1
  Zn  Zn179  1  0.43810971  0.68688191  0.93686657  1
  Zn  Zn180  1  0.93653470  0.18966381  0.43674666  1
  Zn  Zn181  1  0.93655063  0.18588475  0.93559168  1
  Zn  Zn182  1  0.93590790  0.68842899  0.43797899  1
  Zn  Zn183  1  0.93743632  0.68639196  0.93870674  1
  Zn  Zn184  1  0.06390066  0.31255328  0.06254574  1
  Zn  Zn185  1  0.06157524  0.31303975  0.56212765  1
  Zn  Zn186  1  0.06309274  0.81545512  0.05981974  1
  Zn  Zn187  1  0.06154726  0.81151938  0.56166029  1
  Zn  Zn188  1  0.56368677  0.31390127  0.06365786  1
  Zn  Zn189  1  0.56309212  0.31151626  0.56400489  1
  Zn  Zn190  1  0.56280362  0.81158200  0.06264112  1
  Zn  Zn191  1  0.56323799  0.81112262  0.56246086  1
  O  O192  1  0.12243053  0.11275960  0.12162861  1
  O  O193  1  0.11774721  0.11953686  0.61903066  1
  O  O194  1  0.12661455  0.61767666  0.11832947  1
  O  O195  1  0.11426410  0.62519906  0.61921303  1
  O  O196  1  0.61898955  0.11958297  0.12110732  1
  O  O197  1  0.62357682  0.12675951  0.61170762  1
  O  O198  1  0.62231513  0.62164447  0.11860116  1
  O  O199  1  0.61917384  0.61785589  0.61979353  1
  O  O200  1  0.38063901  0.38053828  0.38002746  1
  O  O201  1  0.37961651  0.37968449  0.88146089  1
  O  O202  1  0.38012681  0.87360574  0.38634063  1
  O  O203  1  0.38049371  0.88097357  0.88116476  1
  O  O204  1  0.88266638  0.38139657  0.37325271  1
  O  O205  1  0.88338295  0.37603879  0.88202431  1
  O  O206  1  0.88415429  0.87478137  0.37981669  1
  O  O207  1  0.87602256  0.88157625  0.88160339  1
  O  O208  1  0.24878461  0.00677423  0.36799169  1
  O  O209  1  0.25421244  0.00439119  0.87050475  1
  O  O210  1  0.25600091  0.50490176  0.36993673  1
  O  O211  1  0.25499460  0.50350307  0.86998027  1
  O  O212  1  0.75350017  0.00948891  0.37113711  1
  O  O213  1  0.75685844  0.00204523  0.86848109  1
  O  O214  1  0.75732993  0.50550515  0.36769305  1
  O  O215  1  0.74976912  0.50975856  0.86980144  1
  O  O216  1  0.24730302  0.49330319  0.13071293  1
  O  O217  1  0.24731423  0.49289351  0.63175319  1
  O  O218  1  0.24122279  0.99970684  0.12996913  1
  O  O219  1  0.24300502  0.99440271  0.63019589  1
  O  O220  1  0.74455547  0.49984668  0.13146803  1
  O  O221  1  0.74449318  0.49492965  0.63082553  1
  O  O222  1  0.74502866  0.99147978  0.12594940  1
  O  O223  1  0.74765899  0.99313204  0.63225823  1
  O  O224  1  0.00817727  0.36917940  0.25402152  1
  O  O225  1  0.00468169  0.36917148  0.75537778  1
  O  O226  1  0.00166954  0.87482638  0.26214503  1
  O  O227  1  0.00119046  0.86119698  0.74940586  1
  O  O228  1  0.50602570  0.36986373  0.25592401  1
  O  O229  1  0.50488125  0.36756263  0.75515252  1
  O  O230  1  0.49813672  0.87371311  0.26338020  1
  O  O231  1  0.50441303  0.87058824  0.75532666  1
  O  O232  1  0.49475074  0.13030787  0.24569242  1
  O  O233  1  0.50061936  0.13684112  0.75100680  1
  O  O234  1  0.49340494  0.62566929  0.24477545  1
  O  O235  1  0.49852247  0.63087404  0.74352982  1
  O  O236  1  0.99080496  0.13172211  0.25023326  1
  O  O237  1  0.99387525  0.13046124  0.74364241  1
  O  O238  1  0.99339806  0.62861706  0.24481107  1
  O  O239  1  0.99944823  0.63343352  0.74179784  1
  O  O240  1  0.37064064  0.25500058  0.00612168  1
  O  O241  1  0.36646415  0.25779849  0.49839861  1
  O  O242  1  0.36996782  0.75413448  0.00462548  1
  O  O243  1  0.36857818  0.75775904  0.50654236  1
  O  O244  1  0.86912277  0.25425717  0.00419741  1
  O  O245  1  0.86824667  0.25148763  0.50714827  1
  O  O246  1  0.87446821  0.75689049  0.00854459  1
  O  O247  1  0.87271001  0.75728961  0.50749730  1
  O  O248  1  0.12893365  0.24395893  0.49342680  1
  O  O249  1  0.13242248  0.24924465  0.99352443  1
  O  O250  1  0.13089175  0.74361694  0.49451988  1
  O  O251  1  0.13037477  0.74433459  0.99523538  1
  O  O252  1  0.63051101  0.24432317  0.49370963  1
  O  O253  1  0.63478646  0.24564914  1.00203465  1
  O  O254  1  0.62722845  0.73917499  0.49841217  1
  O  O255  1  0.62787380  0.73754215  0.99922278  1
  O  O256  1  0.49523133  0.24402309  0.13077926  1
  O  O257  1  0.49863827  0.25038674  0.63708383  1
  O  O258  1  0.49318591  0.74297364  0.12578822  1
  O  O259  1  0.49397319  0.74410537  0.63051898  1
  O  O260  1  0.99595449  0.24767375  0.13067173  1
  O  O261  1  0.99449098  0.24411761  0.63066702  1
  O  O262  1  0.98890324  0.75213334  0.12452707  1
  O  O263  1  0.99499386  0.74215831  0.63178595  1
  O  O264  1  0.00639168  0.25564953  0.36826779  1
  O  O265  1  0.00539407  0.25470273  0.86938381  1
  O  O266  1  0.00563982  0.75963587  0.37559212  1
  O  O267  1  0.00445810  0.74800988  0.86551262  1
  O  O268  1  0.50548940  0.25677323  0.36852914  1
  O  O269  1  0.50127144  0.25681181  0.86673224  1
  O  O270  1  0.50040737  0.76124288  0.37544577  1
  O  O271  1  0.50038847  0.75702121  0.86860650  1
  O  O272  1  0.24236335  0.12975295  0.49462681  1
  O  O273  1  0.24925238  0.13186840  0.99289173  1
  O  O274  1  0.24534502  0.62982202  0.49515222  1
  O  O275  1  0.24529380  0.62954500  0.99395442  1
  O  O276  1  0.74270092  0.13222270  0.49427975  1
  O  O277  1  0.74570033  0.13503310  1.00070558  1
  O  O278  1  0.74358396  0.62401324  0.49327260  1
  O  O279  1  0.74163235  0.62554424  0.99205515  1
  O  O280  1  0.25672069  0.36844344  0.00587368  1
  O  O281  1  0.25346343  0.37012136  0.50404729  1
  O  O282  1  0.25738481  0.86739165  0.00083498  1
  O  O283  1  0.25597423  0.86912334  0.50500704  1
  O  O284  1  0.75616837  0.36715479  0.00116775  1
  O  O285  1  0.75069250  0.36920587  0.50716412  1
  O  O286  1  0.75597667  0.87504970  0.01048102  1
  O  O287  1  0.75570913  0.87500023  0.50577385  1
  O  O288  1  0.13324106  0.49415339  0.24489908  1
  O  O289  1  0.13156182  0.49202986  0.74959810  1
  O  O290  1  0.13014823  0.99960309  0.24037501  1
  O  O291  1  0.12980766  0.99796367  0.74307650  1
  O  O292  1  0.63172266  0.49564691  0.24548818  1
  O  O293  1  0.62951652  0.49407553  0.74391141  1
  O  O294  1  0.62689162  0.99683417  0.24185641  1
  O  O295  1  0.63134545  0.99426165  0.74999807  1
  O  O296  1  0.36623742  0.00730532  0.25014222  1
  O  O297  1  0.36758704  0.00041779  0.75745602  1
  O  O298  1  0.37066633  0.50473852  0.25613348  1
  O  O299  1  0.36728320  0.49949589  0.75693056  1
  O  O300  1  0.87489223  0.01395094  0.25050466  1
  O  O301  1  0.86958757  0.00461353  0.75423429  1
  O  O302  1  0.87116027  0.50589588  0.25285843  1
  O  O303  1  0.86544713  0.50367854  0.75449532  1
  O  O304  1  0.12148989  0.36938983  0.36814535  1
  O  O305  1  0.12043898  0.36788906  0.86933075  1
  O  O306  1  0.11492156  0.86879583  0.37703644  1
  O  O307  1  0.12133262  0.86486294  0.87236143  1
  O  O308  1  0.61995434  0.37099656  0.36963350  1
  O  O309  1  0.61821164  0.37438024  0.86901528  1
  O  O310  1  0.61307228  0.87453953  0.37803453  1
  O  O311  1  0.61816772  0.87415088  0.86991521  1
  O  O312  1  0.38056392  0.13050601  0.13028536  1
  O  O313  1  0.37778185  0.13045395  0.62781021  1
  O  O314  1  0.38118258  0.62903355  0.12993589  1
  O  O315  1  0.38142609  0.63104149  0.62550628  1
  O  O316  1  0.87654580  0.13142054  0.13474425  1
  O  O317  1  0.87965979  0.13075423  0.63016010  1
  O  O318  1  0.87621818  0.63562643  0.12813418  1
  O  O319  1  0.88362911  0.63046411  0.62554960  1
  O  O320  1  0.25620880  0.25439279  0.12023245  1
  O  O321  1  0.24828119  0.25650625  0.61744707  1
  O  O322  1  0.25745711  0.74993601  0.11732031  1
  O  O323  1  0.25400084  0.75410271  0.62022682  1
  O  O324  1  0.75661821  0.25296994  0.11368344  1
  O  O325  1  0.75519188  0.25614763  0.62052181  1
  O  O326  1  0.76076071  0.75932588  0.12296871  1
  O  O327  1  0.75609767  0.75681859  0.62460810  1
  O  O328  1  0.24330963  0.24429025  0.37983072  1
  O  O329  1  0.24554864  0.24496492  0.87951495  1
  O  O330  1  0.24529804  0.74386823  0.38133668  1
  O  O331  1  0.24544226  0.74335615  0.87994339  1
  O  O332  1  0.74411273  0.24626566  0.38008387  1
  O  O333  1  0.74942550  0.24907854  0.88859366  1
  O  O334  1  0.74931994  0.74083453  0.37707693  1
  O  O335  1  0.74704824  0.73948542  0.87667468  1
  O  O336  1  0.00050428  0.11278702  0.00109709  1
  O  O337  1  0.00388215  0.12040809  0.50476475  1
  O  O338  1  0.00841849  0.61788146  0.00128450  1
  O  O339  1  0.00467947  0.62610233  0.50994800  1
  O  O340  1  0.50448920  0.11981372  0.00693069  1
  O  O341  1  0.51085217  0.12784596  0.49795100  1
  O  O342  1  0.51019476  0.62334329  0.00525240  1
  O  O343  1  0.50489566  0.61785806  0.50577109  1
  O  O344  1  0.49534314  0.37988559  0.49479713  1
  O  O345  1  0.49412051  0.37564291  0.99448903  1
  O  O346  1  0.48884707  0.87399946  0.49493121  1
  O  O347  1  0.49494557  0.88053438  0.99480649  1
  O  O348  1  0.99807155  0.37626364  0.49089969  1
  O  O349  1  0.99678733  0.37934635  0.99446902  1
  O  O350  1  0.99393635  0.87943118  0.49268414  1
  O  O351  1  0.99365533  0.88695620  0.99755163  1
  O  O352  1  0.49476702  0.49456097  0.38088548  1
  O  O353  1  0.49306461  0.49269672  0.87602726  1
  O  O354  1  0.49366553  0.98892399  0.38076579  1
  O  O355  1  0.49440927  0.99477566  0.88167108  1
  O  O356  1  0.99513092  0.49375041  0.37367000  1
  O  O357  1  1.00049516  0.49299204  0.88189856  1
  O  O358  1  0.99914725  0.98999142  0.38142273  1
  O  O359  1  0.99445721  0.99871603  0.88245905  1
  O  O360  1  0.00757972  0.00085451  0.11567225  1
  O  O361  1  0.00366803  0.00501261  0.61987783  1
  O  O362  1  0.01004926  0.49980637  0.11797756  1
  O  O363  1  -0.00002892  0.51220658  0.62632272  1
  O  O364  1  0.50429419  0.00482441  0.11990412  1
  O  O365  1  0.50385653  0.00496275  0.61949026  1
  O  O366  1  0.50785314  0.50784747  0.12345311  1
  O  O367  1  0.50480905  0.50345044  0.62019392  1
  O  O368  1  0.24690600  0.37914324  0.24509872  1
  O  O369  1  0.24400531  0.37819964  0.74498757  1
  O  O370  1  0.24818009  0.88418878  0.24808469  1
  O  O371  1  0.24801321  0.88111645  0.74303978  1
  O  O372  1  0.74391893  0.38156552  0.24821010  1
  O  O373  1  0.74418161  0.37949170  0.74569845  1
  O  O374  1  0.75159650  0.87813608  0.23772819  1
  O  O375  1  0.74415033  0.88031943  0.74468479  1
  O  O376  1  0.25473889  0.11988186  0.25518449  1
  O  O377  1  0.25055027  0.11808022  0.75663760  1
  O  O378  1  0.25697731  0.61820722  0.25639520  1
  O  O379  1  0.25070982  0.61748844  0.75676185  1
  O  O380  1  0.75996042  0.12799034  0.25439887  1
  O  O381  1  0.75578990  0.11977633  0.75053072  1
  O  O382  1  0.75738033  0.61953418  0.25480089  1
  O  O383  1  0.74705742  0.61981327  0.75949513  1
  O  O384  1  0.36725780  0.12402428  0.36862709  1
  O  O385  1  0.36829075  0.11734721  0.87374097  1
  O  O386  1  0.37006586  0.61940983  0.37167295  1
  O  O387  1  0.36850673  0.61730246  0.87430934  1
  O  O388  1  0.86961270  0.12724696  0.36507786  1
  O  O389  1  0.87284802  0.11810707  0.86671267  1
  O  O390  1  0.87115786  0.62020495  0.36829986  1
  O  O391  1  0.86226840  0.62331319  0.87528071  1
  O  O392  1  0.13342438  0.37944529  0.13071529  1
  O  O393  1  0.12955190  0.37594508  0.63197430  1
  O  O394  1  0.12672387  0.88726249  0.12569347  1
  O  O395  1  0.13063493  0.88078032  0.62465926  1
  O  O396  1  0.62638625  0.38290883  0.13233591  1
  O  O397  1  0.63091604  0.38065731  0.63085084  1
  O  O398  1  0.63493528  0.87987878  0.12367862  1
  O  O399  1  0.63069638  0.87651497  0.63130906  1
  O  O400  1  0.12147065  0.25434076  0.25435608  1
  O  O401  1  0.11848893  0.25481984  0.75516038  1
  O  O402  1  0.12416362  0.75276761  0.25732314  1
  O  O403  1  0.11497278  0.74936928  0.75559076  1
  O  O404  1  0.62022394  0.25541968  0.25451330  1
  O  O405  1  0.61713136  0.25663637  0.75241608  1
  O  O406  1  0.62131293  0.75622884  0.25513952  1
  O  O407  1  0.61658844  0.75812093  0.75173074  1
  O  O408  1  0.38098107  0.24474803  0.24464260  1
  O  O409  1  0.38658920  0.24900714  0.74878348  1
  O  O410  1  0.37572849  0.74225227  0.24302925  1
  O  O411  1  0.38100428  0.74887164  0.74330611  1
  O  O412  1  0.88047424  0.24346554  0.24435970  1
  O  O413  1  0.88002261  0.24477405  0.74503043  1
  O  O414  1  0.87793274  0.74494698  0.23870285  1
  O  O415  1  0.88404001  0.74729474  0.74409554  1
  O  O416  1  0.38006413  0.49434952  0.49445186  1
  O  O417  1  0.37644512  0.49227373  0.99386190  1
  O  O418  1  0.37137294  0.98624915  0.49936570  1
  O  O419  1  0.38060989  0.99440276  0.99523266  1
  O  O420  1  0.87884360  0.49686840  0.49015054  1
  O  O421  1  0.88283883  0.49337754  0.99965700  1
  O  O422  1  0.88129726  0.99396847  0.49829996  1
  O  O423  1  0.88261171  0.99671470  0.99578628  1
  O  O424  1  0.11695884  0.00031054  0.00589287  1
  O  O425  1  0.11820958  0.00612741  0.50592280  1
  O  O426  1  0.12232441  0.50373950  0.00536478  1
  O  O427  1  0.12086459  0.50857607  0.50292246  1
  O  O428  1  0.61902657  0.00584695  0.00692220  1
  O  O429  1  0.62408832  0.01512978  0.49996558  1
  O  O430  1  0.62443963  0.51090597  0.00676617  1
  O  O431  1  0.61905327  0.50402752  0.50581773  1
  O  O432  1  0.37143767  0.36916362  0.12115957  1
  O  O433  1  0.36683857  0.37266090  0.61715119  1
  O  O434  1  0.37464086  0.86795640  0.11740196  1
  O  O435  1  0.36882308  0.86932910  0.61763619  1
  O  O436  1  0.87508705  0.36796780  0.11801725  1
  O  O437  1  0.86856276  0.36836355  0.62495757  1
  O  O438  1  0.86865784  0.87016267  0.12039389  1
  O  O439  1  0.86855477  0.86930400  0.61943088  1
  O  O440  1  0.12854626  0.13023115  0.37999398  1
  O  O441  1  0.13162874  0.13183971  0.87630305  1
  O  O442  1  0.13115968  0.62997813  0.37954407  1
  O  O443  1  0.13162430  0.62978396  0.88148117  1
  O  O444  1  0.62946920  0.13195140  0.38080500  1
  O  O445  1  0.62781887  0.12856365  0.88625361  1
  O  O446  1  0.63241325  0.62295628  0.38218524  1
  O  O447  1  0.63204461  0.62521238  0.88401055  1
