# generated using pymatgen
data_V3Zn3O8
_symmetry_space_group_name_H-M   'P 1'
_cell_length_a   17.08658402
_cell_length_b   17.08838798
_cell_length_c   17.08826661
_cell_angle_alpha   89.99764852
_cell_angle_beta   90.01090505
_cell_angle_gamma   90.00143690
_symmetry_Int_Tables_number   1
_chemical_formula_structural   V3Zn3O8
_chemical_formula_sum   'V96 Zn96 O256'
_cell_volume   4989.46918851
_cell_formula_units_Z   32
loop_
 _symmetry_equiv_pos_site_id
 _symmetry_equiv_pos_as_xyz
  1  'x, y, z'
loop_
 _atom_site_type_symbol
 _atom_site_label
 _atom_site_symmetry_multiplicity
 _atom_site_fract_x
 _atom_site_fract_y
 _atom_site_fract_z
 _atom_site_occupancy
  V  V0  1  0.74916800  0.74994532  0.49965484  1
  V  V1  1  0.12386979  0.49884642  0.62478003  1
  V  V2  1  0.62608751  0.87457026  0.24940124  1
  V  V3  1  0.87478801  0.87510890  0.49844855  1
  V  V4  1  0.37593787  0.12473148  0.25041182  1
  V  V5  1  0.50033716  0.75016753  0.74985808  1
  V  V6  1  -0.00000109  -0.00026489  0.49827439  1
  V  V7  1  0.87286213  0.37484273  0.50120568  1
  V  V8  1  0.74920609  0.12575524  0.37547748  1
  V  V9  1  0.87603586  0.12478114  0.75007123  1
  V  V10  1  0.87545582  0.00052542  0.37466446  1
  V  V11  1  0.87541263  0.37609959  0.00006669  1
  V  V12  1  0.75279132  0.75102145  -0.00024856  1
  V  V13  1  0.87503963  0.62641189  0.24883186  1
  V  V14  1  0.12429772  0.50122558  0.12481902  1
  V  V15  1  0.75078716  0.00044866  0.24920885  1
  V  V16  1  0.12421379  0.87580784  0.24775871  1
  V  V17  1  0.75107765  0.62475178  0.87420447  1
  V  V18  1  0.74844082  0.37321379  0.62624227  1
  V  V19  1  0.49948628  0.62378674  0.62521087  1
  V  V20  1  0.25075241  0.62446659  0.87442918  1
  V  V21  1  0.74850313  0.49924161  0.25132697  1
  V  V22  1  0.12431044  0.62473931  -0.00074236  1
  V  V23  1  0.12398386  0.25121893  0.37414531  1
  V  V24  1  0.62681795  0.00005038  0.12446747  1
  V  V25  1  0.87333651  0.49974276  0.37530665  1
  V  V26  1  0.49967311  -0.00074683  0.50020570  1
  V  V27  1  0.62648961  0.87536655  0.74918336  1
  V  V28  1  0.24873206  0.50041812  0.25048294  1
  V  V29  1  0.75311182  0.87536891  0.12345555  1
  V  V30  1  0.24905444  0.37424838  0.62601787  1
  V  V31  1  0.62616360  0.12510388  0.00023028  1
  V  V32  1  0.25109528  0.75105337  -0.00047479  1
  V  V33  1  0.24906540  0.24833381  0.50074525  1
  V  V34  1  -0.00101764  0.37493531  0.37547961  1
  V  V35  1  0.37526467  0.62588703  0.24907759  1
  V  V36  1  0.62649068  0.75065082  0.87477388  1
  V  V37  1  0.37494532  0.50093369  0.87605529  1
  V  V38  1  -0.00076175  0.62422449  0.62421204  1
  V  V39  1  0.62528019  -0.00026118  0.62517352  1
  V  V40  1  0.24975422  0.37671338  0.12601067  1
  V  V41  1  0.62444670  0.62406321  0.00282126  1
  V  V42  1  0.62315322  0.50017792  0.62590626  1
  V  V43  1  -0.00037767  0.37469269  0.87529352  1
  V  V44  1  0.12634406  0.87540149  0.74623155  1
  V  V45  1  0.00043120  0.87573751  0.87416296  1
  V  V46  1  0.87712675  0.00034110  0.87452472  1
  V  V47  1  -0.00005931  0.24880833  0.74947092  1
  V  V48  1  0.25157948  0.87495619  0.12368963  1
  V  V49  1  0.25016632  0.74970713  0.49931350  1
  V  V50  1  0.25203495  0.00067667  0.75000387  1
  V  V51  1  0.24962029  0.24838904  0.00091343  1
  V  V52  1  0.37498840  0.87376179  0.49926583  1
  V  V53  1  0.87723203  0.87503635  -0.00127798  1
  V  V54  1  0.87560156  0.12647684  0.24969693  1
  V  V55  1  0.74995589  0.87519932  0.62404762  1
  V  V56  1  0.75079454  0.25078717  0.00028903  1
  V  V57  1  0.37530410  0.00009521  0.37435249  1
  V  V58  1  0.37635466  0.87514223  -0.00045312  1
  V  V59  1  0.50001723  0.74931276  0.24941603  1
  V  V60  1  -0.00075284  0.12421433  0.62438462  1
  V  V61  1  0.62381064  0.62496398  0.50065907  1
  V  V62  1  0.12585421  0.74929538  0.87350372  1
  V  V63  1  0.50057111  0.87509641  0.37410169  1
  V  V64  1  -0.00006878  0.74911052  0.74741613  1
  V  V65  1  0.50066824  0.37528151  0.87617357  1
  V  V66  1  0.49907157  0.24975933  0.25025785  1
  V  V67  1  0.62466511  0.24926441  0.37625185  1
  V  V68  1  0.74901585  0.37552694  0.12611671  1
  V  V69  1  0.25147380  0.00006776  0.24915013  1
  V  V70  1  0.12411216  0.12364352  0.49924409  1
  V  V71  1  0.75172865  0.12541064  0.87464540  1
  V  V72  1  0.00009787  0.50022058  -0.00013486  1
  V  V73  1  -0.00100607  0.50050850  0.50088425  1
  V  V74  1  0.12453748  0.37423425  0.74935322  1
  V  V75  1  0.50088185  0.12567356  0.12563294  1
  V  V76  1  0.12319519  0.75011260  0.37356825  1
  V  V77  1  0.62430078  0.37548206  0.25078878  1
  V  V78  1  0.37490959  0.24772230  0.62721577  1
  V  V79  1  0.87580690  0.25059193  0.12579431  1
  V  V80  1  0.50107229  0.87591020  0.87569650  1
  V  V81  1  0.62480212  0.74902227  0.37545264  1
  V  V82  1  0.12649919  0.24855331  0.87588895  1
  V  V83  1  0.00313770  0.12539137  0.12335436  1
  V  V84  1  0.37448620  0.62500742  0.75061885  1
  V  V85  1  0.50100517  -0.00051644  -0.00085580  1
  V  V86  1  0.49858154  0.12524829  0.62692158  1
  V  V87  1  0.62403954  0.25115906  0.87604717  1
  V  V88  1  0.37442341  0.74941674  0.62381447  1
  V  V89  1  0.87467858  0.62513822  0.74902522  1
  V  V90  1  0.49788901  0.37496345  0.37671195  1
  V  V91  1  0.74897779  0.50063678  0.75070605  1
  V  V92  1  0.24910573  0.62476710  0.37443897  1
  V  V93  1  0.37508390  0.37454405  0.50076261  1
  V  V94  1  0.37410692  0.37687950  0.00125965  1
  V  V95  1  0.62504866  0.12485485  0.50008717  1
  Zn  Zn96  1  0.49924029  0.50221554  0.00414261  1
  Zn  Zn97  1  0.25002329  0.12472134  0.37461569  1
  Zn  Zn98  1  0.87505119  0.49968126  0.87510941  1
  Zn  Zn99  1  0.25177133  0.12342920  0.87579090  1
  Zn  Zn100  1  -0.00188824  0.75071281  0.24708296  1
  Zn  Zn101  1  0.74856844  0.62428164  0.37595521  1
  Zn  Zn102  1  0.87353886  0.24888343  0.62457189  1
  Zn  Zn103  1  0.00061298  0.25274779  0.24955962  1
  Zn  Zn104  1  0.12723291  0.12148326  -0.00111811  1
  Zn  Zn105  1  0.37794290  0.75006372  0.12369308  1
  Zn  Zn106  1  0.50089089  0.62457604  0.12576298  1
  Zn  Zn107  1  0.87509969  0.75011616  0.62235813  1
  Zn  Zn108  1  0.74985719  0.24923025  0.50168840  1
  Zn  Zn109  1  0.37368156  0.49888868  0.37742977  1
  Zn  Zn110  1  0.12680240  0.00201486  0.12233884  1
  Zn  Zn111  1  0.12442163  0.62478574  0.49965155  1
  Zn  Zn112  1  -0.00094901  0.62672510  0.12380950  1
  Zn  Zn113  1  0.00484560  -0.00019358  -0.00072138  1
  Zn  Zn114  1  0.62313207  0.37403954  0.75069207  1
  Zn  Zn115  1  0.49842457  0.24753315  0.75229434  1
  Zn  Zn116  1  -0.00154101  0.87499878  0.37263993  1
  Zn  Zn117  1  0.37479414  0.25145114  0.12652069  1
  Zn  Zn118  1  0.12333083  0.37698565  0.25029878  1
  Zn  Zn119  1  0.87811787  0.75048212  0.12496286  1
  Zn  Zn120  1  0.37541916  0.12505664  0.75361112  1
  Zn  Zn121  1  0.37560079  0.00234663  0.87469112  1
  Zn  Zn122  1  0.75114723  0.00043872  0.74913607  1
  Zn  Zn123  1  0.12661858  -0.00088494  0.62125850  1
  Zn  Zn124  1  0.49733393  0.49948810  0.50042902  1
  Zn  Zn125  1  0.25078396  0.87495378  0.62305569  1
  Zn  Zn126  1  0.24934237  0.49930022  0.74990158  1
  Zn  Zn127  1  0.62261451  0.50041638  0.12681485  1
  Zn  Zn128  1  0.18876662  0.18853893  0.18878918  1
  Zn  Zn129  1  0.18611692  0.18504548  0.68714925  1
  Zn  Zn130  1  0.18863976  0.68803002  0.18508259  1
  Zn  Zn131  1  0.18797941  0.68549005  0.68565525  1
  Zn  Zn132  1  0.68773077  0.18912514  0.18839066  1
  Zn  Zn133  1  0.68503197  0.18803623  0.69113003  1
  Zn  Zn134  1  0.69127761  0.68881621  0.18694734  1
  Zn  Zn135  1  0.68791690  0.68803798  0.68596773  1
  Zn  Zn136  1  0.31153492  0.31271143  0.31269843  1
  Zn  Zn137  1  0.31323260  0.31221566  0.81276642  1
  Zn  Zn138  1  0.31157597  0.81195481  0.31203994  1
  Zn  Zn139  1  0.31360312  0.81384083  0.81336361  1
  Zn  Zn140  1  0.81202508  0.31183983  0.31317008  1
  Zn  Zn141  1  0.81332402  0.31189710  0.81189719  1
  Zn  Zn142  1  0.81103565  0.81176339  0.31359891  1
  Zn  Zn143  1  0.81380212  0.81219080  0.81098333  1
  Zn  Zn144  1  0.18732820  0.43736919  0.43893410  1
  Zn  Zn145  1  0.18727444  0.43713256  0.93733213  1
  Zn  Zn146  1  0.18881012  0.93685946  0.43469447  1
  Zn  Zn147  1  0.18763973  0.93883775  0.93663673  1
  Zn  Zn148  1  0.68531040  0.43836247  0.43911165  1
  Zn  Zn149  1  0.68793558  0.43943569  0.93802819  1
  Zn  Zn150  1  0.68811940  0.93782534  0.43727526  1
  Zn  Zn151  1  0.69013123  0.93876924  0.93603676  1
  Zn  Zn152  1  0.31518914  0.06191846  0.06423454  1
  Zn  Zn153  1  0.31127780  0.06178257  0.56421133  1
  Zn  Zn154  1  0.31130670  0.56320331  0.06333366  1
  Zn  Zn155  1  0.31064170  0.56141671  0.56209178  1
  Zn  Zn156  1  0.81671535  0.06204349  0.06068465  1
  Zn  Zn157  1  0.81252291  0.06184724  0.56254469  1
  Zn  Zn158  1  0.81132857  0.56096061  0.06432838  1
  Zn  Zn159  1  0.81108001  0.56212117  0.56350588  1
  Zn  Zn160  1  0.43802197  0.44064602  0.18719678  1
  Zn  Zn161  1  0.43568306  0.43684031  0.68935860  1
  Zn  Zn162  1  0.43790474  0.93743385  0.18567431  1
  Zn  Zn163  1  0.43732290  0.93674334  0.68688614  1
  Zn  Zn164  1  0.93820541  0.43938615  0.18809558  1
  Zn  Zn165  1  0.93547695  0.43776627  0.68881439  1
  Zn  Zn166  1  0.93913379  0.93995476  0.18571047  1
  Zn  Zn167  1  0.93724847  0.93891838  0.68491680  1
  Zn  Zn168  1  0.06187822  0.06364956  0.31102211  1
  Zn  Zn169  1  0.06506783  0.06268981  0.81259838  1
  Zn  Zn170  1  0.06032606  0.56260092  0.31208964  1
  Zn  Zn171  1  0.06213343  0.56086443  0.81173481  1
  Zn  Zn172  1  0.56267657  0.06187925  0.31242734  1
  Zn  Zn173  1  0.56352412  0.06266403  0.81163469  1
  Zn  Zn174  1  0.56009805  0.56056954  0.31516885  1
  Zn  Zn175  1  0.56252841  0.56138633  0.81405889  1
  Zn  Zn176  1  0.43686943  0.18717162  0.43864451  1
  Zn  Zn177  1  0.43458949  0.18706878  0.93761181  1
  Zn  Zn178  1  0.43771815  0.68646977  0.43637170  1
  Zn  Zn179  1  0.43843309  0.68929337  0.93682872  1
  Zn  Zn180  1  0.93640167  0.18854489  0.43930017  1
  Zn  Zn181  1  0.93856674  0.18810572  0.93837769  1
  Zn  Zn182  1  0.93677653  0.68718264  0.43574699  1
  Zn  Zn183  1  0.93805877  0.68765991  0.93500799  1
  Zn  Zn184  1  0.06390798  0.31311749  0.06302196  1
  Zn  Zn185  1  0.06064070  0.31163044  0.56228413  1
  Zn  Zn186  1  0.06115430  0.81007037  0.06318444  1
  Zn  Zn187  1  0.06059721  0.81207660  0.56051953  1
  Zn  Zn188  1  0.56202064  0.31267633  0.06306857  1
  Zn  Zn189  1  0.56122337  0.31097451  0.56311146  1
  Zn  Zn190  1  0.56346408  0.81075526  0.06375130  1
  Zn  Zn191  1  0.56229757  0.81164156  0.56283001  1
  O  O192  1  0.11436159  0.12608226  0.12566432  1
  O  O193  1  0.11674302  0.12318099  0.61663842  1
  O  O194  1  0.12508469  0.61872153  0.11649094  1
  O  O195  1  0.11759791  0.61762050  0.62321641  1
  O  O196  1  0.62167839  0.11950657  0.11994107  1
  O  O197  1  0.61978307  0.11954778  0.61987392  1
  O  O198  1  0.62703781  0.62616775  0.11315544  1
  O  O199  1  0.61838672  0.62035186  0.62079465  1
  O  O200  1  0.38021760  0.37370674  0.38292152  1
  O  O201  1  0.38196462  0.38040993  0.88095824  1
  O  O202  1  0.38147040  0.87986088  0.37913202  1
  O  O203  1  0.38415563  0.87613078  0.88172062  1
  O  O204  1  0.87869240  0.38001566  0.38130967  1
  O  O205  1  0.88166498  0.37530368  0.88225934  1
  O  O206  1  0.87494281  0.88304837  0.37977626  1
  O  O207  1  0.88101203  0.88015963  0.87826412  1
  O  O208  1  0.25854337  0.00096705  0.36724062  1
  O  O209  1  0.25184458  -0.00028198  0.86279452  1
  O  O210  1  0.24925793  0.50704437  0.36909923  1
  O  O211  1  0.25605416  0.50664053  0.87356383  1
  O  O212  1  0.75471061  0.00598592  0.36845337  1
  O  O213  1  0.75778621  0.00794616  0.87311361  1
  O  O214  1  0.75578588  0.49993096  0.36940450  1
  O  O215  1  0.75118894  0.50688740  0.86828032  1
  O  O216  1  0.24361663  0.49588800  0.13031149  1
  O  O217  1  0.24212080  0.49237062  0.62663385  1
  O  O218  1  0.24955873  0.99287932  0.13215935  1
  O  O219  1  0.24640553  0.99445135  0.63421106  1
  O  O220  1  0.74685842  0.49159221  0.13302745  1
  O  O221  1  0.74306900  0.49236311  0.63093223  1
  O  O222  1  0.74599837  0.99592039  0.12956571  1
  O  O223  1  0.74236659  0.99325133  0.62545880  1
  O  O224  1  0.00206034  0.37355480  0.25957554  1
  O  O225  1  0.00442036  0.36897439  0.75499283  1
  O  O226  1  0.01214179  0.87507531  0.25082057  1
  O  O227  1  0.00810136  0.87017765  0.75314431  1
  O  O228  1  0.50429929  0.36897843  0.25597173  1
  O  O229  1  0.49991427  0.37348594  0.76537237  1
  O  O230  1  0.50673156  0.87067617  0.25467623  1
  O  O231  1  0.50662520  0.86931388  0.75492322  1
  O  O232  1  0.49648276  0.12950511  0.24505473  1
  O  O233  1  0.49789615  0.12550120  0.74151871  1
  O  O234  1  0.49037516  0.63086869  0.25228683  1
  O  O235  1  0.49467504  0.63141631  0.74591467  1
  O  O236  1  0.99332491  0.12836340  0.24093768  1
  O  O237  1  0.99585568  0.12965756  0.74456592  1
  O  O238  1  0.98637459  0.62455623  0.24864951  1
  O  O239  1  0.99514691  0.62954065  0.74449942  1
  O  O240  1  0.36489833  0.25782643  0.00243819  1
  O  O241  1  0.36856049  0.25426054  0.50660221  1
  O  O242  1  0.36904545  0.75657085  0.00044029  1
  O  O243  1  0.37041264  0.75465263  0.50361820  1
  O  O244  1  0.86930934  0.25630213  0.00584740  1
  O  O245  1  0.87037318  0.25845737  0.50360578  1
  O  O246  1  0.86899220  0.75704901  -0.00163816  1
  O  O247  1  0.86774541  0.75686049  0.49884431  1
  O  O248  1  0.12870601  0.24471632  0.49226881  1
  O  O249  1  0.13571864  0.25136518  0.99454486  1
  O  O250  1  0.13028119  0.75068510  0.48859263  1
  O  O251  1  0.13108579  0.74516556  0.99212975  1
  O  O252  1  0.62570150  0.24210242  0.49349135  1
  O  O253  1  0.63162918  0.24411909  0.99602621  1
  O  O254  1  0.62885072  0.74507533  0.49484846  1
  O  O255  1  0.63250936  0.74412621  0.99411804  1
  O  O256  1  0.49948564  0.24302759  0.13229464  1
  O  O257  1  0.49292578  0.24285820  0.62680094  1
  O  O258  1  0.49869854  0.74656963  0.13428836  1
  O  O259  1  0.49467889  0.74384098  0.63073938  1
  O  O260  1  0.99393024  0.24364134  0.12660526  1
  O  O261  1  0.99809048  0.24305039  0.63187014  1
  O  O262  1  0.99588886  0.74466117  0.12920382  1
  O  O263  1  0.99864113  0.74253604  0.63008733  1
  O  O264  1  0.00890512  0.25580816  0.37591375  1
  O  O265  1  0.00622280  0.25542975  0.86999499  1
  O  O266  1  0.01207259  0.75192520  0.37130003  1
  O  O267  1  0.00705014  0.75533984  0.86670190  1
  O  O268  1  0.50544573  0.25425078  0.36978490  1
  O  O269  1  0.50523745  0.25977911  0.87812119  1
  O  O270  1  0.50556007  0.75665695  0.36943956  1
  O  O271  1  0.50712929  0.75619816  0.86872939  1
  O  O272  1  0.24283817  0.13064670  0.49803441  1
  O  O273  1  0.25070226  0.13813738  1.00258591  1
  O  O274  1  0.24775260  0.63204106  0.49267518  1
  O  O275  1  0.24447657  0.63103844  0.99352174  1
  O  O276  1  0.74280227  0.12495258  0.49321621  1
  O  O277  1  0.74613640  0.13106915  0.99508804  1
  O  O278  1  0.74200766  0.63157207  0.50000254  1
  O  O279  1  0.74417586  0.63070970  0.99436775  1
  O  O280  1  0.25440977  0.36843512  0.00554144  1
  O  O281  1  0.25446350  0.36783094  0.50677610  1
  O  O282  1  0.25614722  0.87002060  0.00355373  1
  O  O283  1  0.25748456  0.86809085  0.49966410  1
  O  O284  1  0.75500764  0.36991619  0.00560820  1
  O  O285  1  0.75385512  0.37530226  0.51105126  1
  O  O286  1  0.75638062  0.87059169  0.00368462  1
  O  O287  1  0.75429226  0.87022826  0.50446403  1
  O  O288  1  0.13124157  0.50094186  0.24335482  1
  O  O289  1  0.12537874  0.49171892  0.74285989  1
  O  O290  1  0.13187825  0.99016693  0.25035356  1
  O  O291  1  0.13215277  0.98903816  0.74850618  1
  O  O292  1  0.63110468  0.49278506  0.25155587  1
  O  O293  1  0.63130918  0.49851927  0.74405137  1
  O  O294  1  0.63097367  0.99442394  0.24427662  1
  O  O295  1  0.62732300  0.99276780  0.74285112  1
  O  O296  1  0.37202959  0.00441817  0.25517555  1
  O  O297  1  0.36391456  -0.00226014  0.75064310  1
  O  O298  1  0.36776787  0.51044382  0.25265753  1
  O  O299  1  0.37267909  0.50765373  0.75748676  1
  O  O300  1  0.86918510  0.00639350  0.25460505  1
  O  O301  1  0.87425827  0.00670399  0.75658702  1
  O  O302  1  0.86832867  0.50636421  0.25582368  1
  O  O303  1  0.86741611  0.50727889  0.75211868  1
  O  O304  1  0.11818018  0.36553342  0.37713722  1
  O  O305  1  0.11932842  0.36889451  0.86934379  1
  O  O306  1  0.12642616  0.86612754  0.36414423  1
  O  O307  1  0.12073622  0.86851609  0.86437573  1
  O  O308  1  0.61875588  0.36872627  0.37082620  1
  O  O309  1  0.61605465  0.37029166  0.87768107  1
  O  O310  1  0.61978331  0.87055640  0.36887114  1
  O  O311  1  0.62152955  0.86967728  0.86986102  1
  O  O312  1  0.38421512  0.12652753  0.13274153  1
  O  O313  1  0.38174580  0.13065263  0.62521760  1
  O  O314  1  0.37450576  0.62776470  0.13818951  1
  O  O315  1  0.37954833  0.63021757  0.63053347  1
  O  O316  1  0.88220845  0.13089584  0.12969544  1
  O  O317  1  0.88080885  0.12559227  0.63150527  1
  O  O318  1  0.87425150  0.62574668  0.13671912  1
  O  O319  1  0.88132068  0.62611957  0.63123538  1
  O  O320  1  0.25045134  0.25780814  0.11700519  1
  O  O321  1  0.25388341  0.25447513  0.61964702  1
  O  O322  1  0.25227244  0.75716546  0.11655384  1
  O  O323  1  0.25675561  0.75050291  0.61765993  1
  O  O324  1  0.75570587  0.25507202  0.11976486  1
  O  O325  1  0.74947925  0.26169466  0.62517549  1
  O  O326  1  0.75353478  0.75895686  0.11769490  1
  O  O327  1  0.75049294  0.75748108  0.61716592  1
  O  O328  1  0.23971615  0.24945100  0.38216216  1
  O  O329  1  0.24461067  0.25196076  0.88575156  1
  O  O330  1  0.24189318  0.74505104  0.37906359  1
  O  O331  1  0.24500724  0.74463776  0.87956068  1
  O  O332  1  0.74224715  0.24301667  0.37623426  1
  O  O333  1  0.74515764  0.24553704  0.88167255  1
  O  O334  1  0.74093527  0.74924577  0.38213847  1
  O  O335  1  0.74506801  0.74505167  0.87956205  1
  O  O336  1  0.00170819  0.12569304  0.01200757  1
  O  O337  1  0.00408427  0.11920184  0.50456576  1
  O  O338  1  0.00730000  0.61834750  -0.00215031  1
  O  O339  1  0.00054559  0.61801996  0.50564491  1
  O  O340  1  0.50688194  0.12003759  0.00585043  1
  O  O341  1  0.50552442  0.11806065  0.50564746  1
  O  O342  1  0.51292762  0.62718152  -0.00010946  1
  O  O343  1  0.50525269  0.62452625  0.50755847  1
  O  O344  1  0.49246447  0.37398005  0.49440089  1
  O  O345  1  0.49392161  0.37590522  0.99124200  1
  O  O346  1  0.49532114  0.87948243  0.49356657  1
  O  O347  1  0.49758231  0.87954813  0.99548935  1
  O  O348  1  0.99236731  0.38092985  0.49604013  1
  O  O349  1  0.99503450  0.37979422  0.99497158  1
  O  O350  1  0.99325213  0.88149134  0.49629006  1
  O  O351  1  0.99507261  0.87450973  0.99121663  1
  O  O352  1  0.49558540  0.48975035  0.37889413  1
  O  O353  1  0.49441837  0.49148718  0.87892092  1
  O  O354  1  0.49570269  0.99381773  0.38028665  1
  O  O355  1  0.50229048  0.99271251  0.88242489  1
  O  O356  1  0.99368583  0.49453877  0.38165378  1
  O  O357  1  0.99938402  0.49198562  0.88159632  1
  O  O358  1  0.99243176  0.99985920  0.38007838  1
  O  O359  1  0.99483203  0.99311340  0.87498766  1
  O  O360  1  0.00236688  0.01329534  0.12322740  1
  O  O361  1  0.00262048  0.00631852  0.61634135  1
  O  O362  1  0.00645279  0.50205838  0.11717003  1
  O  O363  1  0.00415530  0.50404303  0.62020274  1
  O  O364  1  0.50816455  0.00514231  0.11958398  1
  O  O365  1  0.50558703  0.00394947  0.61855861  1
  O  O366  1  0.50517998  0.50616777  0.12175889  1
  O  O367  1  0.50513982  0.50637656  0.62597276  1
  O  O368  1  0.24838467  0.38256211  0.24407260  1
  O  O369  1  0.24231661  0.37520529  0.74347119  1
  O  O370  1  0.24357173  0.87956656  0.24445804  1
  O  O371  1  0.24081586  0.88000223  0.74902227  1
  O  O372  1  0.74422820  0.37922059  0.24579672  1
  O  O373  1  0.74902450  0.38098073  0.74171466  1
  O  O374  1  0.74516155  0.88134925  0.24425726  1
  O  O375  1  0.74370897  0.87555228  0.74283673  1
  O  O376  1  0.25765405  0.11842467  0.25145598  1
  O  O377  1  0.24941711  0.11193444  0.74998526  1
  O  O378  1  0.25738514  0.62163700  0.25453219  1
  O  O379  1  0.25679429  0.62440146  0.75687161  1
  O  O380  1  0.75491862  0.11945618  0.25491800  1
  O  O381  1  0.75704785  0.12457637  0.75746937  1
  O  O382  1  0.75780203  0.61850244  0.25268736  1
  O  O383  1  0.75419945  0.62083344  0.75433914  1
  O  O384  1  0.37529898  0.11738060  0.36867402  1
  O  O385  1  0.37059068  0.12041644  0.87190527  1
  O  O386  1  0.36825926  0.62510726  0.36464881  1
  O  O387  1  0.37053012  0.62117694  0.87011705  1
  O  O388  1  0.86912746  0.12042344  0.36995709  1
  O  O389  1  0.87132114  0.12079297  0.87031786  1
  O  O390  1  0.87197199  0.61772180  0.36670827  1
  O  O391  1  0.86814656  0.62351471  0.86748221  1
  O  O392  1  0.13162934  0.38320746  0.12649428  1
  O  O393  1  0.12899370  0.37866516  0.62984887  1
  O  O394  1  0.13187765  0.87441258  0.13479051  1
  O  O395  1  0.12580464  0.87396662  0.63658373  1
  O  O396  1  0.63183168  0.37422080  0.13281253  1
  O  O397  1  0.63248427  0.38047082  0.62673381  1
  O  O398  1  0.63232755  0.88096046  0.12972177  1
  O  O399  1  0.62921235  0.88010286  0.62945991  1
  O  O400  1  0.12459795  0.25292117  0.26348994  1
  O  O401  1  0.11940025  0.25495385  0.75557595  1
  O  O402  1  0.12753470  0.75871889  0.25764204  1
  O  O403  1  0.12107836  0.75680096  0.75367800  1
  O  O404  1  0.61909802  0.25494221  0.25664343  1
  O  O405  1  0.62060342  0.25345531  0.76115634  1
  O  O406  1  0.62136483  0.75574123  0.25546338  1
  O  O407  1  0.61967812  0.75512063  0.75501037  1
  O  O408  1  0.38142441  0.24312659  0.24954817  1
  O  O409  1  0.37593925  0.24723629  0.74148013  1
  O  O410  1  0.38055232  0.74153267  0.25029946  1
  O  O411  1  0.38106033  0.74533909  0.74476559  1
  O  O412  1  0.87533710  0.24363573  0.24365575  1
  O  O413  1  0.88258691  0.24270802  0.74899296  1
  O  O414  1  0.87432294  0.73913808  0.25077946  1
  O  O415  1  0.88245469  0.74354105  0.74715178  1
  O  O416  1  0.37572646  0.49044908  0.49881504  1
  O  O417  1  0.37522226  0.49499835  0.99348262  1
  O  O418  1  0.38069966  0.99377798  0.49474909  1
  O  O419  1  0.38390169  0.99285052  0.99957438  1
  O  O420  1  0.87910637  0.49473506  0.49503311  1
  O  O421  1  0.88088475  0.49330050  0.99861811  1
  O  O422  1  0.87958048  0.99509329  0.49311741  1
  O  O423  1  0.87877480  0.99281358  0.99185177  1
  O  O424  1  0.12315591  0.00334925  0.00400845  1
  O  O425  1  0.11902014  0.00495615  0.49785196  1
  O  O426  1  0.12019575  0.50534115  0.00468362  1
  O  O427  1  0.11675706  0.50070515  0.50679298  1
  O  O428  1  0.62162018  0.00556774  0.00540819  1
  O  O429  1  0.61852689  0.00452540  0.50464456  1
  O  O430  1  0.62549929  0.51368774  0.00102531  1
  O  O431  1  0.62188066  0.50721279  0.50815527  1
  O  O432  1  0.36774734  0.37508058  0.11909590  1
  O  O433  1  0.36906318  0.36816445  0.62099649  1
  O  O434  1  0.36977963  0.87298208  0.11797377  1
  O  O435  1  0.37582130  0.86630285  0.61683210  1
  O  O436  1  0.86934318  0.37013445  0.12014389  1
  O  O437  1  0.86368966  0.37539798  0.62034586  1
  O  O438  1  0.86946828  0.87601244  0.11778789  1
  O  O439  1  0.86816265  0.87429337  0.61657222  1
  O  O440  1  0.12492243  0.13541520  0.38027076  1
  O  O441  1  0.12896557  0.13457016  0.87755204  1
  O  O442  1  0.13002512  0.63541099  0.37389451  1
  O  O443  1  0.13064944  0.62997180  0.87866941  1
  O  O444  1  0.62947157  0.12890595  0.37999085  1
  O  O445  1  0.63101756  0.13026376  0.88180094  1
  O  O446  1  0.62471179  0.63176184  0.38205015  1
  O  O447  1  0.63096662  0.63168446  0.88208553  1
