# generated using pymatgen
data_V3Zn3O8
_symmetry_space_group_name_H-M   'P 1'
_cell_length_a   17.08542847
_cell_length_b   17.08649405
_cell_length_c   17.08744154
_cell_angle_alpha   90.01148423
_cell_angle_beta   89.99349256
_cell_angle_gamma   90.01540401
_symmetry_Int_Tables_number   1
_chemical_formula_structural   V3Zn3O8
_chemical_formula_sum   'V96 Zn96 O256'
_cell_volume   4988.33772410
_cell_formula_units_Z   32
loop_
 _symmetry_equiv_pos_site_id
 _symmetry_equiv_pos_as_xyz
  1  'x, y, z'
loop_
 _atom_site_type_symbol
 _atom_site_label
 _atom_site_symmetry_multiplicity
 _atom_site_fract_x
 _atom_site_fract_y
 _atom_site_fract_z
 _atom_site_occupancy
  V  V0  1  0.37512188  0.74737729  0.12521619  1
  V  V1  1  0.37406571  0.49986518  0.37469351  1
  V  V2  1  0.12532286  0.75002425  0.37530815  1
  V  V3  1  0.12628571  0.25064894  0.37399709  1
  V  V4  1  0.12377735  0.62525696  -0.00065328  1
  V  V5  1  0.37570107  0.25016805  0.62523427  1
  V  V6  1  0.25076877  0.12488690  0.37334576  1
  V  V7  1  0.49868948  0.74777001  0.24955016  1
  V  V8  1  0.12394123  0.75165095  0.87343865  1
  V  V9  1  0.12663761  0.37557837  0.24812170  1
  V  V10  1  0.24998266  0.00164516  0.74904363  1
  V  V11  1  0.62423561  0.62452670  0.50099796  1
  V  V12  1  0.62466037  -0.00152728  0.12565432  1
  V  V13  1  0.25092399  0.62430799  0.37440777  1
  V  V14  1  0.74918253  0.87635086  0.62423140  1
  V  V15  1  0.12548993  0.50065528  0.62566630  1
  V  V16  1  0.87596976  0.12429167  0.24988983  1
  V  V17  1  0.37521380  0.37494614  0.50048083  1
  V  V18  1  0.87563377  0.00019718  0.37438649  1
  V  V19  1  0.87531971  0.24870823  0.12540094  1
  V  V20  1  0.24999597  0.87591038  0.62427754  1
  V  V21  1  0.62354337  0.49928190  0.12515027  1
  V  V22  1  0.37491293  0.00017726  0.37327468  1
  V  V23  1  0.12579965  0.49996451  0.12404075  1
  V  V24  1  0.87491027  0.12514063  0.75113276  1
  V  V25  1  0.62555534  0.37263702  0.25208664  1
  V  V26  1  0.87455320  -0.00072466  0.87585294  1
  V  V27  1  0.24954475  0.37607065  0.62576298  1
  V  V28  1  0.37536270  0.24984335  0.12376016  1
  V  V29  1  0.00075950  0.62477910  0.12461998  1
  V  V30  1  0.49979239  -0.00119896  -0.00149093  1
  V  V31  1  0.75001521  0.12541167  0.87526985  1
  V  V32  1  0.87251782  0.74866417  0.12571279  1
  V  V33  1  0.37546428  0.50150409  0.87423931  1
  V  V34  1  0.62494192  0.87393332  0.24968231  1
  V  V35  1  0.00002226  0.12649362  0.62524686  1
  V  V36  1  0.62548803  0.37520885  0.75137281  1
  V  V37  1  0.87473330  0.25114063  0.62520330  1
  V  V38  1  0.00008633  0.74935271  0.24985099  1
  V  V39  1  0.49970528  0.12534866  0.62533641  1
  V  V40  1  0.00079405  0.37598216  0.37590929  1
  V  V41  1  -0.00048272  0.49962263  0.49922826  1
  V  V42  1  0.12474546  -0.00037965  0.12377988  1
  V  V43  1  0.49941566  -0.00013652  0.49801849  1
  V  V44  1  0.50026526  0.37546797  0.87503238  1
  V  V45  1  0.62382250  0.74909319  0.37444031  1
  V  V46  1  0.75214922  0.49814555  0.25275572  1
  V  V47  1  0.12336446  0.87533417  0.75070609  1
  V  V48  1  0.12504884  0.00113115  0.62499421  1
  V  V49  1  0.74946534  -0.00139065  0.24959624  1
  V  V50  1  0.12532820  0.12623379  0.49962786  1
  V  V51  1  0.24960273  0.75082966  -0.00043391  1
  V  V52  1  0.87577981  0.37594425  0.00115738  1
  V  V53  1  0.00137757  0.12349556  0.12417883  1
  V  V54  1  0.12444345  0.37623252  0.75025698  1
  V  V55  1  0.62541660  0.12478090  0.49986408  1
  V  V56  1  -0.00066272  0.62628977  0.62574690  1
  V  V57  1  0.49906018  0.75060991  0.74910953  1
  V  V58  1  0.49878992  0.87515760  0.37470860  1
  V  V59  1  0.00036019  0.00091257  0.49965401  1
  V  V60  1  0.62493211  0.00050648  0.62446101  1
  V  V61  1  0.74962378  0.50173267  0.75182919  1
  V  V62  1  0.75067885  0.62333967  0.37621131  1
  V  V63  1  0.24952802  0.12627140  0.87488417  1
  V  V64  1  0.75096075  0.25051922  0.50138299  1
  V  V65  1  0.49987161  0.12502746  0.12457449  1
  V  V66  1  0.37488499  0.12565601  0.74917978  1
  V  V67  1  0.87515005  0.87471469  0.49950656  1
  V  V68  1  0.37480172  0.75126539  0.62445844  1
  V  V69  1  0.50031317  0.37328263  0.37637062  1
  V  V70  1  0.62552851  0.25042854  0.87605849  1
  V  V71  1  0.12493318  0.87491835  0.24926076  1
  V  V72  1  0.87429185  0.62712932  0.75091983  1
  V  V73  1  -0.00003378  0.25159747  0.75003019  1
  V  V74  1  0.62539998  0.74699907  0.87683883  1
  V  V75  1  0.25032643  0.25057913  0.49921686  1
  V  V76  1  0.00069681  0.87501831  0.37515046  1
  V  V77  1  0.24991457  0.75133698  0.50039784  1
  V  V78  1  0.25033385  0.62541400  0.87391484  1
  V  V79  1  0.50035079  0.50010937  0.50130852  1
  V  V80  1  0.12516446  0.12440977  -0.00069912  1
  V  V81  1  0.75025560  0.74962772  0.49943205  1
  V  V82  1  0.25061306  0.37529781  0.12385135  1
  V  V83  1  0.37563177  0.37585756  -0.00064149  1
  V  V84  1  0.25057249  0.00031198  0.24918217  1
  V  V85  1  0.62490105  0.24933257  0.37509521  1
  V  V86  1  0.87336920  0.87411640  0.00034886  1
  V  V87  1  0.75006278  0.37469420  0.62608779  1
  V  V88  1  0.49940122  0.87526187  0.87360702  1
  V  V89  1  0.49906136  0.62648019  0.62431518  1
  V  V90  1  -0.00010285  0.37656259  0.87576052  1
  V  V91  1  0.75046643  0.24907829  0.00073222  1
  V  V92  1  0.00110568  0.24975882  0.25016750  1
  V  V93  1  0.24933625  0.87404292  0.12364151  1
  V  V94  1  0.12443550  0.62577212  0.50079494  1
  V  V95  1  0.75045440  0.12477412  0.37518513  1
  Zn  Zn96  1  0.37456551  0.12514448  0.24874701  1
  Zn  Zn97  1  0.50077964  0.24832259  0.25080336  1
  Zn  Zn98  1  0.87651546  0.49972617  0.37679015  1
  Zn  Zn99  1  0.37589073  0.00036872  0.87394930  1
  Zn  Zn100  1  0.50049005  0.62311861  0.12538389  1
  Zn  Zn101  1  0.75038767  0.37292457  0.12719016  1
  Zn  Zn102  1  0.62618454  0.87643852  0.74964865  1
  Zn  Zn103  1  -0.00112643  0.87444209  0.87341797  1
  Zn  Zn104  1  0.24947483  0.50168279  0.74947880  1
  Zn  Zn105  1  0.87362730  0.50387448  0.87920640  1
  Zn  Zn106  1  0.37335539  0.62563473  0.74910255  1
  Zn  Zn107  1  0.12509176  0.25089852  0.87648129  1
  Zn  Zn108  1  0.24854543  0.25063558  -0.00189013  1
  Zn  Zn109  1  0.62628301  0.12532995  -0.00078081  1
  Zn  Zn110  1  0.25180224  0.50094867  0.24931282  1
  Zn  Zn111  1  0.87564547  0.75133150  0.62505131  1
  Zn  Zn112  1  0.87481572  0.37688809  0.49968782  1
  Zn  Zn113  1  0.74845904  0.00041677  0.74977221  1
  Zn  Zn114  1  0.74778581  0.74585305  0.00160243  1
  Zn  Zn115  1  -0.00099426  0.50127500  0.00049527  1
  Zn  Zn116  1  0.50242256  0.50226220  0.00134392  1
  Zn  Zn117  1  0.87683853  0.62247231  0.25178358  1
  Zn  Zn118  1  0.75031799  0.62610560  0.87849634  1
  Zn  Zn119  1  0.37532632  0.62167206  0.25000386  1
  Zn  Zn120  1  0.74782807  0.87273106  0.12540782  1
  Zn  Zn121  1  0.62365329  0.50047364  0.62622868  1
  Zn  Zn122  1  0.50085158  0.25006781  0.75042895  1
  Zn  Zn123  1  -0.00026259  -0.00087426  0.00006282  1
  Zn  Zn124  1  0.37428626  0.87604505  0.49917778  1
  Zn  Zn125  1  -0.00208633  0.75284446  0.74977773  1
  Zn  Zn126  1  0.37342284  0.87441754  -0.00180519  1
  Zn  Zn127  1  0.62567267  0.62418102  0.00232502  1
  Zn  Zn128  1  0.18887969  0.18759780  0.18576363  1
  Zn  Zn129  1  0.18687563  0.19050083  0.68858257  1
  Zn  Zn130  1  0.18873510  0.68576058  0.18839662  1
  Zn  Zn131  1  0.18803907  0.68834551  0.68936237  1
  Zn  Zn132  1  0.68757199  0.18618860  0.18711537  1
  Zn  Zn133  1  0.68763248  0.18758981  0.68973686  1
  Zn  Zn134  1  0.68798887  0.68359106  0.19001253  1
  Zn  Zn135  1  0.68556643  0.68972204  0.68813418  1
  Zn  Zn136  1  0.31380641  0.31308255  0.30947949  1
  Zn  Zn137  1  0.31274404  0.31291008  0.81098882  1
  Zn  Zn138  1  0.31293790  0.81240702  0.31143750  1
  Zn  Zn139  1  0.31265100  0.81292458  0.81083500  1
  Zn  Zn140  1  0.81456625  0.31318284  0.31493969  1
  Zn  Zn141  1  0.81273724  0.31299739  0.81370537  1
  Zn  Zn142  1  0.81200319  0.81162965  0.31242145  1
  Zn  Zn143  1  0.80966442  0.81283589  0.81148952  1
  Zn  Zn144  1  0.18723584  0.43868136  0.43764563  1
  Zn  Zn145  1  0.18869502  0.43890640  0.93877915  1
  Zn  Zn146  1  0.18799509  0.93785863  0.43719914  1
  Zn  Zn147  1  0.18732523  0.93846316  0.93667663  1
  Zn  Zn148  1  0.68647634  0.43706892  0.43951794  1
  Zn  Zn149  1  0.68920537  0.43637110  0.93838018  1
  Zn  Zn150  1  0.68626863  0.93700126  0.43664756  1
  Zn  Zn151  1  0.68758774  0.93519192  0.93900465  1
  Zn  Zn152  1  0.31322429  0.06142893  0.06012647  1
  Zn  Zn153  1  0.31364013  0.06279645  0.56082900  1
  Zn  Zn154  1  0.31091584  0.56254745  0.05998998  1
  Zn  Zn155  1  0.31274252  0.56349155  0.56161380  1
  Zn  Zn156  1  0.81153921  0.06175106  0.06248138  1
  Zn  Zn157  1  0.81360097  0.06292969  0.56252563  1
  Zn  Zn158  1  0.80840451  0.56328428  0.06388670  1
  Zn  Zn159  1  0.81344573  0.56147015  0.56461896  1
  Zn  Zn160  1  0.43896097  0.43546295  0.19075338  1
  Zn  Zn161  1  0.43838737  0.43807198  0.68921379  1
  Zn  Zn162  1  0.43611037  0.93454353  0.18749962  1
  Zn  Zn163  1  0.43686647  0.93812456  0.68734293  1
  Zn  Zn164  1  0.93944844  0.43751993  0.18737026  1
  Zn  Zn165  1  0.93599031  0.44029691  0.68726734  1
  Zn  Zn166  1  0.93780888  0.93619570  0.18661312  1
  Zn  Zn167  1  0.93691477  0.93850929  0.68805322  1
  Zn  Zn168  1  0.06406004  0.06257900  0.31137535  1
  Zn  Zn169  1  0.06147597  0.06176075  0.81322512  1
  Zn  Zn170  1  0.06418039  0.56169506  0.31135347  1
  Zn  Zn171  1  0.06132292  0.56261060  0.81262410  1
  Zn  Zn172  1  0.56213877  0.06228234  0.31086218  1
  Zn  Zn173  1  0.56458084  0.06339424  0.81036803  1
  Zn  Zn174  1  0.56133854  0.56192803  0.31199420  1
  Zn  Zn175  1  0.56047114  0.56388009  0.81077034  1
  Zn  Zn176  1  0.43702819  0.18665643  0.43782874  1
  Zn  Zn177  1  0.43759271  0.18815078  0.93699230  1
  Zn  Zn178  1  0.43573669  0.68731802  0.43817036  1
  Zn  Zn179  1  0.44062550  0.68391276  0.94187135  1
  Zn  Zn180  1  0.93734093  0.18959590  0.43771052  1
  Zn  Zn181  1  0.93845421  0.18825930  0.93796164  1
  Zn  Zn182  1  0.93584529  0.68594573  0.43758695  1
  Zn  Zn183  1  0.93865526  0.68933973  0.93636520  1
  Zn  Zn184  1  0.06388752  0.31019564  0.06150467  1
  Zn  Zn185  1  0.06255473  0.31401634  0.56247808  1
  Zn  Zn186  1  0.05975139  0.81207167  0.06026413  1
  Zn  Zn187  1  0.06195538  0.81182940  0.56484192  1
  Zn  Zn188  1  0.56313778  0.31557715  0.06131882  1
  Zn  Zn189  1  0.56407614  0.31255072  0.56435558  1
  Zn  Zn190  1  0.56077002  0.81217360  0.06166920  1
  Zn  Zn191  1  0.56234050  0.81302807  0.56063421  1
  O  O192  1  0.12111898  0.11903583  0.11979086  1
  O  O193  1  0.11971784  0.12132876  0.61940213  1
  O  O194  1  0.12063531  0.62105568  0.11898819  1
  O  O195  1  0.12021592  0.62061911  0.62003731  1
  O  O196  1  0.61527544  0.11850726  0.12286448  1
  O  O197  1  0.62045040  0.12082075  0.61899737  1
  O  O198  1  0.62495399  0.61069803  0.12788228  1
  O  O199  1  0.61732760  0.62543085  0.61802272  1
  O  O200  1  0.37993276  0.37824146  0.38173289  1
  O  O201  1  0.37894001  0.38193088  0.87893459  1
  O  O202  1  0.38096145  0.88203270  0.37541839  1
  O  O203  1  0.38752970  0.87693874  0.87585285  1
  O  O204  1  0.88542245  0.37683336  0.37839952  1
  O  O205  1  0.88344823  0.37476372  0.88459223  1
  O  O206  1  0.88109389  0.88076071  0.37958038  1
  O  O207  1  0.87303685  0.88251856  0.88220755  1
  O  O208  1  0.25418611  0.00525996  0.36927646  1
  O  O209  1  0.25178203  0.01013988  0.86818568  1
  O  O210  1  0.25632853  0.50630164  0.37585691  1
  O  O211  1  0.25938882  0.50603062  0.87452473  1
  O  O212  1  0.75584100  0.00543015  0.37021604  1
  O  O213  1  0.75958256  0.00501549  0.87533138  1
  O  O214  1  0.74925110  0.50399306  0.36734958  1
  O  O215  1  0.75160987  0.50064333  0.86251545  1
  O  O216  1  0.24392772  0.49300898  0.12520431  1
  O  O217  1  0.24369971  0.49366186  0.62470802  1
  O  O218  1  0.24490040  0.99425233  0.12911161  1
  O  O219  1  0.24383456  0.99686612  0.62867091  1
  O  O220  1  0.74283763  0.49622850  0.13744339  1
  O  O221  1  0.74826532  0.49402353  0.63632707  1
  O  O222  1  0.74293693  0.99911165  0.13248865  1
  O  O223  1  0.74433768  0.99145278  0.62204203  1
  O  O224  1  0.00687684  0.36824515  0.25471833  1
  O  O225  1  0.00304667  0.37154933  0.75757547  1
  O  O226  1  0.00564327  0.86981537  0.25601811  1
  O  O227  1  0.00754671  0.87450790  0.75118070  1
  O  O228  1  0.50775113  0.37090149  0.25957709  1
  O  O229  1  0.50740844  0.37339409  0.75674251  1
  O  O230  1  0.50579641  0.86888881  0.25575593  1
  O  O231  1  0.50142561  0.87088091  0.75870330  1
  O  O232  1  0.49768037  0.12524641  0.23615406  1
  O  O233  1  0.49329046  0.12652501  0.74287265  1
  O  O234  1  0.49644554  0.63300778  0.24753825  1
  O  O235  1  0.49673568  0.63283398  0.74188402  1
  O  O236  1  0.99565804  0.13013199  0.24519042  1
  O  O237  1  0.99499402  0.13091021  0.74441492  1
  O  O238  1  0.99999008  0.63210813  0.24348281  1
  O  O239  1  0.98932187  0.62411057  0.74447422  1
  O  O240  1  0.37425622  0.25557782  0.00994365  1
  O  O241  1  0.36909779  0.25526361  0.50524298  1
  O  O242  1  0.36867705  0.75083408  0.00927460  1
  O  O243  1  0.36748754  0.75327754  0.50589689  1
  O  O244  1  0.87108802  0.25694231  0.00572891  1
  O  O245  1  0.86847426  0.25051030  0.50752329  1
  O  O246  1  0.87439403  0.75744573  0.00923584  1
  O  O247  1  0.86804738  0.75749479  0.50023487  1
  O  O248  1  0.13070656  0.24513059  0.49442048  1
  O  O249  1  0.12848697  0.24053181  0.99710337  1
  O  O250  1  0.12976164  0.74545014  0.49457131  1
  O  O251  1  0.13012857  0.74541558  0.99439882  1
  O  O252  1  0.63132996  0.24346848  0.49515347  1
  O  O253  1  0.63293653  0.25026911  0.99400295  1
  O  O254  1  0.63011204  0.74465738  0.49295191  1
  O  O255  1  0.62549156  0.75084432  0.98951783  1
  O  O256  1  0.49301356  0.24092509  0.12302080  1
  O  O257  1  0.49351539  0.24276994  0.62512742  1
  O  O258  1  0.48961068  0.75121596  0.13074087  1
  O  O259  1  0.49488998  0.74697122  0.62848578  1
  O  O260  1  0.99533982  0.24335840  0.13142894  1
  O  O261  1  0.99507743  0.24533534  0.62978946  1
  O  O262  1  0.99214412  0.74520893  0.13026285  1
  O  O263  1  0.99667794  0.74213034  0.62790018  1
  O  O264  1  0.00725325  0.25408787  0.36951622  1
  O  O265  1  -0.00008385  0.26063808  0.86860393  1
  O  O266  1  0.00584708  0.75573029  0.37073512  1
  O  O267  1  0.00885455  0.75348117  0.87121930  1
  O  O268  1  0.50691530  0.25459876  0.37526125  1
  O  O269  1  0.50681362  0.25672823  0.87420482  1
  O  O270  1  0.50458421  0.75512328  0.37043492  1
  O  O271  1  0.50540027  0.75768009  0.87106160  1
  O  O272  1  0.24424533  0.13092405  0.49388211  1
  O  O273  1  0.24503825  0.12416380  0.98987593  1
  O  O274  1  0.24306491  0.63184188  0.49506202  1
  O  O275  1  0.24281191  0.63190622  0.99363595  1
  O  O276  1  0.74537360  0.12986731  0.49448097  1
  O  O277  1  0.74932147  0.13121274  0.99352334  1
  O  O278  1  0.74436900  0.62958511  0.49657176  1
  O  O279  1  0.74438634  0.62774041  0.99562035  1
  O  O280  1  0.25760597  0.37232555  0.00567573  1
  O  O281  1  0.25500792  0.36927544  0.50532009  1
  O  O282  1  0.25116817  0.86907758  0.00588333  1
  O  O283  1  0.24957247  0.86948738  0.50646921  1
  O  O284  1  0.76217882  0.36807447  0.00104247  1
  O  O285  1  0.75044654  0.36778945  0.50746539  1
  O  O286  1  0.76168264  0.87146273  0.00396158  1
  O  O287  1  0.75500014  0.87051893  0.50505822  1
  O  O288  1  0.12743314  0.49244348  0.24220470  1
  O  O289  1  0.12547210  0.49360074  0.74304173  1
  O  O290  1  0.13062488  0.99403131  0.24427847  1
  O  O291  1  0.12995256  0.99666076  0.74335027  1
  O  O292  1  0.63328115  0.49292755  0.24614874  1
  O  O293  1  0.63397387  0.49506886  0.74928262  1
  O  O294  1  0.62994055  0.99376784  0.24565351  1
  O  O295  1  0.62854056  0.99738135  0.74043037  1
  O  O296  1  0.36768355  0.00085528  0.25485668  1
  O  O297  1  0.36759599  0.00808672  0.75009097  1
  O  O298  1  0.37265892  0.50020252  0.25916704  1
  O  O299  1  0.37273934  0.50095527  0.76269650  1
  O  O300  1  0.87071342  0.00451429  0.25548006  1
  O  O301  1  0.87299344  0.00625481  0.75934030  1
  O  O302  1  0.86339996  0.49920357  0.25094236  1
  O  O303  1  0.86582222  0.50940345  0.75135635  1
  O  O304  1  0.12153508  0.36881346  0.36894139  1
  O  O305  1  0.11568030  0.37468361  0.87086841  1
  O  O306  1  0.11975418  0.87036002  0.36944399  1
  O  O307  1  0.12414251  0.87059517  0.86845273  1
  O  O308  1  0.61969152  0.36802264  0.37242339  1
  O  O309  1  0.62033744  0.37015545  0.87057456  1
  O  O310  1  0.61878832  0.86913358  0.36944761  1
  O  O311  1  0.61424885  0.86816564  0.87395016  1
  O  O312  1  0.38282027  0.13257956  0.12330711  1
  O  O313  1  0.37967724  0.13064842  0.62885135  1
  O  O314  1  0.37291778  0.63732392  0.12618612  1
  O  O315  1  0.38094977  0.63307444  0.62462710  1
  O  O316  1  0.88103184  0.12866875  0.13117483  1
  O  O317  1  0.88095054  0.13009336  0.63053327  1
  O  O318  1  0.88089173  0.63433882  0.12658594  1
  O  O319  1  0.88015779  0.62659412  0.63475172  1
  O  O320  1  0.26044745  0.25459981  0.12255329  1
  O  O321  1  0.25506963  0.25561451  0.61840514  1
  O  O322  1  0.25575470  0.75481113  0.12019567  1
  O  O323  1  0.25403958  0.75629031  0.61945263  1
  O  O324  1  0.75775368  0.25013465  0.12001559  1
  O  O325  1  0.75528456  0.25403588  0.62071902  1
  O  O326  1  0.76159865  0.75000738  0.12730785  1
  O  O327  1  0.74984474  0.76079962  0.61758149  1
  O  O328  1  0.24564917  0.24535458  0.37946745  1
  O  O329  1  0.24855693  0.23771808  0.87477212  1
  O  O330  1  0.24398723  0.74613538  0.38028319  1
  O  O331  1  0.24500447  0.74579876  0.88034567  1
  O  O332  1  0.74550576  0.24347977  0.38094217  1
  O  O333  1  0.74610600  0.24498176  0.88113674  1
  O  O334  1  0.74352225  0.74448408  0.37971935  1
  O  O335  1  0.73627211  0.75105434  0.87490071  1
  O  O336  1  0.00602622  0.12354232  0.00695820  1
  O  O337  1  0.00560180  0.12081914  0.50486078  1
  O  O338  1  0.00610006  0.62428811  0.00641829  1
  O  O339  1  0.00599470  0.62051013  0.50516870  1
  O  O340  1  0.50139881  0.11591694  0.00807897  1
  O  O341  1  0.50611795  0.11941091  0.50497370  1
  O  O342  1  0.50719649  0.61926564  0.00742345  1
  O  O343  1  0.50523760  0.62007713  0.50436229  1
  O  O344  1  0.49472925  0.37957880  0.49623669  1
  O  O345  1  0.49308920  0.37898145  0.99269359  1
  O  O346  1  0.49907891  0.88236091  0.49187287  1
  O  O347  1  0.49836947  0.88330909  0.99124888  1
  O  O348  1  1.00105885  0.38161754  0.49361249  1
  O  O349  1  0.99185756  0.37341181  0.99253264  1
  O  O350  1  0.99614239  0.88145626  0.49477358  1
  O  O351  1  0.98574824  0.87747905  0.99779902  1
  O  O352  1  0.49495784  0.49316408  0.38200284  1
  O  O353  1  0.49080737  0.49450648  0.87530681  1
  O  O354  1  0.49505141  0.99552741  0.37836472  1
  O  O355  1  0.50168501  0.99311992  0.88221555  1
  O  O356  1  1.00174414  0.49383442  0.38112477  1
  O  O357  1  0.99662736  0.48733969  0.87719961  1
  O  O358  1  0.99585280  0.99518944  0.37962408  1
  O  O359  1  0.98569078  0.99952560  0.87717361  1
  O  O360  1  0.00699613  0.00633305  0.12541032  1
  O  O361  1  0.00502030  0.00716805  0.61891344  1
  O  O362  1  0.00734869  0.50681974  0.12388707  1
  O  O363  1  0.00628631  0.50579508  0.61951237  1
  O  O364  1  0.50336714  0.00531074  0.11802388  1
  O  O365  1  0.50497164  0.00556786  0.61797572  1
  O  O366  1  0.51199386  0.49820215  0.12717599  1
  O  O367  1  0.49999801  0.50708823  0.61866690  1
  O  O368  1  0.24329393  0.37560169  0.24202182  1
  O  O369  1  0.24263950  0.37631179  0.74297186  1
  O  O370  1  0.24307905  0.87997529  0.24409172  1
  O  O371  1  0.24411803  0.88233251  0.74388307  1
  O  O372  1  0.74467315  0.38229936  0.25209572  1
  O  O373  1  0.74637850  0.38283224  0.74661684  1
  O  O374  1  0.74295568  0.88150107  0.25039115  1
  O  O375  1  0.74861253  0.87794940  0.73566293  1
  O  O376  1  0.25050612  0.11801476  0.25576417  1
  O  O377  1  0.25355821  0.12105314  0.75599505  1
  O  O378  1  0.25212808  0.62241765  0.25952972  1
  O  O379  1  0.25290509  0.62253219  0.75807866  1
  O  O380  1  0.75629998  0.11875404  0.25614063  1
  O  O381  1  0.75812509  0.12380332  0.75704116  1
  O  O382  1  0.75085113  0.61330887  0.25816667  1
  O  O383  1  0.75685999  0.61754197  0.74924792  1
  O  O384  1  0.36854972  0.11943642  0.37205019  1
  O  O385  1  0.36629171  0.12410727  0.86898527  1
  O  O386  1  0.36805979  0.61779136  0.37601977  1
  O  O387  1  0.37015494  0.61636505  0.87579617  1
  O  O388  1  0.87082487  0.11987687  0.36962432  1
  O  O389  1  0.87060397  0.11806233  0.87153466  1
  O  O390  1  0.86684617  0.62165163  0.37182088  1
  O  O391  1  0.87312620  0.62396048  0.86445460  1
  O  O392  1  0.13020612  0.37912764  0.12836138  1
  O  O393  1  0.12996317  0.38074205  0.62998481  1
  O  O394  1  0.12899146  0.87909001  0.12991724  1
  O  O395  1  0.13021485  0.88240666  0.62965954  1
  O  O396  1  0.62798585  0.38123608  0.13370095  1
  O  O397  1  0.63216827  0.37610396  0.63304360  1
  O  O398  1  0.62526671  0.88021907  0.13206291  1
  O  O399  1  0.63437401  0.88143319  0.62206792  1
  O  O400  1  0.12020615  0.25467664  0.25428169  1
  O  O401  1  0.11680688  0.25803152  0.75134973  1
  O  O402  1  0.11990959  0.75602232  0.25522531  1
  O  O403  1  0.12491951  0.75819197  0.75623826  1
  O  O404  1  0.62509234  0.25422449  0.25767268  1
  O  O405  1  0.62510924  0.25718958  0.75809406  1
  O  O406  1  0.61979614  0.75429832  0.25556096  1
  O  O407  1  0.61726153  0.75418170  0.75858224  1
  O  O408  1  0.37845397  0.24819652  0.23601761  1
  O  O409  1  0.37647741  0.24391240  0.74204000  1
  O  O410  1  0.37971201  0.74929763  0.24062893  1
  O  O411  1  0.38142700  0.74949004  0.74206099  1
  O  O412  1  0.88099446  0.24338753  0.24587188  1
  O  O413  1  0.88050441  0.24482041  0.74494798  1
  O  O414  1  0.88147407  0.75053617  0.24118663  1
  O  O415  1  0.87380797  0.73908795  0.74768398  1
  O  O416  1  0.38059815  0.49331864  0.49501626  1
  O  O417  1  0.37554740  0.49444509  0.98918472  1
  O  O418  1  0.38166145  0.99939548  0.49180952  1
  O  O419  1  0.38805086  0.99705392  0.99793930  1
  O  O420  1  0.88382797  0.49768489  0.49897336  1
  O  O421  1  0.87577414  0.48784163  1.00113339  1
  O  O422  1  0.88145407  0.99600987  0.49325711  1
  O  O423  1  0.87467471  0.99194147  0.99288785  1
  O  O424  1  0.12240895  0.00556527  0.00665813  1
  O  O425  1  0.11967368  0.00663242  0.50459175  1
  O  O426  1  0.12290733  0.50742311  0.00628110  1
  O  O427  1  0.11988444  0.50660722  0.50614165  1
  O  O428  1  0.61450782  -0.00021493  0.00580777  1
  O  O429  1  0.61931480  0.00657767  0.50318346  1
  O  O430  1  0.62730155  0.49573227  0.01452517  1
  O  O431  1  0.61799226  0.50668410  0.50249003  1
  O  O432  1  0.37199262  0.36750902  0.11996503  1
  O  O433  1  0.36990895  0.37029843  0.61978707  1
  O  O434  1  0.36786023  0.86378295  0.12373267  1
  O  O435  1  0.36742158  0.87008298  0.62264626  1
  O  O436  1  0.87687351  0.36736036  0.11625852  1
  O  O437  1  0.86848217  0.36781111  0.62512898  1
  O  O438  1  0.87426156  0.86612817  0.11842274  1
  O  O439  1  0.86585185  0.87650865  0.61750572  1
  O  O440  1  0.13046946  0.13069194  0.38011029  1
  O  O441  1  0.13364107  0.12501263  0.87916187  1
  O  O442  1  0.12976870  0.63132685  0.38124080  1
  O  O443  1  0.12971182  0.63042034  0.87983053  1
  O  O444  1  0.63080901  0.12875763  0.37996594  1
  O  O445  1  0.63170806  0.13158188  0.87654455  1
  O  O446  1  0.63000075  0.63026178  0.38118732  1
  O  O447  1  0.62387693  0.63712622  0.87462602  1
