# generated using pymatgen
data_V3Zn3O8
_symmetry_space_group_name_H-M   'P 1'
_cell_length_a   17.08490648
_cell_length_b   17.08495268
_cell_length_c   17.08465953
_cell_angle_alpha   90.00230501
_cell_angle_beta   89.99904545
_cell_angle_gamma   90.00356067
_symmetry_Int_Tables_number   1
_chemical_formula_structural   V3Zn3O8
_chemical_formula_sum   'V96 Zn96 O256'
_cell_volume   4986.92358219
_cell_formula_units_Z   32
loop_
 _symmetry_equiv_pos_site_id
 _symmetry_equiv_pos_as_xyz
  1  'x, y, z'
loop_
 _atom_site_type_symbol
 _atom_site_label
 _atom_site_symmetry_multiplicity
 _atom_site_fract_x
 _atom_site_fract_y
 _atom_site_fract_z
 _atom_site_occupancy
  V  V0  1  0.87510844  -0.00030218  0.37484552  1
  V  V1  1  0.37477778  0.87484270  0.00010577  1
  V  V2  1  0.12494384  0.62387354  0.00037241  1
  V  V3  1  0.50006583  0.49923228  0.00035904  1
  V  V4  1  0.62425115  0.75105774  0.37341560  1
  V  V5  1  0.25003334  0.87409057  0.62504427  1
  V  V6  1  0.12576971  0.25092301  0.37429657  1
  V  V7  1  0.87456531  0.12457184  0.25093192  1
  V  V8  1  0.62396746  0.37484849  0.25132821  1
  V  V9  1  -0.00030258  0.75023752  0.74959904  1
  V  V10  1  0.00061580  0.75064567  0.24845471  1
  V  V11  1  0.87453064  0.37373984  0.00043217  1
  V  V12  1  0.62820529  0.49787491  0.62706051  1
  V  V13  1  0.49997090  0.62528644  0.62561003  1
  V  V14  1  0.37398800  0.24986174  0.12527614  1
  V  V15  1  -0.00159834  0.12344107  0.12557434  1
  V  V16  1  0.87506598  0.37501013  0.50258359  1
  V  V17  1  0.37530951  0.37586747  0.50171398  1
  V  V18  1  0.50111648  0.37514252  0.37539707  1
  V  V19  1  0.12703001  0.49902337  0.62501328  1
  V  V20  1  0.62647986  0.74858311  0.87526287  1
  V  V21  1  0.24990731  0.25123420  0.00187388  1
  V  V22  1  0.12628416  0.12555762  0.49969858  1
  V  V23  1  0.25061466  0.62385620  0.87616382  1
  V  V24  1  0.00028296  0.62495552  0.62329129  1
  V  V25  1  0.87532922  0.50076732  0.37421277  1
  V  V26  1  0.25156314  0.25164008  0.50082556  1
  V  V27  1  0.74971882  0.75102088  0.49954019  1
  V  V28  1  0.25030606  0.00077204  0.24954552  1
  V  V29  1  0.87438224  0.74978307  0.62350828  1
  V  V30  1  0.87596633  0.49948845  0.87498595  1
  V  V31  1  0.12417327  0.25037766  0.87401127  1
  V  V32  1  0.49980880  0.37451747  0.87614835  1
  V  V33  1  0.74890934  0.12469734  0.37627483  1
  V  V34  1  0.75085909  0.62347552  0.87432491  1
  V  V35  1  0.37634383  0.75053734  0.12583730  1
  V  V36  1  -0.00087564  0.87538860  0.87312618  1
  V  V37  1  0.37473506  0.62367617  0.75174764  1
  V  V38  1  0.37397943  0.12501049  0.75066931  1
  V  V39  1  0.87510665  0.62409433  0.74993024  1
  V  V40  1  0.62483368  0.49983223  0.12525200  1
  V  V41  1  0.37550017  0.00060319  0.37592529  1
  V  V42  1  0.00090643  0.62357439  0.12421724  1
  V  V43  1  0.49957248  0.87581641  0.37503642  1
  V  V44  1  0.62399901  -0.00088498  0.62551733  1
  V  V45  1  -0.00096733  -0.00110414  -0.00195912  1
  V  V46  1  0.24992546  -0.00039522  0.75005406  1
  V  V47  1  0.87479211  0.87406047  0.49958241  1
  V  V48  1  0.00066338  0.25028697  0.25160485  1
  V  V49  1  0.12533346  0.87575185  0.24904720  1
  V  V50  1  0.37584193  0.12599336  0.24964973  1
  V  V51  1  0.37444458  0.74976485  0.62539359  1
  V  V52  1  0.62439399  0.12462476  0.00013824  1
  V  V53  1  0.74966314  0.24967959  0.00037571  1
  V  V54  1  0.62639193  0.62433810  -0.00075520  1
  V  V55  1  0.37481697  0.25086344  0.62676132  1
  V  V56  1  0.62517283  0.87513043  0.74988269  1
  V  V57  1  0.75022569  0.49990260  0.25046532  1
  V  V58  1  0.74904269  0.00013783  0.75043762  1
  V  V59  1  0.74968242  0.37383379  0.12506123  1
  V  V60  1  0.75003208  0.12459909  0.87439275  1
  V  V61  1  0.74984147  0.00005684  0.24911308  1
  V  V62  1  0.87464068  0.00076610  0.87345654  1
  V  V63  1  0.00023509  0.87530664  0.37411208  1
  V  V64  1  0.37581909  0.49976388  0.87652373  1
  V  V65  1  0.25034481  0.75076794  0.50057714  1
  V  V66  1  0.12426014  -0.00098595  0.12362967  1
  V  V67  1  0.75003594  0.87443796  0.12323117  1
  V  V68  1  0.25043181  0.74956780  -0.00057090  1
  V  V69  1  0.87471518  0.75017236  0.12333696  1
  V  V70  1  0.62486509  0.62662788  0.49985247  1
  V  V71  1  0.12360286  0.12449744  -0.00077484  1
  V  V72  1  0.12383788  0.87388517  0.74937985  1
  V  V73  1  0.49970997  0.50040388  0.50129534  1
  V  V74  1  0.62388466  0.25006356  0.87453597  1
  V  V75  1  0.25082045  0.62654429  0.37460272  1
  V  V76  1  0.62546516  0.12646019  0.50021116  1
  V  V77  1  -0.00188663  0.12873931  0.62514172  1
  V  V78  1  0.50074492  0.62576918  0.12628957  1
  V  V79  1  0.37347799  -0.00039405  0.87442743  1
  V  V80  1  0.00066625  0.00021213  0.49914557  1
  V  V81  1  0.49891485  0.24971609  0.75169257  1
  V  V82  1  0.12527023  -0.00011522  0.62448512  1
  V  V83  1  0.12475790  0.62544623  0.49936098  1
  V  V84  1  0.49917445  0.12520342  0.12549005  1
  V  V85  1  0.37559563  0.62674973  0.25074371  1
  V  V86  1  0.49905420  -0.00031870  0.00037592  1
  V  V87  1  0.00126567  0.37481820  0.87585121  1
  V  V88  1  0.62522369  -0.00041016  0.12505306  1
  V  V89  1  0.50042223  0.74944537  0.75035161  1
  V  V90  1  0.12517993  0.75071608  0.37466829  1
  V  V91  1  0.24880596  0.49999126  0.24933630  1
  V  V92  1  0.49934547  0.00062350  0.50023125  1
  V  V93  1  0.50001714  0.87420171  0.87522867  1
  V  V94  1  0.25136993  0.12565223  0.37519227  1
  V  V95  1  0.25043212  0.87559706  0.12392793  1
  Zn  Zn96  1  0.00087603  0.49769437  0.00256437  1
  Zn  Zn97  1  0.24982045  0.49765448  0.75198232  1
  Zn  Zn98  1  0.24996044  0.37590294  0.62810723  1
  Zn  Zn99  1  0.49938326  0.12486752  0.62598328  1
  Zn  Zn100  1  0.75056110  0.62678859  0.37221459  1
  Zn  Zn101  1  -0.00144208  0.25068841  0.74806855  1
  Zn  Zn102  1  0.75101828  0.74891982  -0.00084480  1
  Zn  Zn103  1  0.12544347  0.37563220  0.25006897  1
  Zn  Zn104  1  0.12411666  0.74901501  0.87373536  1
  Zn  Zn105  1  0.12408244  0.49524832  0.12689395  1
  Zn  Zn106  1  0.00140914  0.49976560  0.49652119  1
  Zn  Zn107  1  0.49986218  0.25094617  0.24988342  1
  Zn  Zn108  1  0.37452019  0.87598297  0.50069189  1
  Zn  Zn109  1  0.00169440  0.37715249  0.37444329  1
  Zn  Zn110  1  0.37486204  0.50194672  0.37608956  1
  Zn  Zn111  1  0.75268465  0.49585607  0.74858241  1
  Zn  Zn112  1  0.62587491  0.24947184  0.37443668  1
  Zn  Zn113  1  0.75069253  0.36985151  0.62720682  1
  Zn  Zn114  1  0.37442535  0.37632748  0.00339949  1
  Zn  Zn115  1  0.62342163  0.87481121  0.24890519  1
  Zn  Zn116  1  0.87373710  0.62380880  0.24939201  1
  Zn  Zn117  1  0.62825171  0.37320306  0.74983961  1
  Zn  Zn118  1  0.50037124  0.75169986  0.24985961  1
  Zn  Zn119  1  0.75072822  0.25125432  0.50079872  1
  Zn  Zn120  1  0.12707289  0.37526022  0.74860285  1
  Zn  Zn121  1  0.87372109  0.12786607  0.74776296  1
  Zn  Zn122  1  0.24905377  0.37575777  0.12802626  1
  Zn  Zn123  1  0.24827757  0.12454807  0.87433971  1
  Zn  Zn124  1  0.87535467  0.87469898  -0.00255750  1
  Zn  Zn125  1  0.87177875  0.25118964  0.62647257  1
  Zn  Zn126  1  0.75000866  0.87521286  0.62537356  1
  Zn  Zn127  1  0.87391204  0.24905373  0.12656786  1
  Zn  Zn128  1  0.18608376  0.18598223  0.18696242  1
  Zn  Zn129  1  0.18814854  0.18801998  0.68763424  1
  Zn  Zn130  1  0.18853327  0.68744347  0.18703555  1
  Zn  Zn131  1  0.18770321  0.68522685  0.68875043  1
  Zn  Zn132  1  0.68582769  0.18887395  0.18883806  1
  Zn  Zn133  1  0.68813572  0.18831019  0.68606508  1
  Zn  Zn134  1  0.68821559  0.68622037  0.18910041  1
  Zn  Zn135  1  0.68941067  0.68633204  0.68763202  1
  Zn  Zn136  1  0.31460110  0.31424322  0.31368063  1
  Zn  Zn137  1  0.31163583  0.31577233  0.81290904  1
  Zn  Zn138  1  0.31354650  0.81356173  0.31253891  1
  Zn  Zn139  1  0.31140146  0.81118462  0.81228411  1
  Zn  Zn140  1  0.81169826  0.31237848  0.31606743  1
  Zn  Zn141  1  0.81350053  0.31122277  0.80840648  1
  Zn  Zn142  1  0.81185441  0.81282136  0.31061798  1
  Zn  Zn143  1  0.81216917  0.81235052  0.81161990  1
  Zn  Zn144  1  0.18818131  0.43698449  0.43603555  1
  Zn  Zn145  1  0.18845427  0.43774216  0.94002432  1
  Zn  Zn146  1  0.18867357  0.93740172  0.43773332  1
  Zn  Zn147  1  0.18599927  0.93593694  0.93524844  1
  Zn  Zn148  1  0.68960046  0.43818549  0.43943046  1
  Zn  Zn149  1  0.68809655  0.43693824  0.93618802  1
  Zn  Zn150  1  0.68705324  0.93760879  0.43832589  1
  Zn  Zn151  1  0.68794651  0.93715076  0.93768758  1
  Zn  Zn152  1  0.31160608  0.06456035  0.06123348  1
  Zn  Zn153  1  0.31388826  0.06371212  0.56367336  1
  Zn  Zn154  1  0.31374183  0.56323951  0.06445191  1
  Zn  Zn155  1  0.31197885  0.56285905  0.56240583  1
  Zn  Zn156  1  0.81378249  0.06228076  0.06149711  1
  Zn  Zn157  1  0.81114180  0.06063151  0.56286575  1
  Zn  Zn158  1  0.81265328  0.56014108  0.06033040  1
  Zn  Zn159  1  0.81126785  0.56341922  0.55925676  1
  Zn  Zn160  1  0.43456574  0.43791572  0.18805014  1
  Zn  Zn161  1  0.43891956  0.43649989  0.68965042  1
  Zn  Zn162  1  0.43816567  0.93754183  0.18946135  1
  Zn  Zn163  1  0.43745613  0.93747629  0.68692326  1
  Zn  Zn164  1  0.93605390  0.43578903  0.18795374  1
  Zn  Zn165  1  0.94183724  0.43824819  0.68820324  1
  Zn  Zn166  1  0.93642728  0.93720415  0.18667594  1
  Zn  Zn167  1  0.93615295  0.93917512  0.68676157  1
  Zn  Zn168  1  0.06346816  0.06392992  0.31249314  1
  Zn  Zn169  1  0.06164981  0.06288780  0.81032408  1
  Zn  Zn170  1  0.06209639  0.56426400  0.31117953  1
  Zn  Zn171  1  0.06218308  0.56159126  0.81174203  1
  Zn  Zn172  1  0.56262808  0.06182195  0.31192917  1
  Zn  Zn173  1  0.56132603  0.06323222  0.81233543  1
  Zn  Zn174  1  0.56213389  0.56278841  0.31263677  1
  Zn  Zn175  1  0.56279374  0.56102122  0.81186053  1
  Zn  Zn176  1  0.43900798  0.18913658  0.43845209  1
  Zn  Zn177  1  0.43539416  0.18661981  0.93732936  1
  Zn  Zn178  1  0.43747591  0.68869417  0.43825217  1
  Zn  Zn179  1  0.43854890  0.68624831  0.93887598  1
  Zn  Zn180  1  0.93659127  0.18898358  0.43833769  1
  Zn  Zn181  1  0.93555375  0.18730806  0.93783074  1
  Zn  Zn182  1  0.93732119  0.68605842  0.43647209  1
  Zn  Zn183  1  0.93771168  0.68796909  0.93696771  1
  Zn  Zn184  1  0.06403288  0.31252235  0.06582934  1
  Zn  Zn185  1  0.06163316  0.31533122  0.55786597  1
  Zn  Zn186  1  0.06281591  0.81208969  0.05940180  1
  Zn  Zn187  1  0.06186009  0.81207548  0.56242178  1
  Zn  Zn188  1  0.56167465  0.31251328  0.06262098  1
  Zn  Zn189  1  0.56100395  0.31156049  0.56391206  1
  Zn  Zn190  1  0.56360006  0.81108685  0.06150064  1
  Zn  Zn191  1  0.56164389  0.81408486  0.56173833  1
  O  O192  1  0.11854896  0.11718762  0.11923131  1
  O  O193  1  0.11914277  0.11916880  0.61864484  1
  O  O194  1  0.11576878  0.62834567  0.11678801  1
  O  O195  1  0.12028701  0.61926696  0.61904895  1
  O  O196  1  0.61953360  0.11877502  0.11950799  1
  O  O197  1  0.62254649  0.11733844  0.61542090  1
  O  O198  1  0.62070542  0.61935729  0.11988649  1
  O  O199  1  0.61871065  0.61939478  0.61999865  1
  O  O200  1  0.38575073  0.37771184  0.38223463  1
  O  O201  1  0.38196022  0.38161799  0.87974460  1
  O  O202  1  0.38039696  0.88265012  0.37688231  1
  O  O203  1  0.38033351  0.87909070  0.88048901  1
  O  O204  1  0.87537003  0.38521054  0.38256989  1
  O  O205  1  0.88387266  0.37855458  0.88058173  1
  O  O206  1  0.88135346  0.87973264  0.37866269  1
  O  O207  1  0.88096316  0.88168079  0.87553704  1
  O  O208  1  0.25490535  0.00565632  0.36932565  1
  O  O209  1  0.25560761  -0.00023945  0.86823996  1
  O  O210  1  0.25178683  0.50888789  0.36706568  1
  O  O211  1  0.25735500  0.50691175  0.87715053  1
  O  O212  1  0.75596685  0.00377782  0.36881239  1
  O  O213  1  0.75395555  0.00497517  0.87053165  1
  O  O214  1  0.75862576  0.50178000  0.36882152  1
  O  O215  1  0.75747281  0.50617760  0.87339950  1
  O  O216  1  0.24896523  0.50204099  0.13757038  1
  O  O217  1  0.23818302  0.50106043  0.62578974  1
  O  O218  1  0.24432133  0.99524915  0.12939030  1
  O  O219  1  0.24451670  0.99447143  0.62981674  1
  O  O220  1  0.74425922  0.49338610  0.12961073  1
  O  O221  1  0.73740279  0.50221357  0.62488030  1
  O  O222  1  0.74596352  0.99264281  0.12873855  1
  O  O223  1  0.74236141  0.99743980  0.63212498  1
  O  O224  1  0.00030242  0.36092360  0.25134482  1
  O  O225  1  0.00427164  0.37304068  0.76463857  1
  O  O226  1  0.00607162  0.87122823  0.25441877  1
  O  O227  1  0.00479228  0.87042466  0.75318647  1
  O  O228  1  0.50464637  0.37753509  0.26019752  1
  O  O229  1  0.50185960  0.36697190  0.75879563  1
  O  O230  1  0.50287123  0.87262259  0.25850410  1
  O  O231  1  0.50477064  0.86907080  0.75639292  1
  O  O232  1  0.49351363  0.12551204  0.24345790  1
  O  O233  1  0.49163579  0.13124443  0.75038363  1
  O  O234  1  0.49405249  0.62707311  0.24371054  1
  O  O235  1  0.49475045  0.63126714  0.74566365  1
  O  O236  1  0.99465790  0.13026371  0.24567327  1
  O  O237  1  0.99990340  0.12510588  0.73610907  1
  O  O238  1  0.99996220  0.63312541  0.23871447  1
  O  O239  1  0.99450881  0.63112334  0.74412069  1
  O  O240  1  0.36398543  0.24782923  0.00564736  1
  O  O241  1  0.37091954  0.25514229  0.50643007  1
  O  O242  1  0.37074188  0.75553040  0.00587525  1
  O  O243  1  0.36811811  0.75151198  0.50776010  1
  O  O244  1  0.86722043  0.25535213  0.00231392  1
  O  O245  1  0.87502801  0.26242638  0.50075245  1
  O  O246  1  0.87349788  0.75221538  0.01191958  1
  O  O247  1  0.87035396  0.75497141  0.50345319  1
  O  O248  1  0.13155507  0.24443881  0.49386016  1
  O  O249  1  0.13095123  0.24408224  0.99404468  1
  O  O250  1  0.13036700  0.74593719  0.49397851  1
  O  O251  1  0.13148008  0.74035436  0.99847847  1
  O  O252  1  0.62393445  0.23615623  0.49930610  1
  O  O253  1  0.62970751  0.24338192  0.99505732  1
  O  O254  1  0.62907076  0.74684014  0.49219527  1
  O  O255  1  0.62653443  0.74233386  0.99291039  1
  O  O256  1  0.49253899  0.24229518  0.12488454  1
  O  O257  1  0.49271637  0.24783422  0.63324136  1
  O  O258  1  0.49425701  0.74414938  0.12564600  1
  O  O259  1  0.49516844  0.74499529  0.63067806  1
  O  O260  1  0.99887318  0.24133978  0.13523349  1
  O  O261  1  1.00312722  0.23762727  0.62293749  1
  O  O262  1  0.99328473  0.74465173  0.12810535  1
  O  O263  1  0.99420955  0.74469954  0.62954075  1
  O  O264  1  0.00666200  0.24684058  0.36490498  1
  O  O265  1  0.00930757  0.25757754  0.87819308  1
  O  O266  1  0.00519162  0.75581022  0.36855118  1
  O  O267  1  0.00017377  0.75654481  0.86713389  1
  O  O268  1  0.50167319  0.26365452  0.37387374  1
  O  O269  1  0.50421801  0.25416883  0.87225402  1
  O  O270  1  0.50962512  0.75643090  0.37566003  1
  O  O271  1  0.50551564  0.75473641  0.87013591  1
  O  O272  1  0.24570409  0.13062435  0.49446829  1
  O  O273  1  0.24230451  0.13378441  0.99798113  1
  O  O274  1  0.24481764  0.63222269  0.49416367  1
  O  O275  1  0.24324658  0.63042722  0.99712368  1
  O  O276  1  0.73936990  0.12065167  0.49372625  1
  O  O277  1  0.74360000  0.12904656  0.99515015  1
  O  O278  1  0.74225693  0.63379790  0.49637754  1
  O  O279  1  0.74350731  0.62526991  0.99322689  1
  O  O280  1  0.25048068  0.36170356  0.00317948  1
  O  O281  1  0.25795827  0.36845103  0.50035253  1
  O  O282  1  0.25505117  0.87037723  0.00489017  1
  O  O283  1  0.25066102  0.86873707  0.50704958  1
  O  O284  1  0.75433291  0.36898308  0.00533821  1
  O  O285  1  0.76174603  0.37506550  0.50311171  1
  O  O286  1  0.75168513  0.87363771  0.01244310  1
  O  O287  1  0.75738505  0.86943603  0.50114261  1
  O  O288  1  0.13660473  0.50158188  0.24923546  1
  O  O289  1  0.12661169  0.50052234  0.73798381  1
  O  O290  1  0.13041827  0.99511420  0.24404578  1
  O  O291  1  0.13013221  0.99387300  0.74374485  1
  O  O292  1  0.63030332  0.49490517  0.24441416  1
  O  O293  1  0.62533337  0.49935877  0.73795368  1
  O  O294  1  0.63229643  0.99878159  0.24228985  1
  O  O295  1  0.62827983  0.99433758  0.74619799  1
  O  O296  1  0.36881271  0.00619009  0.25489489  1
  O  O297  1  0.36947484  0.00377500  0.75504164  1
  O  O298  1  0.36608496  0.50891333  0.25223335  1
  O  O299  1  0.37587304  0.50744281  0.75789674  1
  O  O300  1  0.87022528  0.00461601  0.25567072  1
  O  O301  1  0.86748163  0.00253196  0.75567063  1
  O  O302  1  0.86854711  0.49911542  0.25810915  1
  O  O303  1  0.87723878  0.50754858  0.75700071  1
  O  O304  1  0.12251433  0.36590778  0.37181682  1
  O  O305  1  0.11673640  0.36672328  0.87986513  1
  O  O306  1  0.11985912  0.87075336  0.36883571  1
  O  O307  1  0.11763489  0.87273527  0.86681865  1
  O  O308  1  0.61604449  0.37603279  0.37139877  1
  O  O309  1  0.61782635  0.36746431  0.87506189  1
  O  O310  1  0.61942744  0.86647136  0.37425800  1
  O  O311  1  0.61897146  0.86949103  0.87064384  1
  O  O312  1  0.37991139  0.12895472  0.13025972  1
  O  O313  1  0.37655646  0.13196825  0.63267817  1
  O  O314  1  0.38156886  0.63196399  0.13024223  1
  O  O315  1  0.38053318  0.63038564  0.63125260  1
  O  O316  1  0.88066449  0.12465928  0.13273809  1
  O  O317  1  0.88835922  0.12384270  0.62170638  1
  O  O318  1  0.88430304  0.63306711  0.12381844  1
  O  O319  1  0.88055772  0.63002543  0.62869187  1
  O  O320  1  0.25459690  0.24686639  0.11611013  1
  O  O321  1  0.25607299  0.25124918  0.61781951  1
  O  O322  1  0.25606846  0.75637814  0.11929192  1
  O  O323  1  0.25462447  0.75418889  0.62048477  1
  O  O324  1  0.74986898  0.25591455  0.11861730  1
  O  O325  1  0.75333467  0.25124469  0.61819381  1
  O  O326  1  0.75798134  0.75697882  0.12479646  1
  O  O327  1  0.75657442  0.75174471  0.61800364  1
  O  O328  1  0.24653582  0.24388922  0.38021913  1
  O  O329  1  0.24022055  0.24949881  0.88474306  1
  O  O330  1  0.24398547  0.74692789  0.37976886  1
  O  O331  1  0.24886584  0.74281084  0.88223914  1
  O  O332  1  0.74659822  0.24019889  0.37940704  1
  O  O333  1  0.74381088  0.24414782  0.88117113  1
  O  O334  1  0.74047720  0.75086496  0.37956298  1
  O  O335  1  0.74438465  0.74299278  0.87657774  1
  O  O336  1  0.00432777  0.11871897  0.00545156  1
  O  O337  1  0.00683202  0.11912000  0.50503450  1
  O  O338  1  0.00843290  0.62624578  0.00801438  1
  O  O339  1  0.00760185  0.62541544  0.50559908  1
  O  O340  1  0.50439462  0.11841687  0.00512924  1
  O  O341  1  0.50930234  0.11849330  0.49972212  1
  O  O342  1  0.50663155  0.61915907  0.00616823  1
  O  O343  1  0.50493728  0.62087693  0.50651603  1
  O  O344  1  0.49592808  0.38044266  0.49313304  1
  O  O345  1  0.49893324  0.38223491  0.99455308  1
  O  O346  1  0.49719002  0.88258396  0.49306464  1
  O  O347  1  0.49446295  0.87995046  0.99495961  1
  O  O348  1  0.98984781  0.37947623  0.49390938  1
  O  O349  1  0.99485464  0.37465270  0.99235050  1
  O  O350  1  0.99562143  0.88012376  0.49319887  1
  O  O351  1  0.99997404  0.88159773  0.99219556  1
  O  O352  1  0.49954507  0.49144516  0.38222421  1
  O  O353  1  0.49572988  0.49538701  0.88128061  1
  O  O354  1  0.49455343  0.99516737  0.38011253  1
  O  O355  1  0.49402956  0.99338100  0.88099545  1
  O  O356  1  0.98879455  0.49960443  0.37298184  1
  O  O357  1  0.99620776  0.49048709  0.87863591  1
  O  O358  1  0.99558054  0.99497911  0.37926065  1
  O  O359  1  0.99490774  0.99512766  0.87835999  1
  O  O360  1  0.00520309  0.00331441  0.11954698  1
  O  O361  1  0.00616549  0.00681185  0.61798877  1
  O  O362  1  0.00033027  0.51254452  0.12503708  1
  O  O363  1  0.01064430  0.50791997  0.62214343  1
  O  O364  1  0.50481790  0.00458362  0.11926421  1
  O  O365  1  0.50556002  0.00144547  0.61867724  1
  O  O366  1  0.50546646  0.50589993  0.12073487  1
  O  O367  1  0.50751454  0.50628223  0.62073812  1
  O  O368  1  0.25071000  0.38785895  0.25172310  1
  O  O369  1  0.24499558  0.37999904  0.74687425  1
  O  O370  1  0.24471176  0.88129376  0.24379484  1
  O  O371  1  0.24400791  0.87923745  0.74433661  1
  O  O372  1  0.74404210  0.37989547  0.24521700  1
  O  O373  1  0.74634537  0.37896053  0.74533359  1
  O  O374  1  0.74970022  0.88121317  0.23825022  1
  O  O375  1  0.74201979  0.88147674  0.74970675  1
  O  O376  1  0.25523702  0.11910927  0.25530808  1
  O  O377  1  0.25527954  0.11709394  0.75186435  1
  O  O378  1  0.25507251  0.62027521  0.25516108  1
  O  O379  1  0.25730672  0.62371286  0.75819152  1
  O  O380  1  0.75474274  0.11911004  0.25509163  1
  O  O381  1  0.74889693  0.11732101  0.75765062  1
  O  O382  1  0.75319440  0.61559343  0.25124135  1
  O  O383  1  0.75822447  0.62325421  0.75671727  1
  O  O384  1  0.37042028  0.12069517  0.36976190  1
  O  O385  1  0.37186916  0.11664566  0.86940037  1
  O  O386  1  0.36887970  0.62583488  0.36930018  1
  O  O387  1  0.37104086  0.61987303  0.87137096  1
  O  O388  1  0.86976936  0.11764456  0.37128656  1
  O  O389  1  0.86767041  0.11819665  0.87408885  1
  O  O390  1  0.87326718  0.61514645  0.37150254  1
  O  O391  1  0.87146017  0.61986145  0.87031716  1
  O  O392  1  0.12994888  0.37797465  0.13138141  1
  O  O393  1  0.12490828  0.38683618  0.62390912  1
  O  O394  1  0.13038973  0.87947516  0.12913648  1
  O  O395  1  0.12961483  0.88034382  0.62972361  1
  O  O396  1  0.62934996  0.38109806  0.13029707  1
  O  O397  1  0.62415767  0.38747840  0.62451048  1
  O  O398  1  0.63381447  0.87987890  0.12505841  1
  O  O399  1  0.62533910  0.88076929  0.63235278  1
  O  O400  1  0.11550381  0.24559012  0.25628612  1
  O  O401  1  0.12332831  0.25083980  0.76337852  1
  O  O402  1  0.12081529  0.75676611  0.25448187  1
  O  O403  1  0.11778203  0.75564715  0.74994743  1
  O  O404  1  0.62026502  0.25878066  0.25289580  1
  O  O405  1  0.61672807  0.24852164  0.75782455  1
  O  O406  1  0.62452680  0.75132839  0.26179597  1
  O  O407  1  0.61945921  0.75442303  0.75545584  1
  O  O408  1  0.37577671  0.24274716  0.24377942  1
  O  O409  1  0.37880958  0.24468542  0.74717768  1
  O  O410  1  0.37516747  0.74457666  0.24296954  1
  O  O411  1  0.38124947  0.74422849  0.74540261  1
  O  O412  1  0.88424248  0.24264822  0.25110750  1
  O  O413  1  0.88151240  0.24496876  0.74483460  1
  O  O414  1  0.88100514  0.74931440  0.23855142  1
  O  O415  1  0.88037622  0.74446213  0.74321795  1
  O  O416  1  0.38239433  0.49501828  0.49997322  1
  O  O417  1  0.38254532  0.50057004  0.99520303  1
  O  O418  1  0.38039841  1.00033212  0.49341773  1
  O  O419  1  0.37927252  0.99415264  0.99537769  1
  O  O420  1  0.87587518  0.49485347  0.48988129  1
  O  O421  1  0.87800667  0.49186374  0.99316968  1
  O  O422  1  0.88098360  0.99391054  0.49348502  1
  O  O423  1  0.88194081  0.99837632  0.99241656  1
  O  O424  1  0.11937374  0.00427758  0.00435119  1
  O  O425  1  0.12047491  0.00533279  0.50436617  1
  O  O426  1  0.12428388  0.51323526  0.00469325  1
  O  O427  1  0.12467441  0.50761413  0.50642445  1
  O  O428  1  0.61858955  0.00498114  0.00509841  1
  O  O429  1  0.61981263  0.00699861  0.50491066  1
  O  O430  1  0.62005216  0.50522021  0.00598103  1
  O  O431  1  0.61941816  0.50673839  0.50750701  1
  O  O432  1  0.37084839  0.36614389  0.12290516  1
  O  O433  1  0.37491952  0.36904234  0.61885779  1
  O  O434  1  0.36962841  0.87145709  0.11931903  1
  O  O435  1  0.36778129  0.86762982  0.62518642  1
  O  O436  1  0.86744785  0.37259813  0.11882884  1
  O  O437  1  0.87754804  0.37813038  0.61342907  1
  O  O438  1  0.86777725  0.86718357  0.12330629  1
  O  O439  1  0.87504949  0.86827340  0.61706639  1
  O  O440  1  0.13235437  0.12915129  0.38063924  1
  O  O441  1  0.12364092  0.13413779  0.88091327  1
  O  O442  1  0.12998249  0.63292160  0.37929180  1
  O  O443  1  0.12963209  0.62550343  0.88531074  1
  O  O444  1  0.63001660  0.12304039  0.38432599  1
  O  O445  1  0.62942932  0.12932723  0.88197816  1
  O  O446  1  0.62399500  0.63552584  0.38112477  1
  O  O447  1  0.63013566  0.62923586  0.87943347  1
