# generated using pymatgen
data_V3Zn3O8
_symmetry_space_group_name_H-M   'P 1'
_cell_length_a   17.08684361
_cell_length_b   17.08702804
_cell_length_c   17.08603246
_cell_angle_alpha   90.00529470
_cell_angle_beta   89.99024425
_cell_angle_gamma   90.00369835
_symmetry_Int_Tables_number   1
_chemical_formula_structural   V3Zn3O8
_chemical_formula_sum   'V96 Zn96 O256'
_cell_volume   4988.49561461
_cell_formula_units_Z   32
loop_
 _symmetry_equiv_pos_site_id
 _symmetry_equiv_pos_as_xyz
  1  'x, y, z'
loop_
 _atom_site_type_symbol
 _atom_site_label
 _atom_site_symmetry_multiplicity
 _atom_site_fract_x
 _atom_site_fract_y
 _atom_site_fract_z
 _atom_site_occupancy
  V  V0  1  0.12631369  -0.00093478  0.12599262  1
  V  V1  1  0.75020318  0.50023943  0.25007419  1
  V  V2  1  0.00039723  0.25027672  0.25016018  1
  V  V3  1  0.37499255  0.00065269  0.87443399  1
  V  V4  1  0.00010233  0.12439132  0.12492664  1
  V  V5  1  0.62518689  0.25143957  0.37556397  1
  V  V6  1  0.12542271  0.37590121  0.75046642  1
  V  V7  1  0.74987150  0.12552026  0.37483686  1
  V  V8  1  0.37238530  0.37177503  0.50288353  1
  V  V9  1  0.00077635  0.62351225  0.12337775  1
  V  V10  1  0.62450200  0.62520874  -0.00005112  1
  V  V11  1  0.87507896  0.25030596  0.62529392  1
  V  V12  1  0.37449005  0.62479294  0.25077752  1
  V  V13  1  0.49902897  0.74993423  0.24974329  1
  V  V14  1  0.87441737  0.12472274  0.24914207  1
  V  V15  1  0.49892225  0.74971273  0.74996032  1
  V  V16  1  0.62595158  -0.00051012  0.62479239  1
  V  V17  1  0.24940035  0.62467878  0.37618758  1
  V  V18  1  0.75181607  0.12488459  0.87497116  1
  V  V19  1  0.74834021  0.62655138  0.87517108  1
  V  V20  1  0.75056646  0.25057203  0.50103309  1
  V  V21  1  0.74896574  0.37455880  0.12563157  1
  V  V22  1  0.87574872  0.87407539  0.00029848  1
  V  V23  1  0.87459461  0.75046736  0.62464247  1
  V  V24  1  0.87602684  0.00089905  0.87439989  1
  V  V25  1  0.50105384  0.37518341  0.37604508  1
  V  V26  1  0.62517324  0.87546845  0.74907587  1
  V  V27  1  0.50005556  0.87530454  0.37431715  1
  V  V28  1  0.37329407  0.74979157  0.12474860  1
  V  V29  1  0.12399854  0.50024094  0.12359875  1
  V  V30  1  0.37477557  0.87451902  0.50073604  1
  V  V31  1  0.00034933  0.25039464  0.75016695  1
  V  V32  1  0.62549308  0.25072716  0.87470981  1
  V  V33  1  0.75015192  0.62527512  0.37453794  1
  V  V34  1  0.74858831  0.50021566  0.74953706  1
  V  V35  1  0.62609862  0.12512834  0.50031771  1
  V  V36  1  0.62436273  0.37516327  0.25144460  1
  V  V37  1  0.49721563  0.12651271  0.12618989  1
  V  V38  1  0.12564562  0.12548963  -0.00039759  1
  V  V39  1  0.87472913  0.37655449  -0.00023620  1
  V  V40  1  0.37469354  0.49993806  0.37593810  1
  V  V41  1  0.62395746  0.62459062  0.50028488  1
  V  V42  1  0.87427878  0.50040522  0.87620183  1
  V  V43  1  0.62582080  0.12415957  -0.00044361  1
  V  V44  1  0.87531177  -0.00021190  0.37375981  1
  V  V45  1  0.75001043  0.75005340  0.49886375  1
  V  V46  1  0.49935442  0.24983722  0.75120405  1
  V  V47  1  0.50019874  0.12577953  0.62619751  1
  V  V48  1  0.74870568  0.87554309  0.62422078  1
  V  V49  1  0.50102416  0.00016385  0.49939787  1
  V  V50  1  0.87370709  0.62677567  0.74975014  1
  V  V51  1  0.12805352  0.24855559  0.37708819  1
  V  V52  1  0.12671298  0.25051282  0.87692651  1
  V  V53  1  0.37335947  0.75078423  0.62415886  1
  V  V54  1  0.12474309  0.62393167  0.50062494  1
  V  V55  1  0.12371334  0.75084124  0.37495940  1
  V  V56  1  0.87519791  0.62496227  0.24924612  1
  V  V57  1  0.50039816  0.62431791  0.12487117  1
  V  V58  1  -0.00050645  0.49947471  0.49930612  1
  V  V59  1  0.37406942  0.62415484  0.75038040  1
  V  V60  1  0.74946683  0.37663545  0.62683360  1
  V  V61  1  0.24952163  -0.00069763  0.74965830  1
  V  V62  1  0.00054900  0.12433890  0.62386842  1
  V  V63  1  0.74953278  -0.00054183  0.24875765  1
  V  V64  1  0.87532654  0.49931558  0.37521496  1
  V  V65  1  0.62511137  0.87518458  0.24850809  1
  V  V66  1  0.00176894  0.00150135  0.49923585  1
  V  V67  1  0.87494594  0.37577310  0.49972462  1
  V  V68  1  0.24900636  0.74797227  -0.00001498  1
  V  V69  1  0.12491382  0.49923708  0.62565060  1
  V  V70  1  0.62449477  0.74975534  0.87519681  1
  V  V71  1  0.50013342  -0.00095397  -0.00131904  1
  V  V72  1  -0.00153597  0.75126108  0.74927756  1
  V  V73  1  0.62511063  -0.00115801  0.12462363  1
  V  V74  1  0.25106307  0.37418338  0.12508877  1
  V  V75  1  0.49982548  0.50070724  0.50130737  1
  V  V76  1  0.87476389  0.87516624  0.49818727  1
  V  V77  1  0.00045964  0.74997213  0.25032693  1
  V  V78  1  0.12500844  0.37427764  0.24964084  1
  V  V79  1  0.87436491  0.24961698  0.12520484  1
  V  V80  1  0.37525097  0.50005049  0.87439637  1
  V  V81  1  0.87539024  0.75040762  0.12393523  1
  V  V82  1  0.37580691  0.00150136  0.37409351  1
  V  V83  1  0.49943551  0.62453257  0.62451858  1
  V  V84  1  0.62468886  0.50076180  0.12477149  1
  V  V85  1  0.00166998  -0.00037917  -0.00012876  1
  V  V86  1  0.75018149  0.24948811  0.00049084  1
  V  V87  1  0.24959693  0.49946009  0.24998573  1
  V  V88  1  0.12488937  0.87583352  0.74834436  1
  V  V89  1  0.37566588  0.37349402  0.00067913  1
  V  V90  1  0.12494782  0.74860105  0.87466842  1
  V  V91  1  0.62476314  0.75001022  0.37397127  1
  V  V92  1  0.25140376  0.00144168  0.25017104  1
  V  V93  1  0.87518885  0.12548520  0.75053837  1
  V  V94  1  0.00000802  0.87544023  0.87427292  1
  V  V95  1  0.50057401  0.87528868  0.87479950  1
  Zn  Zn96  1  0.62421200  0.49922098  0.62702151  1
  Zn  Zn97  1  0.12446229  0.87593573  0.24983913  1
  Zn  Zn98  1  0.37444797  0.87360121  0.00137784  1
  Zn  Zn99  1  0.25148804  0.24732395  0.00303954  1
  Zn  Zn100  1  0.12838282  0.00072851  0.62246242  1
  Zn  Zn101  1  0.37183717  0.12653025  0.74873849  1
  Zn  Zn102  1  0.37587562  0.12924742  0.25310427  1
  Zn  Zn103  1  0.62400192  0.37719639  0.75095661  1
  Zn  Zn104  1  0.24917610  0.37013088  0.62522749  1
  Zn  Zn105  1  0.75039133  0.87404386  0.12297232  1
  Zn  Zn106  1  0.00074893  0.50027884  -0.00151038  1
  Zn  Zn107  1  0.00045618  0.87562944  0.37336618  1
  Zn  Zn108  1  0.12860829  0.12575614  0.50128926  1
  Zn  Zn109  1  -0.00021018  0.37806274  0.87749368  1
  Zn  Zn110  1  0.25054891  0.24431634  0.50498798  1
  Zn  Zn111  1  0.24762455  0.62405876  0.87303913  1
  Zn  Zn112  1  0.24876215  0.87428799  0.62301505  1
  Zn  Zn113  1  0.25338931  0.12534433  0.37865935  1
  Zn  Zn114  1  -0.00042876  0.62651573  0.62533003  1
  Zn  Zn115  1  0.24973803  0.87402190  0.12580076  1
  Zn  Zn116  1  0.74965312  0.75205444  0.00081347  1
  Zn  Zn117  1  -0.00008331  0.37435923  0.37449356  1
  Zn  Zn118  1  0.50125038  0.49855542  -0.00027429  1
  Zn  Zn119  1  0.49884154  0.25044811  0.25043220  1
  Zn  Zn120  1  0.75050223  0.00055343  0.74955067  1
  Zn  Zn121  1  0.37218650  0.24842890  0.62786645  1
  Zn  Zn122  1  0.24842007  0.75197874  0.50127979  1
  Zn  Zn123  1  0.37452204  0.25045998  0.12811266  1
  Zn  Zn124  1  0.50173161  0.37438894  0.87589747  1
  Zn  Zn125  1  0.12314235  0.62208461  -0.00337348  1
  Zn  Zn126  1  0.25025980  0.12450063  0.87662025  1
  Zn  Zn127  1  0.24984721  0.50078300  0.74971078  1
  Zn  Zn128  1  0.18937764  0.18713707  0.18832825  1
  Zn  Zn129  1  0.18792031  0.18520284  0.68627986  1
  Zn  Zn130  1  0.18664950  0.68528261  0.18709448  1
  Zn  Zn131  1  0.18877521  0.68731766  0.68797546  1
  Zn  Zn132  1  0.68460988  0.18721813  0.18792998  1
  Zn  Zn133  1  0.68712330  0.18828929  0.68886286  1
  Zn  Zn134  1  0.68888591  0.68873408  0.18555018  1
  Zn  Zn135  1  0.68637376  0.68758181  0.68697966  1
  Zn  Zn136  1  0.31389337  0.31079256  0.31238836  1
  Zn  Zn137  1  0.31171345  0.31369196  0.81300269  1
  Zn  Zn138  1  0.31071041  0.81454611  0.31320305  1
  Zn  Zn139  1  0.31175072  0.81331382  0.81349511  1
  Zn  Zn140  1  0.81217197  0.31291335  0.31290373  1
  Zn  Zn141  1  0.81202725  0.31411062  0.81311610  1
  Zn  Zn142  1  0.81298489  0.81333873  0.31083386  1
  Zn  Zn143  1  0.81091430  0.81364440  0.81263787  1
  Zn  Zn144  1  0.18763114  0.43517847  0.43724436  1
  Zn  Zn145  1  0.19011637  0.43807158  0.93854972  1
  Zn  Zn146  1  0.18953394  0.93698948  0.43572313  1
  Zn  Zn147  1  0.18813037  0.93391613  0.93748447  1
  Zn  Zn148  1  0.68785413  0.43876254  0.43948960  1
  Zn  Zn149  1  0.68767465  0.43756774  0.93682115  1
  Zn  Zn150  1  0.68782152  0.93745375  0.43606131  1
  Zn  Zn151  1  0.68966091  0.93711457  0.93712559  1
  Zn  Zn152  1  0.31173185  0.06179089  0.06133868  1
  Zn  Zn153  1  0.31404627  0.06367323  0.56265683  1
  Zn  Zn154  1  0.31189629  0.56193380  0.06131060  1
  Zn  Zn155  1  0.31014846  0.56167475  0.56296077  1
  Zn  Zn156  1  0.81271455  0.06057732  0.06196051  1
  Zn  Zn157  1  0.81370427  0.06255515  0.56252897  1
  Zn  Zn158  1  0.81134895  0.56383303  0.06125951  1
  Zn  Zn159  1  0.81223093  0.56293809  0.56349856  1
  Zn  Zn160  1  0.43844470  0.43786148  0.18787371  1
  Zn  Zn161  1  0.43842645  0.43626429  0.68784911  1
  Zn  Zn162  1  0.43508841  0.93703306  0.18625593  1
  Zn  Zn163  1  0.43730579  0.93753854  0.68700211  1
  Zn  Zn164  1  0.93858304  0.43673554  0.18666969  1
  Zn  Zn165  1  0.93783725  0.43856329  0.68876001  1
  Zn  Zn166  1  0.93965236  0.93505588  0.18737486  1
  Zn  Zn167  1  0.93689735  0.93821013  0.68596177  1
  Zn  Zn168  1  0.06413605  0.06466695  0.31254159  1
  Zn  Zn169  1  0.06351572  0.06371494  0.81185289  1
  Zn  Zn170  1  0.06179467  0.56220920  0.31166216  1
  Zn  Zn171  1  0.05895357  0.56434861  0.81299456  1
  Zn  Zn172  1  0.56279062  0.06293661  0.31142090  1
  Zn  Zn173  1  0.56356530  0.06356114  0.81159040  1
  Zn  Zn174  1  0.56181518  0.56182874  0.31299317  1
  Zn  Zn175  1  0.56091423  0.56164771  0.81261537  1
  Zn  Zn176  1  0.43894170  0.18761790  0.43769778  1
  Zn  Zn177  1  0.43753854  0.18693813  0.93769227  1
  Zn  Zn178  1  0.43663584  0.68846886  0.43816917  1
  Zn  Zn179  1  0.43695635  0.68580049  0.93844194  1
  Zn  Zn180  1  0.93911083  0.18771585  0.43616634  1
  Zn  Zn181  1  0.93990157  0.18923769  0.93747489  1
  Zn  Zn182  1  0.93890372  0.68573265  0.43815311  1
  Zn  Zn183  1  0.93763845  0.68719815  0.93782707  1
  Zn  Zn184  1  0.06139287  0.31422218  0.06231915  1
  Zn  Zn185  1  0.06109904  0.31305452  0.56135743  1
  Zn  Zn186  1  0.06447719  0.81234700  0.06356439  1
  Zn  Zn187  1  0.06230724  0.81501586  0.56300601  1
  Zn  Zn188  1  0.56169047  0.31225797  0.06167108  1
  Zn  Zn189  1  0.56258512  0.31365190  0.56509413  1
  Zn  Zn190  1  0.56152563  0.81181991  0.06187653  1
  Zn  Zn191  1  0.56083543  0.81172382  0.56230299  1
  O  O192  1  0.11848342  0.11994980  0.11974937  1
  O  O193  1  0.11477189  0.12086345  0.62303648  1
  O  O194  1  0.11759090  0.61727938  0.12508129  1
  O  O195  1  0.12298217  0.61563049  0.62020924  1
  O  O196  1  0.61809960  0.11876370  0.11901764  1
  O  O197  1  0.62141767  0.11948468  0.61901319  1
  O  O198  1  0.62033342  0.62032250  0.12085695  1
  O  O199  1  0.61744069  0.62555130  0.61729445  1
  O  O200  1  0.38100846  0.38136608  0.38271882  1
  O  O201  1  0.37482644  0.38279390  0.88371547  1
  O  O202  1  0.38232707  0.88039500  0.38008292  1
  O  O203  1  0.38276022  0.88482312  0.87528527  1
  O  O204  1  0.87442752  0.38179027  0.38141746  1
  O  O205  1  0.87436633  0.38177316  0.88204389  1
  O  O206  1  0.87531297  0.88163428  0.38066673  1
  O  O207  1  0.88095437  0.88085841  0.87910470  1
  O  O208  1  0.25687371  0.00085339  0.36602055  1
  O  O209  1  0.25896244  -0.00235485  0.86811397  1
  O  O210  1  0.25485860  0.50500340  0.36949543  1
  O  O211  1  0.26274422  0.50226296  0.87315230  1
  O  O212  1  0.75492543  0.00644928  0.36931934  1
  O  O213  1  0.75788825  0.00762052  0.87367862  1
  O  O214  1  0.75513134  0.50603667  0.36986825  1
  O  O215  1  0.75463009  0.50713707  0.86924633  1
  O  O216  1  0.24470135  0.49521087  0.13155856  1
  O  O217  1  0.23526049  0.49632334  0.62603920  1
  O  O218  1  0.24509858  0.99918647  0.13304748  1
  O  O219  1  0.25122333  0.99721933  0.63820694  1
  O  O220  1  0.74455670  0.49462195  0.13141302  1
  O  O221  1  0.74949600  0.49469374  0.63164347  1
  O  O222  1  0.74318087  0.99957058  0.13141318  1
  O  O223  1  0.74392836  0.99349991  0.62452247  1
  O  O224  1  0.00625137  0.36742050  0.25007647  1
  O  O225  1  0.00996680  0.36900452  0.75151458  1
  O  O226  1  0.00291649  0.86629265  0.25431453  1
  O  O227  1  0.00390142  0.87102186  0.75526743  1
  O  O228  1  0.50779589  0.37630682  0.25803905  1
  O  O229  1  0.50197492  0.36216110  0.75195218  1
  O  O230  1  0.50519913  0.86930690  0.25509931  1
  O  O231  1  0.50614917  0.86934663  0.75500261  1
  O  O232  1  0.50119836  0.12531046  0.23756835  1
  O  O233  1  0.50060558  0.13394074  0.74440630  1
  O  O234  1  0.49434609  0.63048997  0.24579190  1
  O  O235  1  0.49409956  0.63094133  0.74413937  1
  O  O236  1  0.99325688  0.12973843  0.24377019  1
  O  O237  1  0.99438760  0.13062133  0.74423316  1
  O  O238  1  0.99322429  0.62950067  0.24389379  1
  O  O239  1  0.99081278  0.63391654  0.74802707  1
  O  O240  1  0.37309565  0.26138591  0.00017464  1
  O  O241  1  0.37676364  0.26227208  0.50064574  1
  O  O242  1  0.36645700  0.74935079  0.00542248  1
  O  O243  1  0.37456002  0.75677457  0.50561505  1
  O  O244  1  0.86934216  0.25455789  0.00609075  1
  O  O245  1  0.86964118  0.25482815  0.50508278  1
  O  O246  1  0.87506508  0.75705251  0.00583454  1
  O  O247  1  0.86934292  0.75471110  0.50360458  1
  O  O248  1  0.12452990  0.25100651  0.48883530  1
  O  O249  1  0.12383518  0.24573682  0.99126815  1
  O  O250  1  0.12404035  0.74375332  0.49114741  1
  O  O251  1  0.13271426  0.74850447  0.99372363  1
  O  O252  1  0.63163784  0.24489050  0.49551577  1
  O  O253  1  0.63143844  0.24380470  0.99537349  1
  O  O254  1  0.62985894  0.74512095  0.49313762  1
  O  O255  1  0.62534632  0.74367384  0.99278923  1
  O  O256  1  0.50106799  0.23752499  0.12552127  1
  O  O257  1  0.50109835  0.24365150  0.63498015  1
  O  O258  1  0.49440375  0.74376133  0.13115423  1
  O  O259  1  0.49405210  0.74414753  0.63050053  1
  O  O260  1  0.99401132  0.24384774  0.13028398  1
  O  O261  1  0.99381652  0.24472513  0.62992597  1
  O  O262  1  0.99557012  0.74345116  0.13110285  1
  O  O263  1  0.99203833  0.75078181  0.63106037  1
  O  O264  1  0.00780563  0.25188368  0.36762749  1
  O  O265  1  0.01048279  0.25240953  0.86915391  1
  O  O266  1  0.00879589  0.74804789  0.36975263  1
  O  O267  1  0.00413529  0.75662507  0.86870789  1
  O  O268  1  0.50926177  0.25744008  0.37559917  1
  O  O269  1  0.50697082  0.24801644  0.86667237  1
  O  O270  1  0.50518154  0.75495038  0.36890353  1
  O  O271  1  0.50462228  0.75504744  0.86918707  1
  O  O272  1  0.24612007  0.12586702  0.49650012  1
  O  O273  1  0.24120008  0.12733864  0.99676307  1
  O  O274  1  0.24258119  0.62563197  0.49297102  1
  O  O275  1  0.24773803  0.63683546  0.99780594  1
  O  O276  1  0.74580037  0.13066356  0.49462703  1
  O  O277  1  0.74571084  0.13019118  0.99532294  1
  O  O278  1  0.74493446  0.63089755  0.49378719  1
  O  O279  1  0.74231803  0.62783381  0.99278391  1
  O  O280  1  0.26027353  0.37415673  0.00701896  1
  O  O281  1  0.26254307  0.37395625  0.50031707  1
  O  O282  1  0.25189334  0.86079144  0.00198585  1
  O  O283  1  0.25973334  0.87397959  0.50184151  1
  O  O284  1  0.75431808  0.36846124  0.00704723  1
  O  O285  1  0.75580092  0.36995031  0.50587188  1
  O  O286  1  0.75954592  0.87334368  0.00174669  1
  O  O287  1  0.75422033  0.86929534  0.50379641  1
  O  O288  1  0.13073816  0.49421572  0.24529752  1
  O  O289  1  0.12206383  0.49236802  0.74267751  1
  O  O290  1  0.13364201  1.00061420  0.24524948  1
  O  O291  1  0.13393880  0.99416193  0.75186444  1
  O  O292  1  0.63144550  0.49532450  0.24573727  1
  O  O293  1  0.63271980  0.49875127  0.74835591  1
  O  O294  1  0.63022886  0.99440696  0.24500130  1
  O  O295  1  0.62667687  0.99336456  0.74282232  1
  O  O296  1  0.36805592  0.00122990  0.25576592  1
  O  O297  1  0.36809313  -0.00066297  0.75882658  1
  O  O298  1  0.36978198  0.50542375  0.25649813  1
  O  O299  1  0.37444454  0.50365764  0.75819354  1
  O  O300  1  0.87030047  0.00560918  0.25383358  1
  O  O301  1  0.87445170  0.00718199  0.75662582  1
  O  O302  1  0.86898109  0.50477328  0.25467080  1
  O  O303  1  0.86904378  0.50669187  0.75545893  1
  O  O304  1  0.12321759  0.36659823  0.36758744  1
  O  O305  1  0.12357974  0.36856086  0.86763873  1
  O  O306  1  0.12342799  0.86151809  0.37419768  1
  O  O307  1  0.11783106  0.86918484  0.86884394  1
  O  O308  1  0.62134632  0.37125399  0.37153921  1
  O  O309  1  0.62327353  0.36589411  0.87414848  1
  O  O310  1  0.61976528  0.86927359  0.36890248  1
  O  O311  1  0.62020009  0.87043074  0.86886213  1
  O  O312  1  0.38817068  0.12481811  0.12271541  1
  O  O313  1  0.38681166  0.12621576  0.62782990  1
  O  O314  1  0.38030327  0.62908469  0.13201532  1
  O  O315  1  0.38049342  0.62959271  0.62960146  1
  O  O316  1  0.87972493  0.13014535  0.12972800  1
  O  O317  1  0.87934182  0.13166294  0.63056127  1
  O  O318  1  0.87995741  0.62955024  0.13084152  1
  O  O319  1  0.87492128  0.63329893  0.63128705  1
  O  O320  1  0.25248003  0.25863196  0.12379295  1
  O  O321  1  0.25411463  0.25279403  0.62339720  1
  O  O322  1  0.25468258  0.74900698  0.11776779  1
  O  O323  1  0.25818109  0.75289813  0.62232099  1
  O  O324  1  0.75448283  0.25424483  0.12035839  1
  O  O325  1  0.75598272  0.25488370  0.61990248  1
  O  O326  1  0.75929056  0.75275811  0.12284792  1
  O  O327  1  0.75415970  0.75601441  0.61789795  1
  O  O328  1  0.23907169  0.24875326  0.37600541  1
  O  O329  1  0.23625749  0.24857543  0.87572002  1
  O  O330  1  0.23997272  0.74311859  0.37569392  1
  O  O331  1  0.24428974  0.74918142  0.88307096  1
  O  O332  1  0.74547338  0.24476705  0.38135809  1
  O  O333  1  0.74627835  0.24392167  0.88146921  1
  O  O334  1  0.74454966  0.74464200  0.37916782  1
  O  O335  1  0.74182586  0.74407611  0.87506402  1
  O  O336  1  0.00512971  0.11920625  0.00589576  1
  O  O337  1  -0.00177477  0.11543237  0.50480726  1
  O  O338  1  0.00126597  0.62242601  0.00910934  1
  O  O339  1  0.00631127  0.61707136  0.50278458  1
  O  O340  1  0.50665552  0.11866896  0.00631034  1
  O  O341  1  0.50805626  0.11962727  0.50561975  1
  O  O342  1  0.50665223  0.62323791  0.00777755  1
  O  O343  1  0.50420911  0.62024660  0.50426330  1
  O  O344  1  0.49335680  0.38101025  0.49572181  1
  O  O345  1  0.48919086  0.37710338  0.99895911  1
  O  O346  1  0.49634334  0.88060944  0.49325255  1
  O  O347  1  0.49964638  0.88164986  0.99211533  1
  O  O348  1  0.99132515  0.38190300  0.49803516  1
  O  O349  1  0.98935766  0.37770742  0.99919288  1
  O  O350  1  0.99246767  0.88539501  0.49779908  1
  O  O351  1  0.99597804  0.88085141  0.99346715  1
  O  O352  1  0.49417465  0.49542521  0.38121565  1
  O  O353  1  0.48811106  0.49688410  0.87674514  1
  O  O354  1  0.49718712  0.99422888  0.37997879  1
  O  O355  1  0.49373935  0.99578968  0.87832458  1
  O  O356  1  0.99283243  0.49823837  0.38044455  1
  O  O357  1  0.98941884  0.49864509  0.87701391  1
  O  O358  1  0.99352261  1.00075832  0.38310144  1
  O  O359  1  0.99559982  0.99523953  0.88021759  1
  O  O360  1  0.00539583  0.00600201  0.11988044  1
  O  O361  1  -0.00268722  0.00554672  0.61351251  1
  O  O362  1  0.00603061  0.50633134  0.12496585  1
  O  O363  1  0.00977831  0.50135845  0.61958558  1
  O  O364  1  0.50544566  0.00646287  0.11885580  1
  O  O365  1  0.50700003  0.00495123  0.61910565  1
  O  O366  1  0.50762342  0.50753518  0.12568289  1
  O  O367  1  0.50092508  0.50725563  0.61891215  1
  O  O368  1  0.24541144  0.38154423  0.24504369  1
  O  O369  1  0.23550683  0.37731344  0.74897147  1
  O  O370  1  0.24783279  0.88808244  0.24880236  1
  O  O371  1  0.24387742  0.88415653  0.75043971  1
  O  O372  1  0.74445630  0.38061279  0.24510991  1
  O  O373  1  0.75011918  0.38196323  0.74373012  1
  O  O374  1  0.74287086  0.88204878  0.24863855  1
  O  O375  1  0.74292634  0.87646822  0.74222916  1
  O  O376  1  0.25324934  0.11239538  0.25170866  1
  O  O377  1  0.25072452  0.11220972  0.75516958  1
  O  O378  1  0.25584616  0.61849201  0.25609823  1
  O  O379  1  0.25931325  0.62184654  0.75197488  1
  O  O380  1  0.75440629  0.11981977  0.25532810  1
  O  O381  1  0.75741499  0.12473228  0.75695949  1
  O  O382  1  0.75509944  0.61969201  0.25532740  1
  O  O383  1  0.75439201  0.62118544  0.75528055  1
  O  O384  1  0.37654348  0.11573241  0.37399719  1
  O  O385  1  0.37423258  0.11130756  0.87376552  1
  O  O386  1  0.37013003  0.61964414  0.37041191  1
  O  O387  1  0.37589363  0.61550015  0.86891884  1
  O  O388  1  0.86874600  0.12066065  0.36848337  1
  O  O389  1  0.87177837  0.12091092  0.87076982  1
  O  O390  1  0.86897809  0.61962041  0.36932344  1
  O  O391  1  0.86781439  0.62143936  0.86923145  1
  O  O392  1  0.13061759  0.38004103  0.13048220  1
  O  O393  1  0.12298936  0.38270417  0.63348249  1
  O  O394  1  0.12718025  0.88393492  0.12824795  1
  O  O395  1  0.12699965  0.87986143  0.63290078  1
  O  O396  1  0.63025381  0.38004138  0.13059355  1
  O  O397  1  0.63461214  0.37783099  0.62731637  1
  O  O398  1  0.62475158  0.88112702  0.13128126  1
  O  O399  1  0.62922785  0.87934115  0.62881076  1
  O  O400  1  0.11980223  0.25451404  0.25641552  1
  O  O401  1  0.11985128  0.25699344  0.75722784  1
  O  O402  1  0.11966411  0.74754081  0.26045659  1
  O  O403  1  0.11870167  0.75589879  0.75434773  1
  O  O404  1  0.62499495  0.25774378  0.25785494  1
  O  O405  1  0.61654922  0.25014109  0.75695280  1
  O  O406  1  0.61903634  0.75434035  0.25485289  1
  O  O407  1  0.61816493  0.75527721  0.75493153  1
  O  O408  1  0.38130153  0.24698370  0.24672944  1
  O  O409  1  0.38571213  0.24753579  0.75209154  1
  O  O410  1  0.37940667  0.74404393  0.24637882  1
  O  O411  1  0.38099637  0.74539504  0.74558744  1
  O  O412  1  0.87858892  0.24424377  0.24453837  1
  O  O413  1  0.88064263  0.24548084  0.74516514  1
  O  O414  1  0.88029085  0.74368065  0.24549479  1
  O  O415  1  0.87861778  0.74682947  0.74429514  1
  O  O416  1  0.38004570  0.49311326  0.49496077  1
  O  O417  1  0.37636857  0.49208925  0.99232236  1
  O  O418  1  0.38334035  0.99400915  0.49438408  1
  O  O419  1  0.38055148  0.99731577  0.99005896  1
  O  O420  1  0.87894607  0.49583591  0.49464173  1
  O  O421  1  0.87248037  0.49343411  0.99377250  1
  O  O422  1  0.88193075  0.99578559  0.49356822  1
  O  O423  1  0.88275826  0.99550983  0.99444118  1
  O  O424  1  0.12004417  0.00466477  0.00436893  1
  O  O425  1  0.11171585  0.00013073  0.49849606  1
  O  O426  1  0.12351514  0.50120968  0.00800583  1
  O  O427  1  0.11967618  0.50240737  0.50662314  1
  O  O428  1  0.62022166  0.00537734  0.00412578  1
  O  O429  1  0.62060857  0.00537298  0.50415804  1
  O  O430  1  0.62435121  0.50640433  0.00720621  1
  O  O431  1  0.61816780  0.50781574  0.50084239  1
  O  O432  1  0.37042484  0.37700260  0.11612618  1
  O  O433  1  0.37378790  0.37472550  0.61406010  1
  O  O434  1  0.37291504  0.86515449  0.12217913  1
  O  O435  1  0.37677826  0.86811358  0.61800498  1
  O  O436  1  0.86757961  0.36883124  0.12135258  1
  O  O437  1  0.87006215  0.36956240  0.61988967  1
  O  O438  1  0.87584617  0.86865839  0.11794209  1
  O  O439  1  0.86799780  0.87004551  0.61826252  1
  O  O440  1  0.12592473  0.13807579  0.37609320  1
  O  O441  1  0.12372008  0.13504867  0.88114759  1
  O  O442  1  0.12934335  0.63132612  0.37979111  1
  O  O443  1  0.12645975  0.63304009  0.87539728  1
  O  O444  1  0.63086514  0.13023815  0.38068857  1
  O  O445  1  0.63195246  0.12940401  0.88099252  1
  O  O446  1  0.63025168  0.63070390  0.37969183  1
  O  O447  1  0.62839475  0.63048192  0.87979044  1
