# generated using pymatgen
data_V3Zn3O8
_symmetry_space_group_name_H-M   'P 1'
_cell_length_a   17.08748230
_cell_length_b   17.08706570
_cell_length_c   17.08710118
_cell_angle_alpha   90.00970824
_cell_angle_beta   90.00345067
_cell_angle_gamma   90.00071698
_symmetry_Int_Tables_number   1
_chemical_formula_structural   V3Zn3O8
_chemical_formula_sum   'V96 Zn96 O256'
_cell_volume   4989.00513782
_cell_formula_units_Z   32
loop_
 _symmetry_equiv_pos_site_id
 _symmetry_equiv_pos_as_xyz
  1  'x, y, z'
loop_
 _atom_site_type_symbol
 _atom_site_label
 _atom_site_symmetry_multiplicity
 _atom_site_fract_x
 _atom_site_fract_y
 _atom_site_fract_z
 _atom_site_occupancy
  V  V0  1  0.24860277  -0.00042905  0.74948111  1
  V  V1  1  0.24966889  0.50124035  0.75186733  1
  V  V2  1  0.50074672  0.37321395  0.37582430  1
  V  V3  1  0.12662997  0.24990697  0.37508216  1
  V  V4  1  0.62404444  0.87367307  0.25088004  1
  V  V5  1  0.49972198  -0.00080490  0.49732259  1
  V  V6  1  0.62497897  0.00021889  0.12363920  1
  V  V7  1  -0.00122193  0.75077970  0.75172820  1
  V  V8  1  -0.00043483  0.12494535  0.62533310  1
  V  V9  1  0.75080951  0.62419520  0.37516002  1
  V  V10  1  0.25017201  0.12488738  0.37496625  1
  V  V11  1  0.00044662  0.24985395  0.24933333  1
  V  V12  1  0.87418852  0.74844843  0.62530904  1
  V  V13  1  -0.00146975  0.50034209  0.00068710  1
  V  V14  1  0.25007142  0.12608366  0.87417785  1
  V  V15  1  0.00029909  0.00121464  -0.00087286  1
  V  V16  1  0.50044612  0.37620608  0.87490716  1
  V  V17  1  0.62492119  0.12495503  -0.00143022  1
  V  V18  1  0.12535560  0.00073419  0.12406852  1
  V  V19  1  -0.00110991  0.87452293  0.87367812  1
  V  V20  1  0.74920753  0.87418661  0.62429476  1
  V  V21  1  0.75130835  0.87523598  0.12337669  1
  V  V22  1  0.12429070  0.50035699  0.12576101  1
  V  V23  1  0.00121751  0.37499214  0.37562946  1
  V  V24  1  0.74996687  0.74862816  0.49876444  1
  V  V25  1  0.62628633  0.62461325  0.49807114  1
  V  V26  1  0.49998473  0.12666882  0.12419721  1
  V  V27  1  0.25081893  0.25176971  0.00016815  1
  V  V28  1  0.75161847  0.49969471  0.25094352  1
  V  V29  1  0.37438708  0.87603083  0.00055476  1
  V  V30  1  0.37441072  0.87505174  0.49974127  1
  V  V31  1  -0.00034540  -0.00138185  0.49877976  1
  V  V32  1  0.37516000  0.37401876  0.50044384  1
  V  V33  1  0.75034108  0.25087680  -0.00065802  1
  V  V34  1  0.62163043  0.87398920  0.74901673  1
  V  V35  1  -0.00065064  0.37599718  0.87599627  1
  V  V36  1  -0.00007997  0.62456189  0.62669076  1
  V  V37  1  0.50099933  0.49876182  0.49952753  1
  V  V38  1  0.24917067  0.00015095  0.24980865  1
  V  V39  1  0.87434459  0.49983231  0.87529967  1
  V  V40  1  0.62419607  0.37468005  0.74967223  1
  V  V41  1  0.87591533  0.24907983  0.62550310  1
  V  V42  1  0.87335368  0.00013993  0.87437531  1
  V  V43  1  0.75005556  0.37386430  0.62462526  1
  V  V44  1  0.75088272  0.37402252  0.12502094  1
  V  V45  1  0.12563503  0.37519836  0.24975655  1
  V  V46  1  0.62345185  0.50322809  0.12419476  1
  V  V47  1  0.12463098  0.12549057  -0.00054120  1
  V  V48  1  -0.00026210  0.62545888  0.12587781  1
  V  V49  1  0.25092007  0.62395008  0.37729339  1
  V  V50  1  0.24953961  0.75023582  0.00046167  1
  V  V51  1  0.12302146  0.75160643  0.37484159  1
  V  V52  1  0.12504330  0.25096464  0.87508487  1
  V  V53  1  0.74906771  -0.00027630  0.74953461  1
  V  V54  1  0.75146821  0.12420330  0.37417269  1
  V  V55  1  0.37359244  -0.00062441  0.37419602  1
  V  V56  1  0.37554624  0.50133417  0.87714588  1
  V  V57  1  0.62654478  0.37431093  0.25059149  1
  V  V58  1  0.75081499  0.24861176  0.50011548  1
  V  V59  1  0.87590286  0.75085855  0.12493854  1
  V  V60  1  0.37457387  0.74994223  0.12693020  1
  V  V61  1  0.25101938  0.37494433  0.62535522  1
  V  V62  1  0.87708336  0.12551831  0.24833490  1
  V  V63  1  0.87567058  0.62540687  0.25018236  1
  V  V64  1  0.75074998  0.49989997  0.75018420  1
  V  V65  1  -0.00041955  0.24967033  0.74961822  1
  V  V66  1  0.87665829  0.37419988  0.49968182  1
  V  V67  1  0.37514172  0.49987264  0.37490542  1
  V  V68  1  0.49815330  0.62666668  0.62519973  1
  V  V69  1  0.87382846  0.87529189  0.00036331  1
  V  V70  1  0.12416626  -0.00039032  0.62631477  1
  V  V71  1  0.62524737  0.12299797  0.49945646  1
  V  V72  1  0.62433255  0.74844248  0.87625251  1
  V  V73  1  0.37594237  0.25138769  0.12466304  1
  V  V74  1  0.37432051  -0.00012013  0.87562477  1
  V  V75  1  0.24969194  0.87547775  0.62581138  1
  V  V76  1  0.50098608  0.24880737  0.24897992  1
  V  V77  1  0.49865941  0.00040952  -0.00078885  1
  V  V78  1  0.25022108  0.37526030  0.12529589  1
  V  V79  1  0.62575713  0.49899092  0.62381264  1
  V  V80  1  0.12547819  0.62467476  0.50174339  1
  V  V81  1  0.24886972  0.62713179  0.87709297  1
  V  V82  1  0.37509175  0.12560937  0.74903136  1
  V  V83  1  0.37642083  0.62582599  0.24996392  1
  V  V84  1  0.24850793  0.87604976  0.12554875  1
  V  V85  1  0.12549409  0.37531456  0.75080074  1
  V  V86  1  0.00072647  0.49873697  0.50090870  1
  V  V87  1  0.25050120  0.24983696  0.49985943  1
  V  V88  1  0.87331841  0.62393211  0.75102916  1
  V  V89  1  0.87514088  0.87425581  0.49955801  1
  V  V90  1  0.74822905  0.12456512  0.87406523  1
  V  V91  1  0.62579776  0.24879568  0.37465550  1
  V  V92  1  0.25077025  0.75033755  0.50306571  1
  V  V93  1  0.12561679  0.50018604  0.62652305  1
  V  V94  1  0.75192975  0.00090787  0.24892756  1
  V  V95  1  0.49915003  0.12489807  0.62496792  1
  Zn  Zn96  1  0.62534969  -0.00157082  0.62292301  1
  Zn  Zn97  1  0.12508706  0.12509256  0.50012811  1
  Zn  Zn98  1  0.50034566  0.75120357  0.25103467  1
  Zn  Zn99  1  0.87661813  0.49970432  0.37487352  1
  Zn  Zn100  1  0.00070441  0.12683674  0.12330738  1
  Zn  Zn101  1  0.87714708  -0.00328313  0.37327771  1
  Zn  Zn102  1  0.50055763  0.62736861  0.12359638  1
  Zn  Zn103  1  0.12317002  0.75125947  0.87651493  1
  Zn  Zn104  1  0.12482263  0.87326078  0.75194584  1
  Zn  Zn105  1  -0.00155165  0.87398717  0.37290417  1
  Zn  Zn106  1  0.37461281  0.25136429  0.62662683  1
  Zn  Zn107  1  0.62305407  0.24985246  0.87262013  1
  Zn  Zn108  1  0.87466904  0.37526151  0.00121129  1
  Zn  Zn109  1  0.74874652  0.74798067  -0.00030077  1
  Zn  Zn110  1  0.37471675  0.62912283  0.74943492  1
  Zn  Zn111  1  0.87292800  0.12479157  0.74966026  1
  Zn  Zn112  1  0.37738632  0.37642277  0.00191913  1
  Zn  Zn113  1  0.49929810  0.25022171  0.74992498  1
  Zn  Zn114  1  0.74818366  0.62419710  0.87813832  1
  Zn  Zn115  1  0.12351924  0.62723934  0.00263697  1
  Zn  Zn116  1  0.49748574  0.74981441  0.75051187  1
  Zn  Zn117  1  0.00053754  0.75223867  0.24984221  1
  Zn  Zn118  1  0.49767159  0.87330047  0.87427730  1
  Zn  Zn119  1  0.62306904  0.74983842  0.37389323  1
  Zn  Zn120  1  0.50073735  0.50287224  0.00196164  1
  Zn  Zn121  1  0.62381893  0.62716920  -0.00000211  1
  Zn  Zn122  1  0.37505856  0.75106559  0.62674301  1
  Zn  Zn123  1  0.87782400  0.25182742  0.12351400  1
  Zn  Zn124  1  0.12237935  0.87575317  0.25018540  1
  Zn  Zn125  1  0.49894730  0.87337149  0.37402514  1
  Zn  Zn126  1  0.25003340  0.49924369  0.25020878  1
  Zn  Zn127  1  0.37570313  0.12442714  0.24954006  1
  Zn  Zn128  1  0.18844272  0.18675443  0.18740887  1
  Zn  Zn129  1  0.18658594  0.18702738  0.68591872  1
  Zn  Zn130  1  0.18879102  0.68652601  0.18935301  1
  Zn  Zn131  1  0.18644221  0.68963275  0.69101056  1
  Zn  Zn132  1  0.68851429  0.18717422  0.18567499  1
  Zn  Zn133  1  0.68490732  0.18760090  0.68804937  1
  Zn  Zn134  1  0.69144690  0.68855262  0.18785937  1
  Zn  Zn135  1  0.68598198  0.68695498  0.68791812  1
  Zn  Zn136  1  0.31340590  0.31149809  0.31115119  1
  Zn  Zn137  1  0.31475792  0.31273457  0.81186420  1
  Zn  Zn138  1  0.30905931  0.81292844  0.31337541  1
  Zn  Zn139  1  0.31441242  0.81180518  0.81066562  1
  Zn  Zn140  1  0.81433569  0.31171583  0.31295840  1
  Zn  Zn141  1  0.81272270  0.31253436  0.81303108  1
  Zn  Zn142  1  0.81257331  0.81149701  0.31263316  1
  Zn  Zn143  1  0.81002093  0.81212885  0.81297708  1
  Zn  Zn144  1  0.18826110  0.43722804  0.43775943  1
  Zn  Zn145  1  0.18618603  0.43881484  0.94082446  1
  Zn  Zn146  1  0.18720714  0.93740591  0.43903113  1
  Zn  Zn147  1  0.18626462  0.93645101  0.93665199  1
  Zn  Zn148  1  0.68921762  0.43736469  0.43685703  1
  Zn  Zn149  1  0.68738484  0.43790838  0.93799812  1
  Zn  Zn150  1  0.68938912  0.93832660  0.43534030  1
  Zn  Zn151  1  0.68630104  0.93556666  0.93593718  1
  Zn  Zn152  1  0.31223273  0.06465945  0.06295744  1
  Zn  Zn153  1  0.31236119  0.06200716  0.56135706  1
  Zn  Zn154  1  0.31148330  0.56222257  0.06313907  1
  Zn  Zn155  1  0.31364062  0.56126443  0.56222984  1
  Zn  Zn156  1  0.81308449  0.06340354  0.06230514  1
  Zn  Zn157  1  0.81360058  0.06105719  0.56381194  1
  Zn  Zn158  1  0.81000963  0.56510623  0.06077945  1
  Zn  Zn159  1  0.81370414  0.56105242  0.56230058  1
  Zn  Zn160  1  0.43804633  0.43712695  0.18965686  1
  Zn  Zn161  1  0.43664953  0.44059725  0.68936000  1
  Zn  Zn162  1  0.43691539  0.93861751  0.18678482  1
  Zn  Zn163  1  0.43613955  0.93953281  0.68534517  1
  Zn  Zn164  1  0.93650026  0.43736637  0.18706397  1
  Zn  Zn165  1  0.93742268  0.43645945  0.68817771  1
  Zn  Zn166  1  0.94151500  0.93684068  0.18720010  1
  Zn  Zn167  1  0.93571852  0.93694709  0.68736335  1
  Zn  Zn168  1  0.06434348  0.06314251  0.31257557  1
  Zn  Zn169  1  0.06167891  0.06266737  0.81190258  1
  Zn  Zn170  1  0.06225962  0.56300016  0.31214809  1
  Zn  Zn171  1  0.06220301  0.56388783  0.81435553  1
  Zn  Zn172  1  0.56221698  0.06075923  0.31171609  1
  Zn  Zn173  1  0.56205270  0.06060452  0.81231244  1
  Zn  Zn174  1  0.56280062  0.56197991  0.31175671  1
  Zn  Zn175  1  0.56305982  0.56262950  0.81060157  1
  Zn  Zn176  1  0.43585051  0.18635225  0.43720823  1
  Zn  Zn177  1  0.43698250  0.18947743  0.93707033  1
  Zn  Zn178  1  0.43941332  0.69099765  0.43638451  1
  Zn  Zn179  1  0.44117272  0.68765323  0.94085945  1
  Zn  Zn180  1  0.93864288  0.18614827  0.43624573  1
  Zn  Zn181  1  0.93577351  0.18666148  0.93534963  1
  Zn  Zn182  1  0.93729588  0.68562420  0.43790861  1
  Zn  Zn183  1  0.93537404  0.68707767  0.93869390  1
  Zn  Zn184  1  0.06231244  0.31315266  0.06297188  1
  Zn  Zn185  1  0.06471168  0.31190281  0.56263744  1
  Zn  Zn186  1  0.06253854  0.81265945  0.06100107  1
  Zn  Zn187  1  0.06305638  0.81314364  0.56423123  1
  Zn  Zn188  1  0.56389063  0.31505718  0.06056681  1
  Zn  Zn189  1  0.56282635  0.30959874  0.56283651  1
  Zn  Zn190  1  0.55946067  0.81224501  0.06355299  1
  Zn  Zn191  1  0.56252830  0.81143246  0.55994085  1
  O  O192  1  0.12528931  0.11897494  0.11648120  1
  O  O193  1  0.11750017  0.11825077  0.62259227  1
  O  O194  1  0.11871140  0.61826670  0.12604410  1
  O  O195  1  0.11970972  0.61936730  0.62153047  1
  O  O196  1  0.62000963  0.11951649  0.11852854  1
  O  O197  1  0.61566520  0.12311663  0.61811594  1
  O  O198  1  0.62446782  0.61318241  0.13061730  1
  O  O199  1  0.61851728  0.61804039  0.61806866  1
  O  O200  1  0.38163932  0.37941509  0.37996450  1
  O  O201  1  0.38262588  0.38490099  0.87469123  1
  O  O202  1  0.37328375  0.88208604  0.38202227  1
  O  O203  1  0.37484467  0.88256077  0.88219626  1
  O  O204  1  0.88302435  0.37524144  0.38228344  1
  O  O205  1  0.88224629  0.38190192  0.87563030  1
  O  O206  1  0.87719486  0.87615989  0.38412227  1
  O  O207  1  0.87849356  0.88113063  0.88035114  1
  O  O208  1  0.25329888  0.00521652  0.37042017  1
  O  O209  1  0.25466824  0.00687673  0.87010469  1
  O  O210  1  0.25720820  0.50618736  0.37552037  1
  O  O211  1  0.25644108  0.50676687  0.87259744  1
  O  O212  1  0.75364066  0.00771284  0.36714733  1
  O  O213  1  0.75412450  0.00479412  0.86986298  1
  O  O214  1  0.75251515  0.50530424  0.36884873  1
  O  O215  1  0.75585382  0.49926842  0.86686958  1
  O  O216  1  0.24299315  0.49294255  0.12648081  1
  O  O217  1  0.24452317  0.49527330  0.63101098  1
  O  O218  1  0.24520203  0.99596574  0.12920226  1
  O  O219  1  0.24416509  0.99584055  0.62988805  1
  O  O220  1  0.74253101  0.49406281  0.13179060  1
  O  O221  1  0.74542236  0.49272435  0.62896682  1
  O  O222  1  0.74440739  0.99585711  0.12951536  1
  O  O223  1  0.74798293  0.99235895  0.63057899  1
  O  O224  1  0.00555230  0.36982998  0.25600497  1
  O  O225  1  0.00651891  0.36974175  0.75526548  1
  O  O226  1  0.00487814  0.87100749  0.25504687  1
  O  O227  1  -0.00197448  0.86817783  0.75599301  1
  O  O228  1  0.50695452  0.36832245  0.25718500  1
  O  O229  1  0.50522696  0.37647549  0.75819020  1
  O  O230  1  0.51310018  0.87779861  0.24943961  1
  O  O231  1  0.51148809  0.87590564  0.74822093  1
  O  O232  1  0.50085235  0.13152604  0.24209407  1
  O  O233  1  0.49486595  0.12324798  0.74024575  1
  O  O234  1  0.48613919  0.62547551  0.25008545  1
  O  O235  1  0.50018070  0.62383171  0.73521020  1
  O  O236  1  0.99176881  0.13041140  0.25005947  1
  O  O237  1  0.99774091  0.13237440  0.74380759  1
  O  O238  1  0.99309294  0.62649490  0.24370578  1
  O  O239  1  0.99346158  0.62935732  0.74503175  1
  O  O240  1  0.36825248  0.25276006  0.00625077  1
  O  O241  1  0.36866423  0.25742711  0.50106717  1
  O  O242  1  0.36916616  0.75614875  0.00678029  1
  O  O243  1  0.36742612  0.75661099  0.50161987  1
  O  O244  1  0.86193573  0.24993202  0.00096249  1
  O  O245  1  0.87043222  0.25460391  0.50524864  1
  O  O246  1  0.87333840  0.75841833  0.00672821  1
  O  O247  1  0.86984564  0.75330663  0.50673736  1
  O  O248  1  0.13244904  0.24975316  0.49276413  1
  O  O249  1  0.13053912  0.24558002  0.99366271  1
  O  O250  1  0.13011153  0.74340554  0.49512488  1
  O  O251  1  0.13391567  0.74734654  0.99715567  1
  O  O252  1  0.63141085  0.24342712  0.49404356  1
  O  O253  1  0.63496321  0.24421288  0.99785596  1
  O  O254  1  0.63337898  0.74234282  0.49849051  1
  O  O255  1  0.62537677  0.75369113  0.98845952  1
  O  O256  1  0.49691854  0.24657852  0.12898427  1
  O  O257  1  0.49751822  0.23679768  0.62535957  1
  O  O258  1  0.48979287  0.74863551  0.13046195  1
  O  O259  1  0.50000920  0.73655051  0.62257522  1
  O  O260  1  0.99849455  0.24726889  0.13292372  1
  O  O261  1  0.99586135  0.24574564  0.62981176  1
  O  O262  1  0.99375580  0.74345449  0.12548962  1
  O  O263  1  0.99375925  0.74355676  0.63024071  1
  O  O264  1  0.00682997  0.25567635  0.37014476  1
  O  O265  1  0.00553518  0.25545717  0.86971661  1
  O  O266  1  0.01247399  0.74877727  0.37724330  1
  O  O267  1  -0.00227833  0.75622217  0.86917081  1
  O  O268  1  0.50650028  0.25373843  0.37019221  1
  O  O269  1  0.50046238  0.26309590  0.87278625  1
  O  O270  1  0.50524896  0.75563349  0.36962218  1
  O  O271  1  0.50956232  0.75341129  0.87164483  1
  O  O272  1  0.24847738  0.13156764  0.49342659  1
  O  O273  1  0.24473337  0.13173947  0.99311794  1
  O  O274  1  0.24443984  0.62917015  0.49711075  1
  O  O275  1  0.24989821  0.63111774  0.99168287  1
  O  O276  1  0.74604846  0.12946191  0.49492925  1
  O  O277  1  0.74416532  0.13155225  0.99504984  1
  O  O278  1  0.74590332  0.62832580  0.49582964  1
  O  O279  1  0.74250255  0.62976662  0.99636845  1
  O  O280  1  0.25078627  0.36832064  0.00682620  1
  O  O281  1  0.25577991  0.37046633  0.50562091  1
  O  O282  1  0.25579690  0.87067941  0.00535498  1
  O  O283  1  0.25489810  0.87033839  0.50678809  1
  O  O284  1  0.74968717  0.36502755  0.00494011  1
  O  O285  1  0.75558503  0.36832854  0.50506033  1
  O  O286  1  0.75672769  0.87623667  0.00674107  1
  O  O287  1  0.75466883  0.86924701  0.50475255  1
  O  O288  1  0.12643676  0.49285167  0.24432048  1
  O  O289  1  0.12965169  0.49473526  0.74586477  1
  O  O290  1  0.13168194  0.99989107  0.24255959  1
  O  O291  1  0.13134934  0.99917934  0.74393094  1
  O  O292  1  0.63121927  0.49311693  0.24428850  1
  O  O293  1  0.63129128  0.49402513  0.74242523  1
  O  O294  1  0.63174436  0.99426269  0.24299932  1
  O  O295  1  0.63046270  0.98915663  0.74890151  1
  O  O296  1  0.36748445  0.00144738  0.25586274  1
  O  O297  1  0.36836277  0.00591908  0.75571284  1
  O  O298  1  0.37361548  0.50814781  0.25715304  1
  O  O299  1  0.36780063  0.50302331  0.76153576  1
  O  O300  1  0.87093710  0.00937993  0.25019407  1
  O  O301  1  0.86653801  0.00047658  0.75629646  1
  O  O302  1  0.86861575  0.50660641  0.25165248  1
  O  O303  1  0.87030082  0.50422276  0.75444527  1
  O  O304  1  0.12062539  0.36970201  0.36985137  1
  O  O305  1  0.11987796  0.37059665  0.86972290  1
  O  O306  1  0.12485729  0.86181291  0.37704151  1
  O  O307  1  0.11479122  0.87348149  0.87274248  1
  O  O308  1  0.62060039  0.36841825  0.37081136  1
  O  O309  1  0.61497506  0.37790998  0.86819179  1
  O  O310  1  0.62660296  0.87567822  0.36113481  1
  O  O311  1  0.62300648  0.86798378  0.86450360  1
  O  O312  1  0.38253127  0.13294536  0.12567150  1
  O  O313  1  0.38409463  0.12464104  0.62970169  1
  O  O314  1  0.37266358  0.62980194  0.13574487  1
  O  O315  1  0.38683565  0.62347749  0.62456885  1
  O  O316  1  0.87616696  0.12750275  0.13744841  1
  O  O317  1  0.88089433  0.13229505  0.62682516  1
  O  O318  1  0.87971894  0.63053359  0.13075212  1
  O  O319  1  0.88087484  0.62880232  0.63047588  1
  O  O320  1  0.25551802  0.25537979  0.11974787  1
  O  O321  1  0.25053837  0.25745824  0.61873177  1
  O  O322  1  0.25478720  0.75573781  0.12025361  1
  O  O323  1  0.24925668  0.75631088  0.61951621  1
  O  O324  1  0.74958510  0.25531786  0.11478179  1
  O  O325  1  0.75507135  0.25446860  0.61922116  1
  O  O326  1  0.75798041  0.75850587  0.12356566  1
  O  O327  1  0.75548417  0.75366191  0.61905038  1
  O  O328  1  0.24584453  0.24553461  0.37983611  1
  O  O329  1  0.24447974  0.24595470  0.87937594  1
  O  O330  1  0.24180464  0.74361295  0.38334817  1
  O  O331  1  0.25146488  0.74073659  0.88083220  1
  O  O332  1  0.74492793  0.24435954  0.38084961  1
  O  O333  1  0.74778163  0.24483325  0.88339395  1
  O  O334  1  0.74815514  0.74182133  0.38180820  1
  O  O335  1  0.73777470  0.74879208  0.87562789  1
  O  O336  1  0.00669749  0.11945142  -0.00129476  1
  O  O337  1  0.00005466  0.11509112  0.50616207  1
  O  O338  1  0.00022521  0.61807311  0.00745054  1
  O  O339  1  0.00557191  0.61862771  0.50778881  1
  O  O340  1  0.50538593  0.12073130  0.00436760  1
  O  O341  1  0.50469816  0.11990904  0.50626743  1
  O  O342  1  0.50594168  0.61997948  0.00613978  1
  O  O343  1  0.50584786  0.61783155  0.50544212  1
  O  O344  1  0.49617190  0.37877144  0.49502665  1
  O  O345  1  0.49948481  0.37990908  0.98759907  1
  O  O346  1  0.49373808  0.88212999  0.49921639  1
  O  O347  1  0.49148549  0.88381811  1.00036907  1
  O  O348  1  0.99640094  0.37919835  0.49589396  1
  O  O349  1  0.99832827  0.38114288  0.99311775  1
  O  O350  1  0.99372215  0.88414460  0.50202580  1
  O  O351  1  0.99317357  0.88202076  0.99386270  1
  O  O352  1  0.49600549  0.49265781  0.38047973  1
  O  O353  1  0.49118092  0.49368974  0.87355430  1
  O  O354  1  0.49244953  0.99871144  0.38032225  1
  O  O355  1  0.49189318  0.99884968  0.88188026  1
  O  O356  1  1.00078454  0.49299365  0.38332752  1
  O  O357  1  0.99481383  0.49511077  0.88000622  1
  O  O358  1  1.00056112  0.99889254  0.38818332  1
  O  O359  1  0.99319109  0.99548117  0.87943217  1
  O  O360  1  0.00719062  0.00304739  0.11622659  1
  O  O361  1  0.00328915  0.00453095  0.61807338  1
  O  O362  1  0.00448115  0.50494593  0.12014523  1
  O  O363  1  0.00639324  0.50441808  0.62127172  1
  O  O364  1  0.50495790  0.00712376  0.11843754  1
  O  O365  1  0.50146154  0.01092453  0.61702479  1
  O  O366  1  0.51233593  0.49890226  0.12686492  1
  O  O367  1  0.50606290  0.50603434  0.61840818  1
  O  O368  1  0.24334687  0.37553801  0.24371695  1
  O  O369  1  0.24446780  0.38106408  0.74593323  1
  O  O370  1  0.24649128  0.88227948  0.24290370  1
  O  O371  1  0.24909415  0.88273809  0.74406362  1
  O  O372  1  0.74506888  0.37856580  0.24633440  1
  O  O373  1  0.74514881  0.37986170  0.74313753  1
  O  O374  1  0.74410845  0.88165078  0.24346924  1
  O  O375  1  0.74092156  0.87933222  0.74398453  1
  O  O376  1  0.25221913  0.11872849  0.25683865  1
  O  O377  1  0.25451620  0.11989370  0.75488872  1
  O  O378  1  0.26096263  0.62268942  0.25816731  1
  O  O379  1  0.25047326  0.61930249  0.76026574  1
  O  O380  1  0.75754082  0.12133642  0.25395064  1
  O  O381  1  0.74877010  0.11824747  0.75577313  1
  O  O382  1  0.75636275  0.61911318  0.25591806  1
  O  O383  1  0.75629096  0.61664648  0.74876680  1
  O  O384  1  0.36817239  0.11771164  0.37297412  1
  O  O385  1  0.36908765  0.12005047  0.86990354  1
  O  O386  1  0.37071354  0.62000688  0.36981841  1
  O  O387  1  0.36627795  0.61709606  0.87514800  1
  O  O388  1  0.86977065  0.12415736  0.36406175  1
  O  O389  1  0.86635066  0.11769529  0.87249485  1
  O  O390  1  0.86905918  0.62231803  0.36944123  1
  O  O391  1  0.87317796  0.61761631  0.86743808  1
  O  O392  1  0.13014654  0.38008779  0.13109739  1
  O  O393  1  0.13094921  0.38103081  0.63132227  1
  O  O394  1  0.13201477  0.88309367  0.12375914  1
  O  O395  1  0.13163811  0.88198609  0.62776769  1
  O  O396  1  0.63090890  0.38192509  0.13190959  1
  O  O397  1  0.63040606  0.37958573  0.62811917  1
  O  O398  1  0.63066378  0.88152131  0.13156806  1
  O  O399  1  0.63072138  0.87425834  0.63289630  1
  O  O400  1  0.12028308  0.25542276  0.25554994  1
  O  O401  1  0.12006513  0.25600165  0.75569097  1
  O  O402  1  0.12578153  0.74954995  0.26393574  1
  O  O403  1  0.11426662  0.75200055  0.75454855  1
  O  O404  1  0.62125903  0.25459931  0.25525005  1
  O  O405  1  0.62149703  0.25940761  0.75228552  1
  O  O406  1  0.62592332  0.76299145  0.24876410  1
  O  O407  1  0.62362945  0.75931826  0.75608260  1
  O  O408  1  0.38376701  0.24848267  0.24323374  1
  O  O409  1  0.37746178  0.24135540  0.74691092  1
  O  O410  1  0.37237802  0.74110285  0.24590454  1
  O  O411  1  0.38020367  0.74662428  0.74447816  1
  O  O412  1  0.88112872  0.24072119  0.24963634  1
  O  O413  1  0.88168987  0.24953735  0.74302931  1
  O  O414  1  0.87612994  0.74305502  0.24291805  1
  O  O415  1  0.87831801  0.74386034  0.74404003  1
  O  O416  1  0.38141514  0.49334564  0.49398757  1
  O  O417  1  0.37550084  0.49800326  0.98802483  1
  O  O418  1  0.37942482  0.99451314  0.49343412  1
  O  O419  1  0.37869369  0.99634219  0.99515427  1
  O  O420  1  0.88305418  0.49191983  0.50018682  1
  O  O421  1  0.88050380  0.49858295  0.99322132  1
  O  O422  1  0.88447265  0.99365871  0.50001708  1
  O  O423  1  0.88015719  0.99579666  0.99437342  1
  O  O424  1  0.12027181  0.00666873  0.00352485  1
  O  O425  1  0.11490582  0.00051692  0.50720736  1
  O  O426  1  0.11666585  0.50222334  0.00799044  1
  O  O427  1  0.12062456  0.50476255  0.50720485  1
  O  O428  1  0.61924780  0.00473343  0.00460221  1
  O  O429  1  0.61903716  0.00605510  0.49946763  1
  O  O430  1  0.62610284  0.49967825  0.01429270  1
  O  O431  1  0.62052755  0.50375817  0.50469885  1
  O  O432  1  0.36947778  0.36960707  0.12435610  1
  O  O433  1  0.36893479  0.37619373  0.61893299  1
  O  O434  1  0.36769252  0.87075795  0.12019436  1
  O  O435  1  0.36727481  0.87597067  0.61710434  1
  O  O436  1  0.86574408  0.37210394  0.12259242  1
  O  O437  1  0.87001148  0.36871334  0.61939480  1
  O  O438  1  0.87063731  0.87149881  0.11972113  1
  O  O439  1  0.86841438  0.86752535  0.61965658  1
  O  O440  1  0.13202675  0.13263811  0.37726959  1
  O  O441  1  0.13086996  0.13143975  0.87928118  1
  O  O442  1  0.13047526  0.63095927  0.38242230  1
  O  O443  1  0.13815711  0.62483998  0.87838061  1
  O  O444  1  0.63125449  0.12993012  0.37917491  1
  O  O445  1  0.63017217  0.12585016  0.88141543  1
  O  O446  1  0.63234806  0.62422340  0.38085783  1
  O  O447  1  0.62564246  0.63643876  0.87255397  1
