# generated using pymatgen
data_V3Zn3O8
_symmetry_space_group_name_H-M   'P 1'
_cell_length_a   17.09245318
_cell_length_b   17.09283544
_cell_length_c   17.09141518
_cell_angle_alpha   90.00963239
_cell_angle_beta   89.99403588
_cell_angle_gamma   89.99385065
_symmetry_Int_Tables_number   1
_chemical_formula_structural   V3Zn3O8
_chemical_formula_sum   'V96 Zn96 O256'
_cell_volume   4993.40191615
_cell_formula_units_Z   32
loop_
 _symmetry_equiv_pos_site_id
 _symmetry_equiv_pos_as_xyz
  1  'x, y, z'
loop_
 _atom_site_type_symbol
 _atom_site_label
 _atom_site_symmetry_multiplicity
 _atom_site_fract_x
 _atom_site_fract_y
 _atom_site_fract_z
 _atom_site_occupancy
  V  V0  1  0.37482210  -0.00023141  0.37482587  1
  V  V1  1  0.25046732  0.00029090  0.25018119  1
  V  V2  1  0.12524294  -0.00144360  0.62542668  1
  V  V3  1  0.62383805  0.12554666  0.00121857  1
  V  V4  1  0.00106932  0.25072494  0.25062714  1
  V  V5  1  0.37624693  0.37710540  -0.00053112  1
  V  V6  1  0.50055705  0.75032971  0.25085562  1
  V  V7  1  0.24882991  0.75006948  -0.00069531  1
  V  V8  1  0.49990215  -0.00053241  0.49999695  1
  V  V9  1  0.24958415  0.50041090  0.24997684  1
  V  V10  1  0.12537394  0.12427506  0.49969232  1
  V  V11  1  0.37513530  0.62500014  0.25032185  1
  V  V12  1  0.24726238  0.24949899  -0.00252849  1
  V  V13  1  0.49907413  0.74986075  0.74983608  1
  V  V14  1  0.25086397  0.74991264  0.50092489  1
  V  V15  1  0.87384316  0.87439509  0.50038929  1
  V  V16  1  0.87567772  0.49980706  0.37597508  1
  V  V17  1  0.37514762  0.37378239  0.50026856  1
  V  V18  1  0.12360680  0.74986260  0.87372029  1
  V  V19  1  0.75060665  0.87411681  0.62367740  1
  V  V20  1  -0.00028566  0.12511759  0.12455345  1
  V  V21  1  0.87551870  0.00061142  0.37429050  1
  V  V22  1  0.62652333  0.62631035  0.49795582  1
  V  V23  1  0.25076144  0.24907223  0.50034381  1
  V  V24  1  0.75039500  0.62536043  0.87403315  1
  V  V25  1  0.37486341  0.12461100  0.75135698  1
  V  V26  1  0.62524340  0.87452612  0.25015322  1
  V  V27  1  0.24896967  -0.00106194  0.75045498  1
  V  V28  1  0.25006644  0.37581338  0.12510970  1
  V  V29  1  0.87478761  0.62443272  0.74901847  1
  V  V30  1  0.12476015  0.37466741  0.25098470  1
  V  V31  1  0.74998620  0.87476542  0.12561355  1
  V  V32  1  0.37379221  -0.00000087  0.87536651  1
  V  V33  1  0.62413069  0.25061624  0.87540555  1
  V  V34  1  0.62602954  0.37500785  0.74971345  1
  V  V35  1  -0.00005074  0.75034031  0.24928171  1
  V  V36  1  0.74956345  0.00021680  0.75034542  1
  V  V37  1  0.37459087  0.87578249  -0.00043058  1
  V  V38  1  0.37454720  0.49905223  0.37578716  1
  V  V39  1  0.87510250  0.37577314  -0.00021077  1
  V  V40  1  0.50024694  0.12428023  0.62528083  1
  V  V41  1  0.24954833  0.87535189  0.12487192  1
  V  V42  1  0.87579301  0.12516291  0.74988088  1
  V  V43  1  0.62553489  0.50030552  0.12480441  1
  V  V44  1  0.12491754  0.50104563  0.12488895  1
  V  V45  1  0.74948078  0.37603492  0.12574415  1
  V  V46  1  0.12521726  0.49947362  0.62433569  1
  V  V47  1  0.87475980  0.12566384  0.25069381  1
  V  V48  1  0.87519385  0.25103448  0.12543638  1
  V  V49  1  0.49931396  0.87545329  0.87612096  1
  V  V50  1  0.12537578  0.74981484  0.37520584  1
  V  V51  1  0.25224719  0.50012784  0.75014266  1
  V  V52  1  0.12418589  0.00064756  0.12420021  1
  V  V53  1  0.00083608  0.00033329  0.50009148  1
  V  V54  1  0.50008866  0.62524093  0.62567676  1
  V  V55  1  0.62462234  -0.00022888  0.62546929  1
  V  V56  1  0.12410559  0.37215243  0.75172431  1
  V  V57  1  0.12460104  0.62436612  0.00028478  1
  V  V58  1  0.62438441  0.00092970  0.12440314  1
  V  V59  1  0.49930071  0.50012684  -0.00068172  1
  V  V60  1  0.75071653  0.25194357  0.50007774  1
  V  V61  1  0.00001761  0.75105241  0.74907412  1
  V  V62  1  0.50022386  0.24938684  0.75071251  1
  V  V63  1  0.74963746  0.24997503  0.00072045  1
  V  V64  1  0.50002771  0.62557129  0.12510724  1
  V  V65  1  0.87531165  0.74970666  0.12461684  1
  V  V66  1  0.37532002  0.87393676  0.50082494  1
  V  V67  1  0.25049435  0.62457969  0.87433162  1
  V  V68  1  0.00037367  0.62501701  0.12384365  1
  V  V69  1  0.37431483  0.75029072  0.12504416  1
  V  V70  1  0.25126451  0.12369536  0.37399236  1
  V  V71  1  0.37656756  0.24816402  0.12723069  1
  V  V72  1  0.50045726  0.37327461  0.37485188  1
  V  V73  1  -0.00041958  0.87507463  0.37496021  1
  V  V74  1  0.62579565  0.49935159  0.62467682  1
  V  V75  1  0.87592512  0.25096839  0.62557642  1
  V  V76  1  -0.00005109  0.62403456  0.62375660  1
  V  V77  1  0.25023745  0.62520077  0.37509134  1
  V  V78  1  0.87631856  0.49865843  0.87489029  1
  V  V79  1  0.62525162  0.87529782  0.75032031  1
  V  V80  1  0.50132155  0.87413546  0.37485725  1
  V  V81  1  0.12434620  0.62366867  0.50014016  1
  V  V82  1  0.75038615  0.75050869  -0.00037268  1
  V  V83  1  0.62473723  0.62583084  0.00029699  1
  V  V84  1  0.87411628  0.62446041  0.25013686  1
  V  V85  1  0.37521967  0.24957181  0.62487896  1
  V  V86  1  -0.00123768  -0.00004633  -0.00177677  1
  V  V87  1  0.87534532  0.87535699  -0.00087187  1
  V  V88  1  0.75073008  0.12499751  0.37509098  1
  V  V89  1  0.12514440  0.24995072  0.37497366  1
  V  V90  1  0.62487283  0.75050631  0.87482476  1
  V  V91  1  0.74939075  0.12469138  0.87499274  1
  V  V92  1  0.62472131  0.37462736  0.25042085  1
  V  V93  1  0.62549412  0.12513948  0.49949710  1
  V  V94  1  0.37508481  0.74895255  0.62531363  1
  V  V95  1  0.12498397  0.87513784  0.25006017  1
  Zn  Zn96  1  0.00137927  0.49848842  -0.00018685  1
  Zn  Zn97  1  0.37816506  0.12409012  0.24982611  1
  Zn  Zn98  1  0.49998883  0.12461694  0.12686748  1
  Zn  Zn99  1  0.75075717  0.50006960  0.74894549  1
  Zn  Zn100  1  0.00088375  0.37237384  0.87691762  1
  Zn  Zn101  1  0.62500363  0.24909536  0.37419013  1
  Zn  Zn102  1  0.25051490  0.37368017  0.62517114  1
  Zn  Zn103  1  0.75081356  0.00001709  0.25053719  1
  Zn  Zn104  1  -0.00015531  0.37484185  0.37817830  1
  Zn  Zn105  1  0.49721999  0.00277263  0.00062522  1
  Zn  Zn106  1  0.75022760  0.50183673  0.25139236  1
  Zn  Zn107  1  0.12367677  0.12663453  -0.00274907  1
  Zn  Zn108  1  0.87481902  -0.00149699  0.87393100  1
  Zn  Zn109  1  0.62763673  0.74957662  0.37489071  1
  Zn  Zn110  1  0.12097755  0.24828420  0.87503781  1
  Zn  Zn111  1  0.00055310  0.12559834  0.62578972  1
  Zn  Zn112  1  0.75142251  0.75012600  0.49810349  1
  Zn  Zn113  1  0.00000573  0.49706498  0.50005324  1
  Zn  Zn114  1  0.25001493  0.87272481  0.62554571  1
  Zn  Zn115  1  0.24710652  0.12553995  0.87609353  1
  Zn  Zn116  1  0.50029790  0.24632981  0.24988098  1
  Zn  Zn117  1  0.74927371  0.62660972  0.37349490  1
  Zn  Zn118  1  0.00148941  0.24957561  0.75210115  1
  Zn  Zn119  1  0.12387608  0.87470851  0.75065123  1
  Zn  Zn120  1  0.87770290  0.37667589  0.50055044  1
  Zn  Zn121  1  0.87289158  0.74799512  0.62237355  1
  Zn  Zn122  1  0.37628860  0.62439780  0.75104406  1
  Zn  Zn123  1  0.75149514  0.37652959  0.62402171  1
  Zn  Zn124  1  0.37792794  0.50104826  0.87394494  1
  Zn  Zn125  1  0.49938356  0.49941769  0.50053889  1
  Zn  Zn126  1  0.49916881  0.37675834  0.87558717  1
  Zn  Zn127  1  -0.00090819  0.87599344  0.87284175  1
  Zn  Zn128  1  0.18819286  0.18636158  0.18621316  1
  Zn  Zn129  1  0.18885295  0.18588127  0.68656922  1
  Zn  Zn130  1  0.18725982  0.68751016  0.18766331  1
  Zn  Zn131  1  0.18688437  0.68549550  0.68710276  1
  Zn  Zn132  1  0.68842809  0.18801477  0.18822702  1
  Zn  Zn133  1  0.68874174  0.18786497  0.68670525  1
  Zn  Zn134  1  0.68865695  0.68789082  0.18861030  1
  Zn  Zn135  1  0.68849914  0.68812096  0.68610367  1
  Zn  Zn136  1  0.31141361  0.31225873  0.31271608  1
  Zn  Zn137  1  0.31327766  0.31512747  0.81448367  1
  Zn  Zn138  1  0.31329707  0.81345515  0.31309466  1
  Zn  Zn139  1  0.31214743  0.81303007  0.81216452  1
  Zn  Zn140  1  0.81266720  0.31432248  0.31341952  1
  Zn  Zn141  1  0.81064593  0.31225539  0.81291034  1
  Zn  Zn142  1  0.81020641  0.81075148  0.31411355  1
  Zn  Zn143  1  0.81464865  0.81308186  0.81217172  1
  Zn  Zn144  1  0.18813213  0.43598768  0.43826774  1
  Zn  Zn145  1  0.18898975  0.43702338  0.93619330  1
  Zn  Zn146  1  0.18853743  0.93627250  0.43803865  1
  Zn  Zn147  1  0.18436797  0.93548597  0.93564556  1
  Zn  Zn148  1  0.69023008  0.43957787  0.43691813  1
  Zn  Zn149  1  0.68844676  0.43806746  0.93704005  1
  Zn  Zn150  1  0.68835861  0.93811566  0.43647168  1
  Zn  Zn151  1  0.68781197  0.93862058  0.93825405  1
  Zn  Zn152  1  0.31120336  0.06451289  0.06216457  1
  Zn  Zn153  1  0.31225523  0.06250626  0.56313065  1
  Zn  Zn154  1  0.31232808  0.56287494  0.06185539  1
  Zn  Zn155  1  0.31270730  0.56210582  0.56338484  1
  Zn  Zn156  1  0.81216348  0.06295936  0.06293823  1
  Zn  Zn157  1  0.81225823  0.06229799  0.56238685  1
  Zn  Zn158  1  0.81221234  0.56190118  0.06188528  1
  Zn  Zn159  1  0.81184763  0.56269843  0.56120965  1
  Zn  Zn160  1  0.43813430  0.43661083  0.18692893  1
  Zn  Zn161  1  0.43896298  0.43632873  0.68644167  1
  Zn  Zn162  1  0.43839084  0.93767563  0.18796528  1
  Zn  Zn163  1  0.43652908  0.93593647  0.68771901  1
  Zn  Zn164  1  0.93848787  0.43824460  0.18927593  1
  Zn  Zn165  1  0.93981679  0.43686062  0.68766278  1
  Zn  Zn166  1  0.93694136  0.93771472  0.18687716  1
  Zn  Zn167  1  0.93670297  0.93740225  0.68556335  1
  Zn  Zn168  1  0.06262096  0.06328286  0.31213101  1
  Zn  Zn169  1  0.06307173  0.06609501  0.81484088  1
  Zn  Zn170  1  0.06013490  0.56216584  0.31254202  1
  Zn  Zn171  1  0.06263792  0.56237017  0.81125013  1
  Zn  Zn172  1  0.56228157  0.06318508  0.31105877  1
  Zn  Zn173  1  0.56168350  0.06233280  0.81449267  1
  Zn  Zn174  1  0.56109753  0.56035627  0.31293781  1
  Zn  Zn175  1  0.56225481  0.56240688  0.81256787  1
  Zn  Zn176  1  0.43748621  0.18688919  0.43709465  1
  Zn  Zn177  1  0.43734716  0.18730465  0.93839367  1
  Zn  Zn178  1  0.44019091  0.68704748  0.43880900  1
  Zn  Zn179  1  0.43602001  0.68688361  0.93630255  1
  Zn  Zn180  1  0.93869373  0.18688752  0.43816450  1
  Zn  Zn181  1  0.93825527  0.18872327  0.93531643  1
  Zn  Zn182  1  0.93695761  0.68681723  0.43751987  1
  Zn  Zn183  1  0.93783014  0.68623821  0.93636950  1
  Zn  Zn184  1  0.06117853  0.31510826  0.06288019  1
  Zn  Zn185  1  0.06097801  0.31417748  0.56376632  1
  Zn  Zn186  1  0.06237362  0.81339361  0.06138994  1
  Zn  Zn187  1  0.06164004  0.81232043  0.56286628  1
  Zn  Zn188  1  0.56124288  0.31302718  0.06248753  1
  Zn  Zn189  1  0.56226883  0.31205579  0.56235281  1
  Zn  Zn190  1  0.56168004  0.81363082  0.06257690  1
  Zn  Zn191  1  0.56301890  0.81126628  0.56279795  1
  O  O192  1  0.11742136  0.11799534  0.12324256  1
  O  O193  1  0.12469385  0.11367992  0.61896837  1
  O  O194  1  0.12060359  0.62082872  0.12033263  1
  O  O195  1  0.12003499  0.61903820  0.61903353  1
  O  O196  1  0.62679676  0.11641900  0.12021479  1
  O  O197  1  0.61970268  0.11911215  0.62032496  1
  O  O198  1  0.61939408  0.62097276  0.11969724  1
  O  O199  1  0.62031293  0.61713737  0.61936723  1
  O  O200  1  0.38191130  0.37892727  0.37914399  1
  O  O201  1  0.37884937  0.37930685  0.88415475  1
  O  O202  1  0.38108640  0.88004881  0.38106829  1
  O  O203  1  0.37965096  0.87969352  0.88047504  1
  O  O204  1  0.87702052  0.38619355  0.37522462  1
  O  O205  1  0.87179490  0.38440761  0.87994955  1
  O  O206  1  0.88127149  0.88111218  0.37900880  1
  O  O207  1  0.87805570  0.87807181  0.88314004  1
  O  O208  1  0.25495940  0.00371164  0.37004485  1
  O  O209  1  0.25450306  -0.00074888  0.86535219  1
  O  O210  1  0.25498801  0.50589181  0.36909872  1
  O  O211  1  0.25092788  0.50618375  0.86496770  1
  O  O212  1  0.75785335  0.00727703  0.37375642  1
  O  O213  1  0.75061114  0.00683268  0.86829242  1
  O  O214  1  0.76131098  0.50386594  0.37224417  1
  O  O215  1  0.75944316  0.50681833  0.87400579  1
  O  O216  1  0.24494694  0.49597429  0.13112376  1
  O  O217  1  0.24436518  0.49947606  0.63482020  1
  O  O218  1  0.24436494  0.99394529  0.12973290  1
  O  O219  1  0.24256072  0.99897888  0.63293358  1
  O  O220  1  0.74277122  0.49345404  0.12542059  1
  O  O221  1  0.73751384  0.49780540  0.62718507  1
  O  O222  1  0.74064368  0.99393130  0.12583458  1
  O  O223  1  0.74329319  0.99530038  0.63067893  1
  O  O224  1  0.00794111  0.36733601  0.25070816  1
  O  O225  1  0.01299296  0.37411478  0.75153883  1
  O  O226  1  0.00557166  0.86989377  0.25473021  1
  O  O227  1  0.00010499  0.86321719  0.74976029  1
  O  O228  1  0.50780731  0.37410526  0.25813238  1
  O  O229  1  0.51115479  0.36844232  0.75041302  1
  O  O230  1  0.50481062  0.86942496  0.25520081  1
  O  O231  1  0.50594231  0.87008681  0.75596303  1
  O  O232  1  0.49647090  0.12930957  0.24615883  1
  O  O233  1  0.49520898  0.12947945  0.74442306  1
  O  O234  1  0.49422677  0.62956898  0.24444691  1
  O  O235  1  0.50011250  0.63239930  0.74389846  1
  O  O236  1  0.99463520  0.13070336  0.24437000  1
  O  O237  1  0.98664454  0.12537389  0.74810180  1
  O  O238  1  0.99556751  0.63233695  0.24306986  1
  O  O239  1  0.99557047  0.63264154  0.74429680  1
  O  O240  1  0.36734770  0.25614811  0.00815367  1
  O  O241  1  0.37037202  0.25372510  0.50520377  1
  O  O242  1  0.36828237  0.75515388  0.00569314  1
  O  O243  1  0.37042947  0.75425622  0.50499320  1
  O  O244  1  0.86852758  0.25517026  0.00600374  1
  O  O245  1  0.86656305  0.24681437  0.50923083  1
  O  O246  1  0.87003654  0.75432887  0.00511059  1
  O  O247  1  0.87480526  0.75924321  0.50200832  1
  O  O248  1  0.13085491  0.24375640  0.49579844  1
  O  O249  1  0.13695170  0.25215838  1.00220445  1
  O  O250  1  0.13042910  0.74483937  0.49410495  1
  O  O251  1  0.13004502  0.74461116  0.99513391  1
  O  O252  1  0.63488197  0.24369865  0.50089737  1
  O  O253  1  0.63075704  0.24598654  0.99590992  1
  O  O254  1  0.62422027  0.73781837  0.49935229  1
  O  O255  1  0.63016508  0.74544153  0.99498676  1
  O  O256  1  0.48725385  0.25090663  0.12582306  1
  O  O257  1  0.49532991  0.24310425  0.63048507  1
  O  O258  1  0.49355439  0.74511770  0.13013031  1
  O  O259  1  0.49505757  0.74513096  0.63102288  1
  O  O260  1  0.99438077  0.24497149  0.13046803  1
  O  O261  1  0.98777441  0.24599931  0.62815662  1
  O  O262  1  0.99511428  0.74546225  0.12987116  1
  O  O263  1  1.00032182  0.74356173  0.63461649  1
  O  O264  1  0.00769718  0.24896181  0.36782788  1
  O  O265  1  0.00201105  0.25496157  0.86983482  1
  O  O266  1  0.00630217  0.75576544  0.36875996  1
  O  O267  1  0.00508666  0.74780348  0.86411051  1
  O  O268  1  0.50133840  0.26225326  0.37377396  1
  O  O269  1  0.50690541  0.25143906  0.86809503  1
  O  O270  1  0.50118033  0.75648385  0.36793491  1
  O  O271  1  0.50553275  0.75532079  0.87022637  1
  O  O272  1  0.24507893  0.12886978  0.49366870  1
  O  O273  1  0.24745337  0.13708983  0.99977558  1
  O  O274  1  0.24498959  0.63055788  0.49372735  1
  O  O275  1  0.24411761  0.63137791  0.99572423  1
  O  O276  1  0.74521262  0.13225054  0.49545843  1
  O  O277  1  0.74497949  0.13114782  0.99516589  1
  O  O278  1  0.73678991  0.62654933  0.50024546  1
  O  O279  1  0.74425544  0.63167430  0.99484239  1
  O  O280  1  0.25575303  0.36932683  0.00646260  1
  O  O281  1  0.25739713  0.36666954  0.50103353  1
  O  O282  1  0.25422988  0.86917860  0.00544656  1
  O  O283  1  0.25737544  0.86748579  0.50053928  1
  O  O284  1  0.75418541  0.36898370  0.00608305  1
  O  O285  1  0.75187217  0.36237650  0.50152037  1
  O  O286  1  0.75493196  0.86917379  0.00533903  1
  O  O287  1  0.75602567  0.87671654  0.50659485  1
  O  O288  1  0.13103078  0.49596045  0.24512323  1
  O  O289  1  0.13345206  0.49344820  0.74535044  1
  O  O290  1  0.12969200  0.99386806  0.24467476  1
  O  O291  1  0.13207865  1.00089670  0.74213110  1
  O  O292  1  0.62467985  0.48981661  0.24362128  1
  O  O293  1  0.62542152  0.49200788  0.74232179  1
  O  O294  1  0.62741173  0.99361745  0.24012985  1
  O  O295  1  0.62939103  0.99494161  0.74505629  1
  O  O296  1  0.36765087  -0.00140291  0.25683134  1
  O  O297  1  0.36726689  0.00404042  0.75391156  1
  O  O298  1  0.36916963  0.50530737  0.25473863  1
  O  O299  1  0.36392774  0.50001554  0.74928555  1
  O  O300  1  0.87485188  0.00715963  0.25599024  1
  O  O301  1  0.86866044  0.00974975  0.74924831  1
  O  O302  1  0.87485394  0.50651537  0.25761042  1
  O  O303  1  0.87276472  0.50471351  0.75842739  1
  O  O304  1  0.12606932  0.36748702  0.36785505  1
  O  O305  1  0.12431028  0.37458086  0.86369980  1
  O  O306  1  0.11967411  0.86968122  0.36976748  1
  O  O307  1  0.11964494  0.86550266  0.87146492  1
  O  O308  1  0.61732554  0.37591286  0.36766153  1
  O  O309  1  0.62465861  0.36935583  0.86608799  1
  O  O310  1  0.61793470  0.87570184  0.36834159  1
  O  O311  1  0.62032619  0.86969984  0.87016481  1
  O  O312  1  0.37525163  0.13605863  0.12647762  1
  O  O313  1  0.38166122  0.12923937  0.63067342  1
  O  O314  1  0.37968568  0.63092734  0.13076154  1
  O  O315  1  0.38241867  0.63116306  0.62600323  1
  O  O316  1  0.87937618  0.13179707  0.13063104  1
  O  O317  1  0.87336391  0.13252356  0.63416101  1
  O  O318  1  0.88029463  0.63082740  0.12862514  1
  O  O319  1  0.88118969  0.62534782  0.63134001  1
  O  O320  1  0.25704869  0.25604597  0.11807758  1
  O  O321  1  0.25835056  0.24891400  0.61763874  1
  O  O322  1  0.25449849  0.75545989  0.11993192  1
  O  O323  1  0.25575902  0.75014695  0.61873496  1
  O  O324  1  0.75580281  0.25613917  0.11993166  1
  O  O325  1  0.75792672  0.24911202  0.61558429  1
  O  O326  1  0.75573549  0.75512095  0.11843912  1
  O  O327  1  0.75188212  0.75943968  0.62222078  1
  O  O328  1  0.24504118  0.24357540  0.38045413  1
  O  O329  1  0.25031906  0.25090189  0.88810184  1
  O  O330  1  0.24528117  0.74456504  0.37979252  1
  O  O331  1  0.24411443  0.74524765  0.87996069  1
  O  O332  1  0.75058162  0.24424100  0.38538184  1
  O  O333  1  0.74353798  0.24420618  0.88134097  1
  O  O334  1  0.74498804  0.74522746  0.37956876  1
  O  O335  1  0.74432091  0.74567122  0.88023884  1
  O  O336  1  -0.00181619  0.11560338  0.00668303  1
  O  O337  1  0.00767826  0.11747142  0.50139990  1
  O  O338  1  0.00702241  0.62405156  0.00669375  1
  O  O339  1  0.00819058  0.62469447  0.50637830  1
  O  O340  1  0.50843091  0.12310495  0.00395926  1
  O  O341  1  0.50521285  0.11929894  0.50544037  1
  O  O342  1  0.50561729  0.62195286  0.00617136  1
  O  O343  1  0.50872184  0.62156214  0.50698580  1
  O  O344  1  0.49508148  0.37545966  0.49053564  1
  O  O345  1  0.49444029  0.38275074  1.00005522  1
  O  O346  1  0.49542946  0.88043877  0.49526331  1
  O  O347  1  0.49224812  0.87549053  0.99346146  1
  O  O348  1  0.99626178  0.37819889  0.49631440  1
  O  O349  1  0.99064764  0.37890157  0.99857691  1
  O  O350  1  0.99548282  0.88088883  0.49373522  1
  O  O351  1  0.99369296  0.88485329  1.00131641  1
  O  O352  1  0.49275858  0.48826645  0.37560157  1
  O  O353  1  0.49890568  0.49904901  0.88372782  1
  O  O354  1  0.49470723  0.99417261  0.38105334  1
  O  O355  1  0.49241686  0.99267214  0.87597021  1
  O  O356  1  0.98974543  0.49876571  0.37648198  1
  O  O357  1  0.98641663  0.49987523  0.87593921  1
  O  O358  1  0.99596730  0.99441894  0.37994155  1
  O  O359  1  0.99772574  0.99929652  0.88708170  1
  O  O360  1  0.00406263  0.00473956  0.11746989  1
  O  O361  1  0.00958877  0.00133483  0.61916735  1
  O  O362  1  0.00738543  0.50756566  0.12471724  1
  O  O363  1  0.00758954  0.50748035  0.62453720  1
  O  O364  1  0.51261148  -0.00028691  0.12257488  1
  O  O365  1  0.50489386  0.00479458  0.62006935  1
  O  O366  1  0.50558339  0.50680082  0.12018666  1
  O  O367  1  0.51085631  0.50517986  0.62471541  1
  O  O368  1  0.24465797  0.38140461  0.24502006  1
  O  O369  1  0.24317528  0.38414876  0.74878730  1
  O  O370  1  0.24417056  0.87967803  0.24487639  1
  O  O371  1  0.24816149  0.88734170  0.74738409  1
  O  O372  1  0.74003502  0.37654299  0.24438009  1
  O  O373  1  0.73593586  0.37505062  0.74729020  1
  O  O374  1  0.74402410  0.87591982  0.24249859  1
  O  O375  1  0.74445355  0.88051012  0.74529767  1
  O  O376  1  0.25122018  0.11725768  0.25655435  1
  O  O377  1  0.25664253  0.11344136  0.74993656  1
  O  O378  1  0.25554010  0.62059314  0.25534397  1
  O  O379  1  0.24979523  0.61488019  0.75527706  1
  O  O380  1  0.75736216  0.12528591  0.25707149  1
  O  O381  1  0.75603637  0.12004091  0.75457375  1
  O  O382  1  0.75850599  0.62240549  0.25020180  1
  O  O383  1  0.75596561  0.62476015  0.75690719  1
  O  O384  1  0.36866996  0.11723214  0.37500420  1
  O  O385  1  0.37267322  0.11832401  0.86832013  1
  O  O386  1  0.37029962  0.61974211  0.36981568  1
  O  O387  1  0.36637761  0.62259854  0.87192014  1
  O  O388  1  0.87090421  0.11982723  0.37004024  1
  O  O389  1  0.86724107  0.12494040  0.86472679  1
  O  O390  1  0.87607021  0.61680424  0.36803035  1
  O  O391  1  0.86976740  0.61707043  0.87051409  1
  O  O392  1  0.13090406  0.38143324  0.13145006  1
  O  O393  1  0.12848364  0.38077592  0.63422200  1
  O  O394  1  0.13030029  0.87976947  0.13075509  1
  O  O395  1  0.12733341  0.88749149  0.62560795  1
  O  O396  1  0.62898937  0.38005454  0.13217324  1
  O  O397  1  0.62421642  0.38269267  0.63225384  1
  O  O398  1  0.63002629  0.88211944  0.12876321  1
  O  O399  1  0.62888655  0.88127170  0.63109869  1
  O  O400  1  0.12146905  0.25470984  0.25469112  1
  O  O401  1  0.12744052  0.26057607  0.74882866  1
  O  O402  1  0.12039600  0.75562744  0.25534865  1
  O  O403  1  0.11572043  0.74928240  0.75427296  1
  O  O404  1  0.62389531  0.26347581  0.25126984  1
  O  O405  1  0.62053162  0.25611430  0.75381170  1
  O  O406  1  0.61703816  0.75656617  0.24902015  1
  O  O407  1  0.61934953  0.75608585  0.75544122  1
  O  O408  1  0.37354971  0.25042234  0.23796088  1
  O  O409  1  0.37992962  0.24504787  0.74530045  1
  O  O410  1  0.37957283  0.74475745  0.24454060  1
  O  O411  1  0.38144805  0.74960087  0.74358962  1
  O  O412  1  0.88052715  0.24561063  0.24470283  1
  O  O413  1  0.87015146  0.24094176  0.74124361  1
  O  O414  1  0.88156289  0.74569593  0.24385999  1
  O  O415  1  0.88512739  0.74330757  0.74949006  1
  O  O416  1  0.37573428  0.49285183  0.49355512  1
  O  O417  1  0.38134439  0.49437011  1.00156731  1
  O  O418  1  0.38063503  0.99456238  0.49531737  1
  O  O419  1  0.37368044  0.99313420  0.99408128  1
  O  O420  1  0.87609318  0.49931731  0.48981536  1
  O  O421  1  0.87491268  0.49493820  0.99067424  1
  O  O422  1  0.88131418  0.99579156  0.49425323  1
  O  O423  1  0.88375305  0.99504898  1.00078237  1
  O  O424  1  0.11460080  -0.00096670  0.00634753  1
  O  O425  1  0.12178364  0.00403435  0.50668222  1
  O  O426  1  0.12568004  0.50642596  0.00698962  1
  O  O427  1  0.12691050  0.50679067  0.50606443  1
  O  O428  1  0.62441303  0.00576813  0.00926147  1
  O  O429  1  0.61909698  0.00535493  0.50600283  1
  O  O430  1  0.62036585  0.50646886  0.00537292  1
  O  O431  1  0.62336451  0.50597091  0.50942416  1
  O  O432  1  0.36903533  0.36864743  0.12016528  1
  O  O433  1  0.37523403  0.36707477  0.61828856  1
  O  O434  1  0.36883146  0.86955680  0.12029063  1
  O  O435  1  0.37432863  0.86771821  0.61773330  1
  O  O436  1  0.86934585  0.37038402  0.12092429  1
  O  O437  1  0.87154887  0.36343219  0.62610423  1
  O  O438  1  0.86981619  0.86882392  0.11989400  1
  O  O439  1  0.86805279  0.87488333  0.61794051  1
  O  O440  1  0.13155393  0.12967091  0.37998984  1
  O  O441  1  0.12977876  0.13036623  0.87949585  1
  O  O442  1  0.13091537  0.63069763  0.37868762  1
  O  O443  1  0.13043258  0.62984099  0.88071541  1
  O  O444  1  0.63133058  0.12676218  0.38181218  1
  O  O445  1  0.63013608  0.13079873  0.88028963  1
  O  O446  1  0.62327434  0.62276470  0.38631731  1
  O  O447  1  0.63023232  0.63133260  0.88070623  1
