# generated using pymatgen
data_V3Zn3O8
_symmetry_space_group_name_H-M   'P 1'
_cell_length_a   17.08537756
_cell_length_b   17.08556316
_cell_length_c   17.08656938
_cell_angle_alpha   89.99520845
_cell_angle_beta   90.01438581
_cell_angle_gamma   90.00329551
_symmetry_Int_Tables_number   1
_chemical_formula_structural   V3Zn3O8
_chemical_formula_sum   'V96 Zn96 O256'
_cell_volume   4987.79662437
_cell_formula_units_Z   32
loop_
 _symmetry_equiv_pos_site_id
 _symmetry_equiv_pos_as_xyz
  1  'x, y, z'
loop_
 _atom_site_type_symbol
 _atom_site_label
 _atom_site_symmetry_multiplicity
 _atom_site_fract_x
 _atom_site_fract_y
 _atom_site_fract_z
 _atom_site_occupancy
  V  V0  1  -0.00049286  0.50184877  0.00002225  1
  V  V1  1  0.25034809  0.87512531  0.62513050  1
  V  V2  1  0.50076348  0.37470967  0.37544291  1
  V  V3  1  -0.00159748  0.62619967  0.12623330  1
  V  V4  1  0.87507941  0.24986463  0.62402158  1
  V  V5  1  0.74887422  0.87398141  0.12367873  1
  V  V6  1  0.37430388  0.75093889  0.62547549  1
  V  V7  1  0.12535654  0.24967800  0.37526926  1
  V  V8  1  0.75008965  0.49869016  0.74965528  1
  V  V9  1  0.49972343  0.62385541  0.62638727  1
  V  V10  1  0.74930763  0.12499724  0.87384276  1
  V  V11  1  0.12520303  0.87650844  0.24933332  1
  V  V12  1  0.37563062  0.12493420  0.25034048  1
  V  V13  1  0.74910136  0.62477534  0.37682885  1
  V  V14  1  -0.00011869  0.37493609  0.37498875  1
  V  V15  1  0.62649319  -0.00296672  0.62396460  1
  V  V16  1  0.50129072  0.25078474  0.25034912  1
  V  V17  1  0.50021493  0.87444378  0.37456134  1
  V  V18  1  0.50037555  0.49987224  0.50170656  1
  V  V19  1  0.00020272  0.25038731  0.74992836  1
  V  V20  1  0.37645149  -0.00042687  0.37370461  1
  V  V21  1  0.87472471  0.12386827  0.24862400  1
  V  V22  1  0.62527608  0.12547536  -0.00195072  1
  V  V23  1  -0.00028588  0.25012277  0.24992675  1
  V  V24  1  0.25142476  0.12412880  0.37464566  1
  V  V25  1  0.12555951  0.37572069  0.25074066  1
  V  V26  1  0.24929544  0.62677170  0.87633197  1
  V  V27  1  0.87480924  0.12414941  0.74995931  1
  V  V28  1  0.37518271  0.37451221  0.50162291  1
  V  V29  1  0.49849702  0.37560535  0.87600310  1
  V  V30  1  0.62499084  0.37356898  0.74983567  1
  V  V31  1  0.49996683  0.74960534  0.75023751  1
  V  V32  1  0.00118811  0.12568079  0.62469241  1
  V  V33  1  -0.00126840  0.75114112  0.74956080  1
  V  V34  1  0.74953516  0.49830281  0.25011082  1
  V  V35  1  0.49997874  0.74962095  0.25029810  1
  V  V36  1  0.62550889  0.87391139  0.74927748  1
  V  V37  1  -0.00122127  0.00054887  -0.00060570  1
  V  V38  1  0.00050554  0.37619108  0.87502810  1
  V  V39  1  0.87468992  0.49982111  0.87422515  1
  V  V40  1  0.00014814  -0.00036581  0.49898923  1
  V  V41  1  0.37298134  0.74967657  0.12576319  1
  V  V42  1  0.87504946  0.87543941  -0.00166291  1
  V  V43  1  0.62539232  0.74859154  0.37570498  1
  V  V44  1  0.49900484  0.12536662  0.62549678  1
  V  V45  1  0.62585953  0.87466052  0.24905744  1
  V  V46  1  0.87449136  0.49933717  0.37456101  1
  V  V47  1  0.87479003  0.25188949  0.12336776  1
  V  V48  1  0.12469655  0.87612524  0.75184274  1
  V  V49  1  0.62438906  -0.00000757  0.12387550  1
  V  V50  1  0.50027159  0.62447216  0.12532978  1
  V  V51  1  0.00047031  0.50022676  0.50098287  1
  V  V52  1  0.62468057  0.24908385  0.87330264  1
  V  V53  1  0.12388157  0.50108317  0.62443703  1
  V  V54  1  0.24982427  0.50088150  0.75067020  1
  V  V55  1  0.49923302  0.87506232  0.87513265  1
  V  V56  1  0.00028328  0.12632839  0.12441530  1
  V  V57  1  0.49940802  0.00015805  -0.00100344  1
  V  V58  1  0.24980899  0.25284923  0.00154842  1
  V  V59  1  0.49986549  0.12593875  0.12436233  1
  V  V60  1  0.25261822  0.12464271  0.87392554  1
  V  V61  1  0.75141839  0.00046801  0.24864310  1
  V  V62  1  0.87491091  0.37501298  0.00043634  1
  V  V63  1  0.24927218  0.75004030  0.50070926  1
  V  V64  1  0.12587903  0.37620345  0.75053012  1
  V  V65  1  0.24989844  0.37616347  0.12639509  1
  V  V66  1  -0.00045542  0.74960166  0.25019903  1
  V  V67  1  0.12575469  0.25169386  0.87583686  1
  V  V68  1  0.12429494  0.12626818  0.00079094  1
  V  V69  1  0.24994838  0.50026763  0.25194915  1
  V  V70  1  0.87490458  0.62515899  0.74904614  1
  V  V71  1  0.62431528  0.49994795  0.12483138  1
  V  V72  1  0.12561228  0.12518965  0.49994245  1
  V  V73  1  0.87452797  0.37324990  0.50006038  1
  V  V74  1  0.12461553  0.62790014  -0.00014677  1
  V  V75  1  0.62807258  0.12465876  0.49664304  1
  V  V76  1  0.74883036  0.74979784  0.00015094  1
  V  V77  1  0.87394074  0.87288700  0.50112204  1
  V  V78  1  0.62452321  0.62433947  0.00062367  1
  V  V79  1  0.12677728  0.00052800  0.62533170  1
  V  V80  1  0.25122908  0.37492221  0.62542462  1
  V  V81  1  0.62462182  0.37510555  0.24913551  1
  V  V82  1  0.12554942  0.75031981  0.37623083  1
  V  V83  1  0.00025256  0.87491060  0.37520961  1
  V  V84  1  0.37382133  0.62512931  0.75190259  1
  V  V85  1  0.62416859  0.49880709  0.62595765  1
  V  V86  1  0.37450151  0.50088328  0.37614929  1
  V  V87  1  0.62427568  0.74836136  0.87570491  1
  V  V88  1  0.25129686  0.25048836  0.50080019  1
  V  V89  1  0.75027679  -0.00116955  0.74898019  1
  V  V90  1  0.12542937  0.00004174  0.12629680  1
  V  V91  1  0.50174998  -0.00168995  0.49781553  1
  V  V92  1  0.37316328  0.87574478  0.00013504  1
  V  V93  1  0.75096317  0.24837871  0.49874078  1
  V  V94  1  0.24945540  0.62547918  0.37639936  1
  V  V95  1  0.37415575  0.25145259  0.12540887  1
  Zn  Zn96  1  0.37493314  0.12357796  0.74856395  1
  Zn  Zn97  1  0.74875380  0.37367975  0.62456980  1
  Zn  Zn98  1  0.37540916  0.87465171  0.49969342  1
  Zn  Zn99  1  0.87579300  0.00109394  0.87365261  1
  Zn  Zn100  1  0.87437920  0.00015143  0.37395601  1
  Zn  Zn101  1  0.37434121  0.37812391  0.00020097  1
  Zn  Zn102  1  0.49763998  0.24865260  0.74898519  1
  Zn  Zn103  1  0.00004024  0.87793281  0.87467804  1
  Zn  Zn104  1  0.74876482  0.62403243  0.87615139  1
  Zn  Zn105  1  0.62792931  0.25020999  0.37299171  1
  Zn  Zn106  1  0.37567170  0.49940536  0.87801876  1
  Zn  Zn107  1  0.62489381  0.62562031  0.50230986  1
  Zn  Zn108  1  0.74878006  0.74944910  0.50243854  1
  Zn  Zn109  1  0.74925249  0.37469219  0.12309257  1
  Zn  Zn110  1  0.87233285  0.74848803  0.62414282  1
  Zn  Zn111  1  0.49785502  0.49963228  0.00103595  1
  Zn  Zn112  1  0.75009409  0.25156501  -0.00032318  1
  Zn  Zn113  1  0.12610504  0.50104401  0.12677182  1
  Zn  Zn114  1  0.37447619  0.62504998  0.25089634  1
  Zn  Zn115  1  0.12256706  0.62618755  0.50224424  1
  Zn  Zn116  1  0.24858160  0.87649957  0.12579617  1
  Zn  Zn117  1  0.87468651  0.62568527  0.25004893  1
  Zn  Zn118  1  0.00056930  0.62578373  0.62314482  1
  Zn  Zn119  1  0.75282030  0.12429723  0.37212736  1
  Zn  Zn120  1  0.12373261  0.75359145  0.87633019  1
  Zn  Zn121  1  0.37600295  0.24898904  0.62632808  1
  Zn  Zn122  1  0.75067618  0.87073504  0.62503718  1
  Zn  Zn123  1  0.87305775  0.74947874  0.12650077  1
  Zn  Zn124  1  0.24737926  0.75224185  0.00107499  1
  Zn  Zn125  1  0.37514786  0.00114969  0.87267316  1
  Zn  Zn126  1  0.25262005  0.00072858  0.75004403  1
  Zn  Zn127  1  0.25080876  -0.00086533  0.24883139  1
  Zn  Zn128  1  0.18823612  0.18743883  0.18860699  1
  Zn  Zn129  1  0.18830824  0.18932435  0.68827958  1
  Zn  Zn130  1  0.18763926  0.68803671  0.18957674  1
  Zn  Zn131  1  0.18588970  0.68806860  0.68729241  1
  Zn  Zn132  1  0.68913342  0.18888970  0.18495741  1
  Zn  Zn133  1  0.68713936  0.18726340  0.68621823  1
  Zn  Zn134  1  0.68761514  0.68609613  0.18848485  1
  Zn  Zn135  1  0.68901499  0.68693926  0.68654319  1
  Zn  Zn136  1  0.31384329  0.31290446  0.31330488  1
  Zn  Zn137  1  0.31662683  0.30882954  0.80970578  1
  Zn  Zn138  1  0.31113795  0.81410988  0.31199109  1
  Zn  Zn139  1  0.31119875  0.81169532  0.81301956  1
  Zn  Zn140  1  0.81092280  0.31096145  0.31228568  1
  Zn  Zn141  1  0.81158525  0.31199271  0.81263107  1
  Zn  Zn142  1  0.81389360  0.81149501  0.31344690  1
  Zn  Zn143  1  0.81047720  0.81179507  0.81416482  1
  Zn  Zn144  1  0.18714396  0.43786565  0.43893293  1
  Zn  Zn145  1  0.18735103  0.44085738  0.93933896  1
  Zn  Zn146  1  0.18900532  0.93725085  0.43709893  1
  Zn  Zn147  1  0.18724201  0.94022597  0.93876441  1
  Zn  Zn148  1  0.68673237  0.43665888  0.43834494  1
  Zn  Zn149  1  0.68741574  0.43753456  0.93752326  1
  Zn  Zn150  1  0.69034462  0.93746625  0.43439565  1
  Zn  Zn151  1  0.68783421  0.93801123  0.93510957  1
  Zn  Zn152  1  0.31098435  0.06293382  0.06249112  1
  Zn  Zn153  1  0.31393615  0.05951912  0.55996072  1
  Zn  Zn154  1  0.31346395  0.56056131  0.06235531  1
  Zn  Zn155  1  0.31170643  0.56340719  0.56276524  1
  Zn  Zn156  1  0.81174199  0.06317386  0.06180760  1
  Zn  Zn157  1  0.81327627  0.05973955  0.56314012  1
  Zn  Zn158  1  0.81117340  0.56162854  0.06263872  1
  Zn  Zn159  1  0.81227730  0.56000149  0.56327995  1
  Zn  Zn160  1  0.43647651  0.43836360  0.18880421  1
  Zn  Zn161  1  0.43662023  0.43743314  0.69068976  1
  Zn  Zn162  1  0.43836312  0.93759119  0.18764973  1
  Zn  Zn163  1  0.43613654  0.94017315  0.68831795  1
  Zn  Zn164  1  0.93702909  0.43887460  0.18741519  1
  Zn  Zn165  1  0.93725801  0.43703935  0.68589072  1
  Zn  Zn166  1  0.93776735  0.93690283  0.18543191  1
  Zn  Zn167  1  0.93765026  0.93830274  0.68488899  1
  Zn  Zn168  1  0.06181250  0.06172282  0.31252327  1
  Zn  Zn169  1  0.06329062  0.06245703  0.81418929  1
  Zn  Zn170  1  0.06375906  0.56311183  0.31414041  1
  Zn  Zn171  1  0.06219876  0.56397079  0.81232517  1
  Zn  Zn172  1  0.56317298  0.06184103  0.31102689  1
  Zn  Zn173  1  0.56326681  0.06004342  0.81148159  1
  Zn  Zn174  1  0.56222554  0.56230687  0.31204557  1
  Zn  Zn175  1  0.56298714  0.56078507  0.81330404  1
  Zn  Zn176  1  0.43870356  0.18816479  0.43798917  1
  Zn  Zn177  1  0.43674230  0.19177724  0.93858237  1
  Zn  Zn178  1  0.43641009  0.68692988  0.43939467  1
  Zn  Zn179  1  0.43754736  0.68726267  0.93931036  1
  Zn  Zn180  1  0.93657418  0.18588456  0.43541837  1
  Zn  Zn181  1  0.93635913  0.18829195  0.93644399  1
  Zn  Zn182  1  0.93706127  0.68639677  0.43717710  1
  Zn  Zn183  1  0.93656436  0.69036002  0.93497260  1
  Zn  Zn184  1  0.06297325  0.31434383  0.06350700  1
  Zn  Zn185  1  0.06354784  0.31382375  0.56248883  1
  Zn  Zn186  1  0.06046248  0.81323320  0.06434284  1
  Zn  Zn187  1  0.06161519  0.81246187  0.56431453  1
  Zn  Zn188  1  0.56337394  0.31258040  0.06100371  1
  Zn  Zn189  1  0.56392449  0.31105966  0.56204482  1
  Zn  Zn190  1  0.56056159  0.81128115  0.06222248  1
  Zn  Zn191  1  0.56307343  0.81073018  0.56140682  1
  O  O192  1  0.11932109  0.12193863  0.11993585  1
  O  O193  1  0.12074390  0.12121238  0.61951961  1
  O  O194  1  0.11612434  0.62557795  0.11683504  1
  O  O195  1  0.12235190  0.61604962  0.62402399  1
  O  O196  1  0.61889271  0.11975546  0.11863151  1
  O  O197  1  0.61895106  0.11809965  0.61437589  1
  O  O198  1  0.61932358  0.62011404  0.12046425  1
  O  O199  1  0.61694205  0.61725238  0.62598860  1
  O  O200  1  0.38059254  0.38090778  0.38182070  1
  O  O201  1  0.38600567  0.37476644  0.87533858  1
  O  O202  1  0.38309643  0.88107194  0.37457339  1
  O  O203  1  0.37995060  0.87346645  0.88548049  1
  O  O204  1  0.88109770  0.37913116  0.38003616  1
  O  O205  1  0.88242805  0.37987231  0.87910372  1
  O  O206  1  0.88250724  0.87633012  0.38359248  1
  O  O207  1  0.87472929  0.87777512  0.88785219  1
  O  O208  1  0.25742785  0.00726267  0.37400308  1
  O  O209  1  0.25014585  0.01378216  0.87603916  1
  O  O210  1  0.25509948  0.50485665  0.37203645  1
  O  O211  1  0.24877662  0.51187481  0.86935392  1
  O  O212  1  0.75277656  0.00268700  0.36321572  1
  O  O213  1  0.75049324  0.00733420  0.86659126  1
  O  O214  1  0.75396393  0.50630583  0.37048910  1
  O  O215  1  0.75719177  0.50146816  0.86774118  1
  O  O216  1  0.24811594  0.49482370  0.13367734  1
  O  O217  1  0.24458359  0.49438425  0.63113216  1
  O  O218  1  0.24100254  0.99890840  0.12724899  1
  O  O219  1  0.24326242  0.99407925  0.62539603  1
  O  O220  1  0.74300204  0.49913031  0.13269060  1
  O  O221  1  0.74282782  0.49714608  0.63169098  1
  O  O222  1  0.74273063  0.99368369  0.12847964  1
  O  O223  1  0.74306395  0.99722795  0.63166505  1
  O  O224  1  0.00511475  0.36977412  0.25584766  1
  O  O225  1  0.00563950  0.37005156  0.75572236  1
  O  O226  1  0.00525780  0.86975899  0.25472025  1
  O  O227  1  0.00784666  0.86912169  0.74975105  1
  O  O228  1  0.50470014  0.36988471  0.25593889  1
  O  O229  1  0.50654155  0.37348775  0.75915173  1
  O  O230  1  0.50712192  0.86970160  0.25436014  1
  O  O231  1  0.50514034  0.86913193  0.75539808  1
  O  O232  1  0.49579301  0.13042890  0.24374366  1
  O  O233  1  0.50291657  0.12302980  0.73547824  1
  O  O234  1  0.49773049  0.63227179  0.24375591  1
  O  O235  1  0.49386915  0.63008112  0.74629122  1
  O  O236  1  0.99591630  0.13118866  0.24375468  1
  O  O237  1  0.99657586  0.13128376  0.74462030  1
  O  O238  1  1.00151547  0.62967664  0.24082545  1
  O  O239  1  0.99158164  0.63328642  0.75033149  1
  O  O240  1  0.36714377  0.25341537  0.00872232  1
  O  O241  1  0.36861555  0.25676269  0.50137193  1
  O  O242  1  0.37589586  0.75940334  0.00984648  1
  O  O243  1  0.36835420  0.75208291  0.50806203  1
  O  O244  1  0.87623079  0.25741938  0.00569795  1
  O  O245  1  0.87179116  0.25348916  0.50482053  1
  O  O246  1  0.86867098  0.75942091  0.00068926  1
  O  O247  1  0.87557278  0.76093001  0.50105569  1
  O  O248  1  0.13052697  0.24496673  0.49452492  1
  O  O249  1  0.12921654  0.24585484  0.99508102  1
  O  O250  1  0.13070475  0.75016755  0.49428288  1
  O  O251  1  0.12474669  0.73983516  0.99822883  1
  O  O252  1  0.63152050  0.23932085  0.49897738  1
  O  O253  1  0.62636985  0.24225847  0.99256025  1
  O  O254  1  0.62690156  0.74595789  0.49092008  1
  O  O255  1  0.62899003  0.74522846  0.99525781  1
  O  O256  1  0.49452376  0.24488114  0.13019591  1
  O  O257  1  0.50046056  0.23653462  0.62346041  1
  O  O258  1  0.49206856  0.74537601  0.13046195  1
  O  O259  1  0.49458293  0.74410799  0.63132106  1
  O  O260  1  0.99583364  0.24530741  0.13082968  1
  O  O261  1  0.99626614  0.24505685  0.63031059  1
  O  O262  1  0.99886723  0.74036843  0.13093777  1
  O  O263  1  0.99679380  0.74816797  0.63826785  1
  O  O264  1  0.00577702  0.25532281  0.36975632  1
  O  O265  1  0.00625282  0.25600361  0.86939910  1
  O  O266  1  0.00632833  0.75498871  0.36974861  1
  O  O267  1  0.00212694  0.75435725  0.86197724  1
  O  O268  1  0.50194986  0.25682244  0.36824699  1
  O  O269  1  0.50668203  0.25787987  0.87287949  1
  O  O270  1  0.50449871  0.75409895  0.36950579  1
  O  O271  1  0.50446759  0.75527173  0.86949573  1
  O  O272  1  0.24467011  0.13024911  0.49451986  1
  O  O273  1  0.24355564  0.13260986  0.99371807  1
  O  O274  1  0.24755710  0.63223316  0.49418337  1
  O  O275  1  0.24062385  0.62555287  0.99345882  1
  O  O276  1  0.74149942  0.12765506  0.49982853  1
  O  O277  1  0.74244267  0.12513162  0.99242984  1
  O  O278  1  0.74907558  0.62332838  0.48706671  1
  O  O279  1  0.74319229  0.63185490  0.99913705  1
  O  O280  1  0.24813022  0.36984740  0.00753030  1
  O  O281  1  0.25530512  0.36996552  0.50547672  1
  O  O282  1  0.26040262  0.87327270  0.00148086  1
  O  O283  1  0.25143632  0.86835613  0.50719087  1
  O  O284  1  0.75964359  0.37339952  0.00119457  1
  O  O285  1  0.75701889  0.36761741  0.50092200  1
  O  O286  1  0.75573698  0.87087054  0.00426308  1
  O  O287  1  0.76210990  0.87435005  0.49928133  1
  O  O288  1  0.13168217  0.49267220  0.25112154  1
  O  O289  1  0.12982841  0.49456354  0.74560905  1
  O  O290  1  0.12457289  0.99438083  0.24351045  1
  O  O291  1  0.12496053  0.99101341  0.74406106  1
  O  O292  1  0.62972688  0.49440668  0.24471496  1
  O  O293  1  0.63063221  0.49399805  0.74532894  1
  O  O294  1  0.62971258  0.99423892  0.24263996  1
  O  O295  1  0.63041169  0.99277714  0.74401148  1
  O  O296  1  0.37569051  0.00759417  0.25535077  1
  O  O297  1  0.37032375  0.00521786  0.75523267  1
  O  O298  1  0.36786443  0.50144598  0.25887982  1
  O  O299  1  0.36681473  0.50784648  0.75329970  1
  O  O300  1  0.86919822  0.00597580  0.24725211  1
  O  O301  1  0.86973264  0.00673150  0.74990489  1
  O  O302  1  0.86854480  0.50120424  0.25752109  1
  O  O303  1  0.87191619  0.50633518  0.75458316  1
  O  O304  1  0.11981881  0.36861787  0.37064865  1
  O  O305  1  0.12017360  0.37142184  0.87032164  1
  O  O306  1  0.11955666  0.86990180  0.36992125  1
  O  O307  1  0.12438456  0.87489927  0.86415772  1
  O  O308  1  0.61759458  0.37410495  0.36800617  1
  O  O309  1  0.61796723  0.36931714  0.86976919  1
  O  O310  1  0.62025061  0.86933136  0.36781831  1
  O  O311  1  0.61831602  0.86861795  0.86993991  1
  O  O312  1  0.38053966  0.13108502  0.12981854  1
  O  O313  1  0.38858365  0.12348613  0.62120781  1
  O  O314  1  0.38013694  0.63581184  0.12549261  1
  O  O315  1  0.37918984  0.63069922  0.63266959  1
  O  O316  1  0.88176027  0.13117935  0.12835829  1
  O  O317  1  0.88240131  0.13007316  0.62995335  1
  O  O318  1  0.88751318  0.62609286  0.12542847  1
  O  O319  1  0.87745886  0.62386357  0.63847977  1
  O  O320  1  0.25442243  0.25567485  0.12120634  1
  O  O321  1  0.24979735  0.25699310  0.61776589  1
  O  O322  1  0.26162504  0.75174735  0.12369515  1
  O  O323  1  0.25477940  0.75515790  0.62092779  1
  O  O324  1  0.75940790  0.25352665  0.12097114  1
  O  O325  1  0.75770758  0.25002494  0.61734235  1
  O  O326  1  0.74996152  0.75655982  0.11859735  1
  O  O327  1  0.75389916  0.75236859  0.62047748  1
  O  O328  1  0.24495290  0.24473566  0.38095276  1
  O  O329  1  0.24416831  0.24444407  0.88099068  1
  O  O330  1  0.24525582  0.74587847  0.38064506  1
  O  O331  1  0.24664712  0.73749251  0.87733655  1
  O  O332  1  0.74778957  0.24471608  0.38261835  1
  O  O333  1  0.74300210  0.24239558  0.87556061  1
  O  O334  1  0.74431508  0.73983745  0.37460108  1
  O  O335  1  0.74139306  0.74785842  0.88235206  1
  O  O336  1  0.00521689  0.12173015  0.00514324  1
  O  O337  1  0.00630399  0.12092403  0.50521683  1
  O  O338  1  0.00602497  0.62289226  0.00579343  1
  O  O339  1  0.00091840  0.61595493  0.50243943  1
  O  O340  1  0.50481469  0.12014970  0.00489914  1
  O  O341  1  0.50994142  0.11909907  0.50500218  1
  O  O342  1  0.50718496  0.62500809  0.00765844  1
  O  O343  1  0.49971211  0.61735398  0.50867769  1
  O  O344  1  0.49504042  0.38020456  0.49552971  1
  O  O345  1  0.49942080  0.37550369  0.98799455  1
  O  O346  1  0.50015509  0.88078655  0.49215636  1
  O  O347  1  0.49214605  0.87966731  0.99522827  1
  O  O348  1  0.99465335  0.37877463  0.49352433  1
  O  O349  1  0.99656835  0.38195678  0.99398775  1
  O  O350  1  0.99401018  0.87996660  0.49543720  1
  O  O351  1  0.99039048  0.88021396  0.99979959  1
  O  O352  1  0.49444258  0.49489331  0.38105211  1
  O  O353  1  0.49943742  0.48802348  0.87637253  1
  O  O354  1  0.49658443  0.99399356  0.37829000  1
  O  O355  1  0.49892101  0.99296118  0.88195126  1
  O  O356  1  0.99467937  0.49370903  0.38006820  1
  O  O357  1  0.99498078  0.49514127  0.87977392  1
  O  O358  1  1.00001729  0.99278326  0.38198101  1
  O  O359  1  0.99698886  0.99889657  0.88376806  1
  O  O360  1  0.00552680  0.00737078  0.11885055  1
  O  O361  1  0.00726249  0.00696770  0.61898119  1
  O  O362  1  0.00244208  0.51029504  0.11942348  1
  O  O363  1  0.00665537  0.49895381  0.61868938  1
  O  O364  1  0.50548069  0.00614124  0.11920054  1
  O  O365  1  0.50701857  0.00586164  0.61752749  1
  O  O366  1  0.50614930  0.50713200  0.12601763  1
  O  O367  1  0.50397480  0.50482027  0.62176050  1
  O  O368  1  0.24451440  0.37965116  0.24674655  1
  O  O369  1  0.24470395  0.38021011  0.74605593  1
  O  O370  1  0.24080635  0.87828987  0.24747133  1
  O  O371  1  0.23933324  0.87459089  0.74484027  1
  O  O372  1  0.74280701  0.38128770  0.24915033  1
  O  O373  1  0.74382812  0.38102346  0.74834902  1
  O  O374  1  0.74476225  0.87931100  0.24344265  1
  O  O375  1  0.74287041  0.88061691  0.74983313  1
  O  O376  1  0.25765645  0.12496196  0.25751977  1
  O  O377  1  0.24745523  0.12491431  0.76287626  1
  O  O378  1  0.25118115  0.61889517  0.25798507  1
  O  O379  1  0.25322540  0.62152136  0.75827253  1
  O  O380  1  0.75643856  0.11818059  0.24726979  1
  O  O381  1  0.75511575  0.11895181  0.75353669  1
  O  O382  1  0.75038200  0.61807697  0.26074374  1
  O  O383  1  0.75980031  0.61864842  0.75283682  1
  O  O384  1  0.37161242  0.11986278  0.36993943  1
  O  O385  1  0.36272664  0.12581240  0.87770782  1
  O  O386  1  0.36804679  0.61853345  0.37441945  1
  O  O387  1  0.36531590  0.62609316  0.87058455  1
  O  O388  1  0.87476028  0.12110531  0.36455044  1
  O  O389  1  0.86844986  0.12494084  0.86706470  1
  O  O390  1  0.86571432  0.61788831  0.37342033  1
  O  O391  1  0.87462098  0.61867445  0.86499176  1
  O  O392  1  0.13122048  0.37695961  0.13327908  1
  O  O393  1  0.13125827  0.38012259  0.63141950  1
  O  O394  1  0.12446908  0.88182085  0.13089100  1
  O  O395  1  0.12957900  0.88056124  0.63341397  1
  O  O396  1  0.62509914  0.38169067  0.13135571  1
  O  O397  1  0.62509535  0.38087230  0.63186010  1
  O  O398  1  0.62859340  0.88014570  0.12929840  1
  O  O399  1  0.62475003  0.87999520  0.63178398  1
  O  O400  1  0.11916760  0.25499074  0.25632196  1
  O  O401  1  0.11942115  0.25693766  0.75580049  1
  O  O402  1  0.11933452  0.75636876  0.25605303  1
  O  O403  1  0.11637147  0.76002608  0.74982999  1
  O  O404  1  0.61846658  0.25576681  0.24967123  1
  O  O405  1  0.62311932  0.25572892  0.75547271  1
  O  O406  1  0.61953868  0.75569971  0.25496779  1
  O  O407  1  0.61874428  0.75378450  0.75573372  1
  O  O408  1  0.38135405  0.24450430  0.24538733  1
  O  O409  1  0.37963163  0.24133972  0.74330658  1
  O  O410  1  0.38085981  0.75118909  0.24011107  1
  O  O411  1  0.38040949  0.74489586  0.74521968  1
  O  O412  1  0.88150753  0.24515559  0.24376070  1
  O  O413  1  0.88129877  0.24463932  0.74423380  1
  O  O414  1  0.88364285  0.74697296  0.24705947  1
  O  O415  1  0.88162220  0.74209484  0.75148709  1
  O  O416  1  0.38018177  0.49391607  0.49597671  1
  O  O417  1  0.37892403  0.49598139  0.99607000  1
  O  O418  1  0.38384793  0.99718469  0.49112480  1
  O  O419  1  0.38073364  0.99020089  1.00042895  1
  O  O420  1  0.87996520  0.49239608  0.49447963  1
  O  O421  1  0.88101530  0.49605463  0.99389365  1
  O  O422  1  0.88267252  0.99126163  0.49863715  1
  O  O423  1  0.88000096  0.99123897  0.99988437  1
  O  O424  1  0.11851031  0.00676192  0.00632195  1
  O  O425  1  0.12026534  0.00592711  0.50522206  1
  O  O426  1  0.11803060  0.51272627  0.00173906  1
  O  O427  1  0.11795924  0.49957593  0.50659550  1
  O  O428  1  0.61887554  0.00463414  0.00472615  1
  O  O429  1  0.62218190  0.00666800  0.50315976  1
  O  O430  1  0.62376848  0.50684230  0.00715182  1
  O  O431  1  0.61741278  0.50052234  0.50765565  1
  O  O432  1  0.36756506  0.36812087  0.12632014  1
  O  O433  1  0.36854007  0.37483883  0.61898830  1
  O  O434  1  0.37646131  0.86715267  0.11639369  1
  O  O435  1  0.36861559  0.86827038  0.62514243  1
  O  O436  1  0.87630512  0.36958731  0.11798709  1
  O  O437  1  0.87445938  0.36698242  0.61782051  1
  O  O438  1  0.86835215  0.87400999  0.11321853  1
  O  O439  1  0.87483444  0.87368811  0.61291536  1
  O  O440  1  0.13011929  0.13062052  0.38056071  1
  O  O441  1  0.13206638  0.13217391  0.88129302  1
  O  O442  1  0.13156363  0.63299428  0.37753229  1
  O  O443  1  0.13169686  0.62683361  0.88328953  1
  O  O444  1  0.62541399  0.12474994  0.38714023  1
  O  O445  1  0.62896774  0.12938350  0.87879141  1
  O  O446  1  0.63382670  0.62925888  0.37574408  1
  O  O447  1  0.62486781  0.63130035  0.88180544  1
