# generated using pymatgen
data_V3Zn3O8
_symmetry_space_group_name_H-M   'P 1'
_cell_length_a   17.08921972
_cell_length_b   17.08763255
_cell_length_c   17.08888441
_cell_angle_alpha   90.01141802
_cell_angle_beta   89.99836204
_cell_angle_gamma   89.99808016
_symmetry_Int_Tables_number   1
_chemical_formula_structural   V3Zn3O8
_chemical_formula_sum   'V96 Zn96 O256'
_cell_volume   4990.19863746
_cell_formula_units_Z   32
loop_
 _symmetry_equiv_pos_site_id
 _symmetry_equiv_pos_as_xyz
  1  'x, y, z'
loop_
 _atom_site_type_symbol
 _atom_site_label
 _atom_site_symmetry_multiplicity
 _atom_site_fract_x
 _atom_site_fract_y
 _atom_site_fract_z
 _atom_site_occupancy
  V  V0  1  0.12394161  0.75094003  0.37528016  1
  V  V1  1  0.74957645  0.50008318  0.75009383  1
  V  V2  1  0.37493609  0.74884500  0.62598368  1
  V  V3  1  0.87459910  0.62516471  0.75101443  1
  V  V4  1  0.87617827  0.62670362  0.24999675  1
  V  V5  1  0.74956029  0.25037011  -0.00019699  1
  V  V6  1  0.25067209  0.62439266  0.37755747  1
  V  V7  1  -0.00024415  0.25030244  0.74910358  1
  V  V8  1  0.87460205  0.00063378  0.87287484  1
  V  V9  1  0.49966728  -0.00112073  -0.00052370  1
  V  V10  1  0.12484408  0.49884221  0.62562752  1
  V  V11  1  0.62522069  0.49997380  0.62533559  1
  V  V12  1  0.25060750  0.74853725  0.50129627  1
  V  V13  1  0.87521456  0.12494207  0.74858691  1
  V  V14  1  0.00026362  0.37641702  0.87542572  1
  V  V15  1  0.75026856  0.62532814  0.37538075  1
  V  V16  1  0.87476245  0.37435768  0.49953894  1
  V  V17  1  0.87411721  0.12581629  0.24778825  1
  V  V18  1  0.24995810  0.25069786  -0.00075466  1
  V  V19  1  -0.00113309  0.25114885  0.24837259  1
  V  V20  1  0.24966496  0.49808216  0.25141066  1
  V  V21  1  0.87511378  0.50075005  0.37510258  1
  V  V22  1  0.25036206  0.37444129  0.62529508  1
  V  V23  1  0.62533073  0.12462568  0.49894913  1
  V  V24  1  0.24991119  0.12413743  0.87305790  1
  V  V25  1  0.00037554  0.74983613  0.75080890  1
  V  V26  1  0.74897342  0.62614970  0.87616227  1
  V  V27  1  0.37406618  -0.00030300  0.37339785  1
  V  V28  1  0.50013216  0.37393400  0.37538049  1
  V  V29  1  0.12624633  0.49986142  0.12651778  1
  V  V30  1  0.87596977  0.50072603  0.87603353  1
  V  V31  1  0.87475550  0.74985915  0.62496098  1
  V  V32  1  0.87501285  0.25011858  0.62327646  1
  V  V33  1  0.75038118  0.87500553  0.62416664  1
  V  V34  1  0.74974671  0.50029676  0.24989234  1
  V  V35  1  0.75092052  0.00071469  0.74895326  1
  V  V36  1  0.87423207  0.87508903  -0.00037835  1
  V  V37  1  0.00060222  0.62553355  0.12635859  1
  V  V38  1  0.49984520  -0.00012092  0.49982888  1
  V  V39  1  0.62622018  0.37591012  0.75074494  1
  V  V40  1  0.24980502  0.87453192  0.62699763  1
  V  V41  1  0.12608091  0.37508517  0.74955850  1
  V  V42  1  0.37412426  0.87467543  0.00110685  1
  V  V43  1  0.87480716  0.75189301  0.12449107  1
  V  V44  1  0.12522460  0.87391985  0.75005402  1
  V  V45  1  0.49994940  0.12552328  0.62568605  1
  V  V46  1  0.49797681  0.12562256  0.12438750  1
  V  V47  1  0.75094282  0.25007913  0.49880517  1
  V  V48  1  0.87678219  0.87605025  0.49814101  1
  V  V49  1  -0.00016596  0.37461743  0.37375585  1
  V  V50  1  0.24958795  0.12436603  0.37347100  1
  V  V51  1  0.37553074  0.49877085  0.37629013  1
  V  V52  1  0.25036172  0.74999341  0.00188659  1
  V  V53  1  0.62447352  0.87488753  0.74979227  1
  V  V54  1  0.37625335  0.49965574  0.87568657  1
  V  V55  1  0.25109480  0.24918469  0.50128819  1
  V  V56  1  0.25025126  -0.00082381  0.74978789  1
  V  V57  1  0.00023482  0.62335839  0.62588818  1
  V  V58  1  0.50043138  0.62462312  0.12617375  1
  V  V59  1  -0.00233988  0.12692460  0.12331632  1
  V  V60  1  0.87656537  -0.00092166  0.37430158  1
  V  V61  1  0.12465702  0.25021796  0.87393094  1
  V  V62  1  0.49827551  0.24909128  0.24899459  1
  V  V63  1  0.62382530  -0.00106151  0.12395217  1
  V  V64  1  0.62457469  0.37568282  0.24998016  1
  V  V65  1  0.12660824  0.62551552  0.00107076  1
  V  V66  1  0.50192214  0.49964135  0.50164406  1
  V  V67  1  0.37512491  0.87493661  0.50064484  1
  V  V68  1  0.12426048  0.12316503  0.50027812  1
  V  V69  1  0.37511573  0.37419928  0.00109969  1
  V  V70  1  0.12452249  0.37508933  0.25031310  1
  V  V71  1  0.50103580  0.24925189  0.74956671  1
  V  V72  1  0.62554262  0.25006540  0.87525389  1
  V  V73  1  0.74924054  0.00075640  0.24809295  1
  V  V74  1  0.37354916  0.75022531  0.12661344  1
  V  V75  1  0.25077522  0.62539351  0.87678737  1
  V  V76  1  0.00001949  0.49925452  0.50075041  1
  V  V77  1  0.00021324  0.87457299  0.87344652  1
  V  V78  1  0.00058268  0.50035670  0.00039027  1
  V  V79  1  0.62554545  0.00033789  0.62408644  1
  V  V80  1  0.62422045  0.75030398  0.37553205  1
  V  V81  1  0.74969728  0.12481098  0.37282385  1
  V  V82  1  0.00075071  0.12418155  0.62271088  1
  V  V83  1  0.75028117  0.74993198  0.49958321  1
  V  V84  1  0.74961365  0.37649942  0.12423538  1
  V  V85  1  0.62482076  0.62596933  -0.00009404  1
  V  V86  1  0.12324801  0.12602220  -0.00205316  1
  V  V87  1  0.12557840  -0.00115404  0.12554418  1
  V  V88  1  0.62432927  0.87453931  0.24976859  1
  V  V89  1  0.37513589  0.62496514  0.75099547  1
  V  V90  1  0.37561726  0.62499991  0.25129124  1
  V  V91  1  0.37543154  0.37347581  0.50196603  1
  V  V92  1  0.62439859  0.24918287  0.37454919  1
  V  V93  1  -0.00140521  0.00138834  -0.00192684  1
  V  V94  1  0.37519187  -0.00057179  0.87496193  1
  V  V95  1  0.50069464  0.75080633  0.75141553  1
  Zn  Zn96  1  0.62597514  0.75227834  0.87569037  1
  Zn  Zn97  1  0.12480561  0.87615762  0.25115663  1
  Zn  Zn98  1  0.50061713  0.62446611  0.62380909  1
  Zn  Zn99  1  0.12375004  -0.00217146  0.62458948  1
  Zn  Zn100  1  0.75067494  0.12515814  0.87499256  1
  Zn  Zn101  1  0.50162596  0.87587657  0.87612293  1
  Zn  Zn102  1  0.00154596  0.87628982  0.37408395  1
  Zn  Zn103  1  0.12541959  0.62384855  0.50172960  1
  Zn  Zn104  1  0.50022158  0.37518459  0.87623780  1
  Zn  Zn105  1  0.25065927  0.49993296  0.74963128  1
  Zn  Zn106  1  0.74978793  0.87556897  0.12188627  1
  Zn  Zn107  1  0.75110629  0.37488025  0.62519625  1
  Zn  Zn108  1  0.87400527  0.25105463  0.12320226  1
  Zn  Zn109  1  0.62428588  0.50178047  0.12531827  1
  Zn  Zn110  1  0.74875751  0.75251825  -0.00168374  1
  Zn  Zn111  1  0.25054023  0.37250540  0.12708247  1
  Zn  Zn112  1  0.50073150  0.49811886  0.00129617  1
  Zn  Zn113  1  0.24902127  0.87566784  0.12763827  1
  Zn  Zn114  1  0.37225851  0.24974891  0.12628176  1
  Zn  Zn115  1  0.12471606  0.24984382  0.37345721  1
  Zn  Zn116  1  0.37501857  0.12526954  0.74921556  1
  Zn  Zn117  1  0.49787941  0.75054392  0.25288723  1
  Zn  Zn118  1  0.37218751  0.12597129  0.24811137  1
  Zn  Zn119  1  0.49838457  0.87424973  0.37543437  1
  Zn  Zn120  1  0.00129017  0.75318803  0.25202891  1
  Zn  Zn121  1  0.24944990  -0.00069443  0.24705281  1
  Zn  Zn122  1  0.62419048  0.62485522  0.50162653  1
  Zn  Zn123  1  0.00088559  -0.00232165  0.49890878  1
  Zn  Zn124  1  0.37543249  0.24849429  0.62752087  1
  Zn  Zn125  1  0.12581620  0.74959757  0.87637696  1
  Zn  Zn126  1  0.87567182  0.37626598  0.00054042  1
  Zn  Zn127  1  0.62530212  0.12260877  -0.00201949  1
  Zn  Zn128  1  0.18558770  0.18787634  0.18603173  1
  Zn  Zn129  1  0.18788041  0.18698064  0.68641366  1
  Zn  Zn130  1  0.18925408  0.68668479  0.19029825  1
  Zn  Zn131  1  0.18719073  0.68614539  0.68957209  1
  Zn  Zn132  1  0.68420050  0.18795761  0.18565680  1
  Zn  Zn133  1  0.68869559  0.18727104  0.68635433  1
  Zn  Zn134  1  0.68934153  0.68876188  0.18725619  1
  Zn  Zn135  1  0.68614966  0.68591072  0.68707411  1
  Zn  Zn136  1  0.31317177  0.31076534  0.31327954  1
  Zn  Zn137  1  0.31355162  0.31198344  0.81189693  1
  Zn  Zn138  1  0.30705732  0.81455971  0.31033400  1
  Zn  Zn139  1  0.31306160  0.81277935  0.81520351  1
  Zn  Zn140  1  0.81297127  0.31235732  0.31136138  1
  Zn  Zn141  1  0.81332767  0.31447291  0.81231620  1
  Zn  Zn142  1  0.81167464  0.81384498  0.31129408  1
  Zn  Zn143  1  0.81143624  0.81222112  0.81297973  1
  Zn  Zn144  1  0.18653673  0.43625479  0.43844848  1
  Zn  Zn145  1  0.18904485  0.43804531  0.93804423  1
  Zn  Zn146  1  0.18895276  0.93619308  0.43975638  1
  Zn  Zn147  1  0.18774002  0.93610493  0.93800313  1
  Zn  Zn148  1  0.68751862  0.43692976  0.43800256  1
  Zn  Zn149  1  0.68673005  0.43957594  0.93761384  1
  Zn  Zn150  1  0.68968393  0.93718677  0.43616794  1
  Zn  Zn151  1  0.68780484  0.93647010  0.93599387  1
  Zn  Zn152  1  0.31182281  0.06326846  0.05905862  1
  Zn  Zn153  1  0.31308732  0.06195916  0.56400324  1
  Zn  Zn154  1  0.31244207  0.56160163  0.06420628  1
  Zn  Zn155  1  0.31341093  0.56141781  0.56411232  1
  Zn  Zn156  1  0.81111428  0.06284756  0.06197332  1
  Zn  Zn157  1  0.81354383  0.06239913  0.56060478  1
  Zn  Zn158  1  0.81256283  0.56408827  0.06227044  1
  Zn  Zn159  1  0.81149685  0.56270274  0.56273706  1
  Zn  Zn160  1  0.43689710  0.43792272  0.18723115  1
  Zn  Zn161  1  0.43909385  0.43584873  0.68853246  1
  Zn  Zn162  1  0.43755630  0.93705495  0.18782436  1
  Zn  Zn163  1  0.43694519  0.93773310  0.68794763  1
  Zn  Zn164  1  0.93667436  0.43850829  0.18710603  1
  Zn  Zn165  1  0.93695863  0.43677163  0.68793140  1
  Zn  Zn166  1  0.94152683  0.93595473  0.18973359  1
  Zn  Zn167  1  0.93904023  0.93788576  0.68505612  1
  Zn  Zn168  1  0.05986012  0.06342741  0.31115423  1
  Zn  Zn169  1  0.06315401  0.06156117  0.80980296  1
  Zn  Zn170  1  0.06290817  0.56454901  0.31311120  1
  Zn  Zn171  1  0.06427163  0.56273530  0.81310127  1
  Zn  Zn172  1  0.56022469  0.06223785  0.31106285  1
  Zn  Zn173  1  0.56308320  0.06318517  0.81306471  1
  Zn  Zn174  1  0.56289120  0.56228964  0.31334447  1
  Zn  Zn175  1  0.56134849  0.56383711  0.81291719  1
  Zn  Zn176  1  0.43691170  0.18702563  0.43901742  1
  Zn  Zn177  1  0.43723747  0.18618741  0.93668811  1
  Zn  Zn178  1  0.43905032  0.68578665  0.43922722  1
  Zn  Zn179  1  0.43795073  0.68839236  0.93863444  1
  Zn  Zn180  1  0.93792425  0.18689731  0.43452418  1
  Zn  Zn181  1  0.93508283  0.18929903  0.93601987  1
  Zn  Zn182  1  0.93897706  0.68702683  0.43952725  1
  Zn  Zn183  1  0.93836939  0.68775377  0.93870282  1
  Zn  Zn184  1  0.06337965  0.31391211  0.06285161  1
  Zn  Zn185  1  0.06354212  0.31107793  0.56119463  1
  Zn  Zn186  1  0.06102867  0.81299401  0.06081952  1
  Zn  Zn187  1  0.06250316  0.81171200  0.56155045  1
  Zn  Zn188  1  0.56187607  0.31242403  0.06242301  1
  Zn  Zn189  1  0.56401892  0.31313167  0.56396372  1
  Zn  Zn190  1  0.55973120  0.81090275  0.06335769  1
  Zn  Zn191  1  0.56122591  0.81341899  0.56312725  1
  O  O192  1  0.11734379  0.11901666  0.11679111  1
  O  O193  1  0.12003169  0.12448487  0.61505914  1
  O  O194  1  0.12033577  0.61930535  0.12125956  1
  O  O195  1  0.11803164  0.61757375  0.62534362  1
  O  O196  1  0.61340506  0.11848810  0.12359545  1
  O  O197  1  0.62114942  0.11919713  0.61785444  1
  O  O198  1  0.61736589  0.62600843  0.11897705  1
  O  O199  1  0.62279262  0.61522048  0.62256041  1
  O  O200  1  0.38115363  0.37965041  0.38160800  1
  O  O201  1  0.37530252  0.38328972  0.88331448  1
  O  O202  1  0.37394177  0.88430944  0.38121423  1
  O  O203  1  0.37683286  0.88209821  0.88299484  1
  O  O204  1  0.87983322  0.38138532  0.37922650  1
  O  O205  1  0.88269343  0.38304978  0.87557044  1
  O  O206  1  0.87373514  0.88119720  0.38077148  1
  O  O207  1  0.88068935  0.88106634  0.87859308  1
  O  O208  1  0.25853947  0.00889877  0.37775137  1
  O  O209  1  0.25466415  0.00493637  0.87003632  1
  O  O210  1  0.25622307  0.50395506  0.37182313  1
  O  O211  1  0.26120063  0.50585112  0.87444419  1
  O  O212  1  0.75491729  0.00655465  0.36781288  1
  O  O213  1  0.75686462  0.00200204  0.86690573  1
  O  O214  1  0.75585874  0.50503076  0.36985203  1
  O  O215  1  0.75573447  0.50622611  0.86986175  1
  O  O216  1  0.24394116  0.49863938  0.13369000  1
  O  O217  1  0.24338612  0.49234829  0.62647931  1
  O  O218  1  0.23680373  1.00292832  0.12287219  1
  O  O219  1  0.24937974  0.99207121  0.63147989  1
  O  O220  1  0.74870411  0.49242660  0.13076539  1
  O  O221  1  0.74397096  0.49864064  0.63218899  1
  O  O222  1  0.74190498  0.99947131  0.13095865  1
  O  O223  1  0.74501240  0.99483718  0.62878867  1
  O  O224  1  0.00409466  0.37162851  0.25459814  1
  O  O225  1  0.00580035  0.36937742  0.75531008  1
  O  O226  1  0.00706323  0.87062109  0.25584674  1
  O  O227  1  0.00459473  0.86934859  0.75381988  1
  O  O228  1  0.50493044  0.37009293  0.25528697  1
  O  O229  1  0.50785618  0.36612383  0.75301701  1
  O  O230  1  0.51264952  0.87335182  0.25339025  1
  O  O231  1  0.50570928  0.86628364  0.74934999  1
  O  O232  1  0.49865948  0.13021781  0.24039747  1
  O  O233  1  0.50182267  0.13259416  0.74339414  1
  O  O234  1  0.49468055  0.62590544  0.24254707  1
  O  O235  1  0.49392535  0.63518150  0.74902770  1
  O  O236  1  0.99338581  0.13176576  0.24317754  1
  O  O237  1  0.99545402  0.13129011  0.74340640  1
  O  O238  1  0.99324016  0.62659466  0.24357195  1
  O  O239  1  0.99396449  0.62960530  0.74580939  1
  O  O240  1  0.36927455  0.25975051  -0.00227812  1
  O  O241  1  0.36965601  0.25642085  0.50220168  1
  O  O242  1  0.37025205  0.75444282  0.00685527  1
  O  O243  1  0.37080232  0.75500175  0.50557301  1
  O  O244  1  0.86256521  0.25474000  0.00037608  1
  O  O245  1  0.87030051  0.25444382  0.50307453  1
  O  O246  1  0.87554791  0.75557572  0.00933585  1
  O  O247  1  0.86926141  0.75493902  0.50578533  1
  O  O248  1  0.13116289  0.23919392  0.49689934  1
  O  O249  1  0.12902220  0.24553508  0.99283477  1
  O  O250  1  0.13254740  0.74648135  0.49323603  1
  O  O251  1  0.13106401  0.74279664  0.99998202  1
  O  O252  1  0.63031399  0.24433584  0.49362808  1
  O  O253  1  0.63282421  0.25080430  0.99127863  1
  O  O254  1  0.63105049  0.75172768  0.49067750  1
  O  O255  1  0.62549904  0.73854710  0.99898034  1
  O  O256  1  0.49976203  0.24049417  0.12958042  1
  O  O257  1  0.50218659  0.24385877  0.63285037  1
  O  O258  1  0.49322287  0.73876548  0.12878441  1
  O  O259  1  0.49381371  0.74949120  0.63466488  1
  O  O260  1  0.99728471  0.24502157  0.12932806  1
  O  O261  1  0.99475386  0.24459720  0.62974566  1
  O  O262  1  0.99043592  0.74404871  0.12542420  1
  O  O263  1  0.99380371  0.74361250  0.63075189  1
  O  O264  1  0.00050062  0.25702274  0.36671575  1
  O  O265  1  0.00501650  0.25591708  0.86878487  1
  O  O266  1  0.01238097  0.74868626  0.37614635  1
  O  O267  1  0.00050788  0.75628619  0.86836167  1
  O  O268  1  0.50545966  0.25415620  0.37045319  1
  O  O269  1  0.51063666  0.24984451  0.86891777  1
  O  O270  1  0.51165026  0.75180500  0.37423223  1
  O  O271  1  0.50018623  0.75219792  0.86215083  1
  O  O272  1  0.24301488  0.12870275  0.49381962  1
  O  O273  1  0.24308205  0.13101105  0.99194749  1
  O  O274  1  0.25042402  0.63074419  0.49497353  1
  O  O275  1  0.24588284  0.62989694  0.99652641  1
  O  O276  1  0.74471883  0.13029051  0.49266945  1
  O  O277  1  0.74691709  0.13786096  0.99874016  1
  O  O278  1  0.74913961  0.63226964  0.49274136  1
  O  O279  1  0.74039520  0.62609799  0.99561980  1
  O  O280  1  0.25879597  0.36912726  0.00051190  1
  O  O281  1  0.25511361  0.36865268  0.50477136  1
  O  O282  1  0.25611668  0.86808650  0.00327446  1
  O  O283  1  0.25652472  0.86859141  0.50745879  1
  O  O284  1  0.74875216  0.36866644  0.00831816  1
  O  O285  1  0.75749654  0.36754077  0.49946387  1
  O  O286  1  0.75830982  0.87275211  0.00206542  1
  O  O287  1  0.75577831  0.86946829  0.50550880  1
  O  O288  1  0.13013850  0.49521277  0.24614240  1
  O  O289  1  0.12617320  0.49248032  0.74404279  1
  O  O290  1  0.12405933  1.00368366  0.23555682  1
  O  O291  1  0.13209059  0.99205620  0.74810718  1
  O  O292  1  0.63221991  0.49345953  0.24982835  1
  O  O293  1  0.62964766  0.49562722  0.74605276  1
  O  O294  1  0.62875031  0.99242364  0.24578715  1
  O  O295  1  0.63059898  0.99547257  0.74316888  1
  O  O296  1  0.37381436  0.00239379  0.26212343  1
  O  O297  1  0.36834755  0.00078388  0.75681224  1
  O  O298  1  0.36995361  0.50412314  0.25744638  1
  O  O299  1  0.37470746  0.50465175  0.76002184  1
  O  O300  1  0.86880345  0.00594948  0.25347059  1
  O  O301  1  0.87051158  0.00492928  0.75321318  1
  O  O302  1  0.86929035  0.50613631  0.25581108  1
  O  O303  1  0.87050257  0.50616393  0.75565791  1
  O  O304  1  0.11743563  0.37358697  0.36877623  1
  O  O305  1  0.11999886  0.37015172  0.86986955  1
  O  O306  1  0.12623395  0.86251905  0.37764728  1
  O  O307  1  0.11768147  0.87310754  0.86886491  1
  O  O308  1  0.61965905  0.36862316  0.36962158  1
  O  O309  1  0.62371930  0.36617864  0.87046340  1
  O  O310  1  0.62537913  0.86698059  0.36726177  1
  O  O311  1  0.62229230  0.87221676  0.86551015  1
  O  O312  1  0.38651086  0.12493968  0.12535178  1
  O  O313  1  0.38424045  0.12687180  0.62726169  1
  O  O314  1  0.38243079  0.62919124  0.13073160  1
  O  O315  1  0.37655965  0.63100272  0.63306475  1
  O  O316  1  0.88025323  0.12673168  0.13026820  1
  O  O317  1  0.88074857  0.13100385  0.62855788  1
  O  O318  1  0.88042630  0.63261255  0.12967597  1
  O  O319  1  0.87996135  0.62997488  0.63146941  1
  O  O320  1  0.25196842  0.25099070  0.11550321  1
  O  O321  1  0.25171827  0.25628196  0.61883221  1
  O  O322  1  0.25680832  0.74883916  0.11905398  1
  O  O323  1  0.25581182  0.75437399  0.62139608  1
  O  O324  1  0.74735451  0.25916493  0.11678165  1
  O  O325  1  0.75699693  0.25062968  0.61658607  1
  O  O326  1  0.76372025  0.75136759  0.12303224  1
  O  O327  1  0.75516313  0.75496826  0.61999000  1
  O  O328  1  0.24966381  0.23870650  0.38159445  1
  O  O329  1  0.24311393  0.24444315  0.87871271  1
  O  O330  1  0.24396992  0.74385057  0.38185958  1
  O  O331  1  0.24984513  0.74270100  0.88373788  1
  O  O332  1  0.74401217  0.24419395  0.37852661  1
  O  O333  1  0.74225278  0.25183302  0.88293331  1
  O  O334  1  0.74240317  0.74562621  0.37930220  1
  O  O335  1  0.74761236  0.74125427  0.87691386  1
  O  O336  1  0.00361318  0.12112638  0.00262050  1
  O  O337  1  0.00957516  0.12615578  0.50350903  1
  O  O338  1  0.00653900  0.61930906  0.00616746  1
  O  O339  1  0.00015333  0.61660448  0.50848667  1
  O  O340  1  0.50143993  0.11918507  0.00887852  1
  O  O341  1  0.50677629  0.11968975  0.50491658  1
  O  O342  1  0.50687680  0.62469682  0.00947700  1
  O  O343  1  0.50302699  0.61557031  0.50265771  1
  O  O344  1  0.49580577  0.37883663  0.49418164  1
  O  O345  1  0.48956146  0.37702710  0.99817289  1
  O  O346  1  0.49314554  0.88226606  0.49868990  1
  O  O347  1  0.49273584  0.88095955  0.99955158  1
  O  O348  1  0.99405348  0.37916104  0.49404189  1
  O  O349  1  0.99932170  0.38229893  0.99355767  1
  O  O350  1  0.99162404  0.87654554  0.49760240  1
  O  O351  1  0.99375202  0.88184767  0.99267978  1
  O  O352  1  0.49535051  0.49309990  0.38034782  1
  O  O353  1  0.48730949  0.49925594  0.87764823  1
  O  O354  1  0.48987159  1.00073900  0.38136018  1
  O  O355  1  0.49405728  0.99986445  0.88147075  1
  O  O356  1  0.99395797  0.49521572  0.38020101  1
  O  O357  1  0.99576005  0.49595191  0.88076214  1
  O  O358  1  0.99124367  0.99973706  0.37743135  1
  O  O359  1  0.99400768  0.99494998  0.87825998  1
  O  O360  1  0.00571400  0.00719860  0.11732636  1
  O  O361  1  0.00273761  0.00874993  0.62068784  1
  O  O362  1  0.00550217  0.50571519  0.12039409  1
  O  O363  1  0.00434685  0.50375447  0.62044470  1
  O  O364  1  0.50426521  0.00721348  0.12027522  1
  O  O365  1  0.50636620  0.00478840  0.61952540  1
  O  O366  1  0.50109726  0.51332803  0.12442233  1
  O  O367  1  0.50788629  0.49959371  0.61998095  1
  O  O368  1  0.24360673  0.38046459  0.25103853  1
  O  O369  1  0.24322797  0.37545912  0.74401992  1
  O  O370  1  0.24242264  0.88197338  0.24483182  1
  O  O371  1  0.24495216  0.87863142  0.74614308  1
  O  O372  1  0.74459432  0.37922242  0.24288354  1
  O  O373  1  0.74448891  0.38264795  0.74930062  1
  O  O374  1  0.73889386  0.88162923  0.24801083  1
  O  O375  1  0.74544156  0.88059209  0.74279175  1
  O  O376  1  0.25016290  0.12303228  0.26189490  1
  O  O377  1  0.24998824  0.11835952  0.75598508  1
  O  O378  1  0.25681293  0.61732435  0.25764364  1
  O  O379  1  0.25755564  0.62332507  0.75817026  1
  O  O380  1  0.75308394  0.12090456  0.25374210  1
  O  O381  1  0.75775615  0.11851222  0.74924479  1
  O  O382  1  0.75604098  0.61966731  0.25556756  1
  O  O383  1  0.75544955  0.61983604  0.75571832  1
  O  O384  1  0.36577244  0.11593491  0.37747542  1
  O  O385  1  0.36723612  0.11761393  0.87403078  1
  O  O386  1  0.37082169  0.61851809  0.37095239  1
  O  O387  1  0.37068707  0.61733435  0.87238101  1
  O  O388  1  0.86844853  0.11999282  0.36765349  1
  O  O389  1  0.87419544  0.11903598  0.86630159  1
  O  O390  1  0.87008091  0.62031943  0.37015693  1
  O  O391  1  0.87030675  0.61988418  0.87015733  1
  O  O392  1  0.12648230  0.38271651  0.13218872  1
  O  O393  1  0.12953359  0.37898491  0.63007925  1
  O  O394  1  0.12367244  0.88907644  0.12208578  1
  O  O395  1  0.13206335  0.87458197  0.63138197  1
  O  O396  1  0.63353395  0.37750406  0.13054117  1
  O  O397  1  0.62907008  0.38232092  0.63200231  1
  O  O398  1  0.62509554  0.87879811  0.13445031  1
  O  O399  1  0.63130352  0.88128518  0.62903100  1
  O  O400  1  0.11729105  0.25649077  0.25114433  1
  O  O401  1  0.11890863  0.25492943  0.75481445  1
  O  O402  1  0.12557750  0.74885879  0.26358196  1
  O  O403  1  0.11792093  0.75562042  0.75275490  1
  O  O404  1  0.61892017  0.25586240  0.25583870  1
  O  O405  1  0.62249480  0.25485669  0.75726216  1
  O  O406  1  0.62660610  0.75802729  0.25909852  1
  O  O407  1  0.61558602  0.75540763  0.74839643  1
  O  O408  1  0.38276623  0.24704556  0.24739384  1
  O  O409  1  0.38655405  0.24785002  0.74987849  1
  O  O410  1  0.37553320  0.74303730  0.24602376  1
  O  O411  1  0.38229386  0.74627270  0.74566534  1
  O  O412  1  0.88001576  0.24363959  0.24713292  1
  O  O413  1  0.88051937  0.24558027  0.74405530  1
  O  O414  1  0.87570509  0.74498379  0.24129258  1
  O  O415  1  0.87996853  0.74464036  0.74394068  1
  O  O416  1  0.38111035  0.49301101  0.49518484  1
  O  O417  1  0.37469316  0.49181436  0.99228202  1
  O  O418  1  0.37969604  0.99490464  0.49266748  1
  O  O419  1  0.37984999  0.99431203  0.99464600  1
  O  O420  1  0.87975447  0.49451768  0.49460146  1
  O  O421  1  0.88208414  0.50019261  0.99383698  1
  O  O422  1  0.87445238  0.99391737  0.49207699  1
  O  O423  1  0.87952602  0.99600646  0.99337471  1
  O  O424  1  0.11787709  0.00686021  0.00455672  1
  O  O425  1  0.12505637  0.01235801  0.50149356  1
  O  O426  1  0.12083618  0.50562989  0.00639593  1
  O  O427  1  0.11732946  0.49977166  0.50730058  1
  O  O428  1  0.61848360  0.00034836  0.00574072  1
  O  O429  1  0.62093956  0.00504342  0.50388524  1
  O  O430  1  0.62185200  0.51226493  0.00260300  1
  O  O431  1  0.62004395  0.49951109  0.50685431  1
  O  O432  1  0.37307455  0.37422815  0.11343845  1
  O  O433  1  0.36881424  0.37362873  0.61903090  1
  O  O434  1  0.37430062  0.86833190  0.11961646  1
  O  O435  1  0.36928637  0.86881248  0.62017645  1
  O  O436  1  0.86124049  0.37432755  0.12403760  1
  O  O437  1  0.87433146  0.36804985  0.61789625  1
  O  O438  1  0.87600288  0.86718605  0.11935420  1
  O  O439  1  0.86916858  0.86902032  0.61986995  1
  O  O440  1  0.13382889  0.12467972  0.38248053  1
  O  O441  1  0.12886592  0.13064220  0.87890763  1
  O  O442  1  0.13239477  0.63211504  0.37871947  1
  O  O443  1  0.13224168  0.62513406  0.88301520  1
  O  O444  1  0.62968671  0.12937530  0.37926378  1
  O  O445  1  0.62925708  0.13777417  0.87597345  1
  O  O446  1  0.63140006  0.63518508  0.37506250  1
  O  O447  1  0.62951921  0.62623126  0.88422189  1
