# generated using pymatgen
data_V3Zn3O8
_symmetry_space_group_name_H-M   'P 1'
_cell_length_a   17.08716761
_cell_length_b   17.08813854
_cell_length_c   17.08811357
_cell_angle_alpha   90.00140410
_cell_angle_beta   90.00395312
_cell_angle_gamma   90.00481900
_symmetry_Int_Tables_number   1
_chemical_formula_structural   V3Zn3O8
_chemical_formula_sum   'V96 Zn96 O256'
_cell_volume   4989.52214982
_cell_formula_units_Z   32
loop_
 _symmetry_equiv_pos_site_id
 _symmetry_equiv_pos_as_xyz
  1  'x, y, z'
loop_
 _atom_site_type_symbol
 _atom_site_label
 _atom_site_symmetry_multiplicity
 _atom_site_fract_x
 _atom_site_fract_y
 _atom_site_fract_z
 _atom_site_occupancy
  V  V0  1  0.74898751  0.50170497  0.24965308  1
  V  V1  1  0.62388665  0.24994088  0.37495139  1
  V  V2  1  -0.00173956  0.24986471  0.24968552  1
  V  V3  1  -0.00053038  0.50029937  0.49879701  1
  V  V4  1  0.87493363  0.87430423  0.50007398  1
  V  V5  1  0.75021872  -0.00067870  0.75093340  1
  V  V6  1  0.12363522  0.25075424  0.37524132  1
  V  V7  1  -0.00048388  0.49965506  -0.00076378  1
  V  V8  1  0.62542780  0.12509051  0.50078912  1
  V  V9  1  0.00144915  0.12435839  0.12579763  1
  V  V10  1  0.24920186  0.62531716  0.87468530  1
  V  V11  1  0.87496421  0.74947415  0.62511293  1
  V  V12  1  -0.00182403  0.37497907  0.37404107  1
  V  V13  1  0.12426814  0.49948974  0.12436961  1
  V  V14  1  0.12543156  0.75065131  0.37454779  1
  V  V15  1  0.74867843  0.37562674  0.62477628  1
  V  V16  1  0.24994793  0.74996761  0.49960479  1
  V  V17  1  0.62459598  0.24977460  0.87402247  1
  V  V18  1  -0.00174835  0.37519758  0.87517113  1
  V  V19  1  0.24927439  0.25006779  -0.00030843  1
  V  V20  1  0.37460340  0.62467013  0.74926072  1
  V  V21  1  0.12402747  0.37547752  0.74971986  1
  V  V22  1  0.49792873  0.50007195  0.49965609  1
  V  V23  1  0.25046212  0.12574793  0.37557260  1
  V  V24  1  0.12428750  0.62407404  0.49886338  1
  V  V25  1  0.62438578  0.37424491  0.74951840  1
  V  V26  1  0.00218368  -0.00121002  0.00186688  1
  V  V27  1  0.12592645  0.75016332  0.87403730  1
  V  V28  1  0.12525681  0.87417579  0.75025324  1
  V  V29  1  0.25042308  0.12476424  0.87550520  1
  V  V30  1  0.00051511  0.75014772  0.75002770  1
  V  V31  1  0.25022151  0.87544366  0.62443225  1
  V  V32  1  0.37655211  0.25065136  0.12561279  1
  V  V33  1  0.50066687  0.75036869  0.75047138  1
  V  V34  1  0.50179764  0.00054029  0.50087339  1
  V  V35  1  0.75031612  0.62432520  0.87446669  1
  V  V36  1  0.62581245  0.12431071  -0.00068037  1
  V  V37  1  0.00086322  0.87504356  0.37614734  1
  V  V38  1  -0.00098695  0.24889393  0.75045140  1
  V  V39  1  0.49926611  0.62505422  0.62479457  1
  V  V40  1  0.62547294  0.87505399  0.75016455  1
  V  V41  1  0.62582371  0.49970497  0.12471267  1
  V  V42  1  0.12464430  0.00052342  0.62545861  1
  V  V43  1  0.12661312  0.00030435  0.12663498  1
  V  V44  1  0.62573995  0.00018374  0.62489704  1
  V  V45  1  0.25081879  0.62400700  0.37368505  1
  V  V46  1  0.49989052  0.87526885  0.87518616  1
  V  V47  1  0.50088092  0.87519799  0.37459866  1
  V  V48  1  0.37414909  0.37615275  0.49869647  1
  V  V49  1  0.12420850  0.37562550  0.24853148  1
  V  V50  1  0.12639643  0.87583711  0.25183036  1
  V  V51  1  0.37460776  0.24749149  0.62611583  1
  V  V52  1  0.24926908  0.37595839  0.12483626  1
  V  V53  1  0.50033477  0.37364202  0.87383362  1
  V  V54  1  0.87383776  0.25007822  0.12414263  1
  V  V55  1  0.62404144  0.49925031  0.62571166  1
  V  V56  1  0.25218349  0.75172732  0.00154116  1
  V  V57  1  0.74983025  0.74993340  0.49958478  1
  V  V58  1  0.25281859  0.00148973  0.25082180  1
  V  V59  1  0.74934481  0.25068878  0.50082988  1
  V  V60  1  0.75066581  0.12330105  0.87502638  1
  V  V61  1  0.25106830  0.00049473  0.75065910  1
  V  V62  1  -0.00065105  -0.00006231  0.50125326  1
  V  V63  1  0.50006331  0.12677566  0.12552883  1
  V  V64  1  0.75199875  0.00025965  0.25132209  1
  V  V65  1  0.87476389  0.12391891  0.25122821  1
  V  V66  1  0.62501617  0.00026128  0.12464450  1
  V  V67  1  0.62558532  0.62470425  -0.00124334  1
  V  V68  1  0.87631459  0.74921570  0.12676658  1
  V  V69  1  0.87682784  0.87572806  -0.00046026  1
  V  V70  1  0.87300854  0.50041922  0.37392334  1
  V  V71  1  0.75049231  0.74897324  -0.00043465  1
  V  V72  1  0.50031045  0.50001550  -0.00100914  1
  V  V73  1  0.50009988  -0.00071603  -0.00077634  1
  V  V74  1  0.62426621  0.37444995  0.24948072  1
  V  V75  1  0.37551686  0.62502443  0.24920895  1
  V  V76  1  0.37603527  0.87622996  0.49928892  1
  V  V77  1  0.00111981  0.62531207  0.12539535  1
  V  V78  1  0.12377168  0.49927158  0.62414050  1
  V  V79  1  0.62423704  0.62577843  0.49991341  1
  V  V80  1  0.37521295  0.00015790  0.87535898  1
  V  V81  1  -0.00047323  0.12473401  0.62629453  1
  V  V82  1  0.37426861  0.49936143  0.87412990  1
  V  V83  1  0.74889633  0.62474154  0.37526612  1
  V  V84  1  0.87511380  0.12387935  0.75107759  1
  V  V85  1  0.49921707  0.62588803  0.12474059  1
  V  V86  1  0.87314403  0.37509969  0.50021797  1
  V  V87  1  0.37471574  0.37544805  -0.00027963  1
  V  V88  1  0.24839529  0.25076747  0.49950695  1
  V  V89  1  0.87535091  0.50013642  0.87417058  1
  V  V90  1  0.87514361  0.62568245  0.74986094  1
  V  V91  1  0.37491564  0.75009535  0.62454351  1
  V  V92  1  0.12474962  0.24938186  0.87592019  1
  V  V93  1  0.24811924  0.49952034  0.74963115  1
  V  V94  1  0.62495446  0.87383572  0.24945690  1
  V  V95  1  0.75110072  0.24942672  0.00027621  1
  Zn  Zn96  1  0.12567198  0.12409416  0.00126975  1
  Zn  Zn97  1  0.00179758  0.75060526  0.25079476  1
  Zn  Zn98  1  0.50012159  0.12464779  0.62729231  1
  Zn  Zn99  1  0.25023575  0.49967783  0.25009021  1
  Zn  Zn100  1  0.25343306  0.87505843  0.12623690  1
  Zn  Zn101  1  0.37451902  0.49971123  0.37417608  1
  Zn  Zn102  1  0.12618227  0.62568658  -0.00034830  1
  Zn  Zn103  1  0.87788556  -0.00085151  0.87549245  1
  Zn  Zn104  1  0.12259598  0.12627157  0.50161966  1
  Zn  Zn105  1  0.62533089  0.74877334  0.37369574  1
  Zn  Zn106  1  0.37889934  0.12827529  0.25136314  1
  Zn  Zn107  1  0.87323674  0.37494962  0.00052441  1
  Zn  Zn108  1  0.49910601  0.24709383  0.74960089  1
  Zn  Zn109  1  0.87433185  0.25045285  0.62542957  1
  Zn  Zn110  1  0.75119759  0.37551748  0.12243493  1
  Zn  Zn111  1  0.62526751  0.74968377  0.87490645  1
  Zn  Zn112  1  0.24787545  0.37383215  0.62546714  1
  Zn  Zn113  1  0.49960648  0.75100731  0.24752815  1
  Zn  Zn114  1  0.37676257  0.00311912  0.37579950  1
  Zn  Zn115  1  0.37642890  0.75312281  0.12501841  1
  Zn  Zn116  1  0.75004263  0.87377516  0.12490048  1
  Zn  Zn117  1  0.37643254  0.87560994  0.00401022  1
  Zn  Zn118  1  0.37710702  0.12493927  0.75026216  1
  Zn  Zn119  1  0.87576164  0.00063629  0.37711871  1
  Zn  Zn120  1  -0.00074242  0.62467973  0.62377123  1
  Zn  Zn121  1  0.87471545  0.62540982  0.25120866  1
  Zn  Zn122  1  0.75018543  0.50003851  0.74952496  1
  Zn  Zn123  1  0.49968190  0.24973774  0.24981280  1
  Zn  Zn124  1  0.00208432  0.87596164  0.87523782  1
  Zn  Zn125  1  0.75228845  0.12452270  0.37732373  1
  Zn  Zn126  1  0.49818423  0.37652556  0.37366485  1
  Zn  Zn127  1  0.75021681  0.87476302  0.62538886  1
  Zn  Zn128  1  0.18770734  0.18861265  0.18780952  1
  Zn  Zn129  1  0.18786611  0.18649513  0.68895647  1
  Zn  Zn130  1  0.18858803  0.68774786  0.18736160  1
  Zn  Zn131  1  0.18623314  0.68619297  0.68589003  1
  Zn  Zn132  1  0.68863460  0.18676376  0.18683525  1
  Zn  Zn133  1  0.68773861  0.18731600  0.68720950  1
  Zn  Zn134  1  0.68757032  0.68716272  0.18635060  1
  Zn  Zn135  1  0.68844129  0.68810521  0.68722934  1
  Zn  Zn136  1  0.31171662  0.31228408  0.31110372  1
  Zn  Zn137  1  0.31105230  0.31230565  0.81178398  1
  Zn  Zn138  1  0.31418529  0.81190987  0.31297634  1
  Zn  Zn139  1  0.31352866  0.81387450  0.81371459  1
  Zn  Zn140  1  0.80967102  0.31265726  0.31163289  1
  Zn  Zn141  1  0.81174089  0.31224501  0.81187553  1
  Zn  Zn142  1  0.81331315  0.81231935  0.31443314  1
  Zn  Zn143  1  0.81221845  0.81178026  0.81310523  1
  Zn  Zn144  1  0.18820564  0.43830493  0.43565183  1
  Zn  Zn145  1  0.18521775  0.43759912  0.93781802  1
  Zn  Zn146  1  0.18601067  0.93913901  0.43844968  1
  Zn  Zn147  1  0.18868721  0.93623581  0.93832969  1
  Zn  Zn148  1  0.68582343  0.43789264  0.43767698  1
  Zn  Zn149  1  0.68929327  0.43669691  0.93654572  1
  Zn  Zn150  1  0.68837562  0.93690494  0.43739449  1
  Zn  Zn151  1  0.68838626  0.93590203  0.93643968  1
  Zn  Zn152  1  0.31437528  0.06454663  0.06234367  1
  Zn  Zn153  1  0.31225720  0.06266021  0.56103875  1
  Zn  Zn154  1  0.31167759  0.56361467  0.06272443  1
  Zn  Zn155  1  0.30982703  0.56148756  0.56306157  1
  Zn  Zn156  1  0.81341351  0.06228142  0.06472520  1
  Zn  Zn157  1  0.81238916  0.06239477  0.56444310  1
  Zn  Zn158  1  0.81302585  0.56179186  0.06137322  1
  Zn  Zn159  1  0.81139454  0.56290286  0.56310528  1
  Zn  Zn160  1  0.43797405  0.43896504  0.18689242  1
  Zn  Zn161  1  0.43709115  0.43502073  0.68665568  1
  Zn  Zn162  1  0.43592030  0.93938867  0.18636471  1
  Zn  Zn163  1  0.43844437  0.93811917  0.68796523  1
  Zn  Zn164  1  0.93521242  0.43704592  0.18647733  1
  Zn  Zn165  1  0.93684064  0.43828245  0.68701895  1
  Zn  Zn166  1  0.93982605  0.93668695  0.18835193  1
  Zn  Zn167  1  0.93668867  0.93633860  0.68742240  1
  Zn  Zn168  1  0.06324508  0.06215738  0.31421469  1
  Zn  Zn169  1  0.06299978  0.06160269  0.81493328  1
  Zn  Zn170  1  0.06243053  0.56233012  0.31104553  1
  Zn  Zn171  1  0.06169919  0.56442238  0.81207589  1
  Zn  Zn172  1  0.56419190  0.06334239  0.31254591  1
  Zn  Zn173  1  0.56111391  0.06319819  0.81053975  1
  Zn  Zn174  1  0.56033552  0.56159477  0.31376808  1
  Zn  Zn175  1  0.56319546  0.56180147  0.81236638  1
  Zn  Zn176  1  0.43861656  0.18818517  0.43946933  1
  Zn  Zn177  1  0.43724507  0.18690220  0.93786350  1
  Zn  Zn178  1  0.43769769  0.68877489  0.43522743  1
  Zn  Zn179  1  0.43719314  0.68783126  0.93653693  1
  Zn  Zn180  1  0.93582827  0.18665279  0.43834239  1
  Zn  Zn181  1  0.93757212  0.18528809  0.93856346  1
  Zn  Zn182  1  0.93724709  0.68783132  0.43706863  1
  Zn  Zn183  1  0.93905606  0.68747509  0.93670095  1
  Zn  Zn184  1  0.06104361  0.31257803  0.06132306  1
  Zn  Zn185  1  0.06066718  0.31251510  0.56304523  1
  Zn  Zn186  1  0.06661277  0.81368569  0.06363495  1
  Zn  Zn187  1  0.06176525  0.81186319  0.56338929  1
  Zn  Zn188  1  0.56372316  0.31224612  0.06141258  1
  Zn  Zn189  1  0.55963484  0.31242974  0.56278464  1
  Zn  Zn190  1  0.56192532  0.81136330  0.06195428  1
  Zn  Zn191  1  0.56439843  0.81305039  0.56339460  1
  O  O192  1  0.11862676  0.11891762  0.12549461  1
  O  O193  1  0.11794158  0.11818411  0.62515602  1
  O  O194  1  0.11551266  0.61966757  0.12410669  1
  O  O195  1  0.12328194  0.61793554  0.61655176  1
  O  O196  1  0.62048701  0.11973058  0.11867059  1
  O  O197  1  0.62407988  0.11865285  0.61782610  1
  O  O198  1  0.61959711  0.61878400  0.11890440  1
  O  O199  1  0.61818862  0.61959431  0.62026689  1
  O  O200  1  0.37583868  0.37457792  0.38693252  1
  O  O201  1  0.37946274  0.38017478  0.88025371  1
  O  O202  1  0.38525433  0.87706391  0.38040888  1
  O  O203  1  0.38273900  0.88264760  0.87639849  1
  O  O204  1  0.87869491  0.38038902  0.37950766  1
  O  O205  1  0.88147032  0.38162494  0.87494936  1
  O  O206  1  0.88314904  0.87553869  0.38218174  1
  O  O207  1  0.87773952  0.87449876  0.88977739  1
  O  O208  1  0.24925816  0.00980067  0.36843411  1
  O  O209  1  0.25502122  0.00475853  0.87048400  1
  O  O210  1  0.25268614  0.50865094  0.37149618  1
  O  O211  1  0.25476108  0.50506143  0.86980925  1
  O  O212  1  0.75117238  0.00086626  0.36186617  1
  O  O213  1  0.75200158  0.00649511  0.86930385  1
  O  O214  1  0.75385561  0.50528134  0.37034924  1
  O  O215  1  0.75720020  0.50676653  0.87340130  1
  O  O216  1  0.24234577  0.49314541  0.12457783  1
  O  O217  1  0.24199408  0.49824487  0.63218601  1
  O  O218  1  0.24574446  1.00343673  0.13707976  1
  O  O219  1  0.24499376  0.99450377  0.62951502  1
  O  O220  1  0.74317453  0.49972135  0.13084411  1
  O  O221  1  0.74139243  0.49346332  0.62529846  1
  O  O222  1  0.74449666  0.99814579  0.13568759  1
  O  O223  1  0.74324513  0.99785025  0.63303412  1
  O  O224  1  0.00385538  0.36928017  0.25503491  1
  O  O225  1  0.00463172  0.36937209  0.75555995  1
  O  O226  1  0.00855546  0.87444146  0.25738747  1
  O  O227  1  0.00742269  0.86829566  0.75136505  1
  O  O228  1  0.51299360  0.37443174  0.25143924  1
  O  O229  1  0.50584230  0.37289580  0.75670085  1
  O  O230  1  0.50894229  0.87817714  0.25782238  1
  O  O231  1  0.50556061  0.86959115  0.75498062  1
  O  O232  1  0.50010443  0.12742130  0.24181589  1
  O  O233  1  0.49489801  0.12912111  0.74555794  1
  O  O234  1  0.49247530  0.62611982  0.24434913  1
  O  O235  1  0.49376462  0.62957764  0.74440627  1
  O  O236  1  0.99520661  0.13024313  0.24593531  1
  O  O237  1  0.99490343  0.12916347  0.74648628  1
  O  O238  1  0.99751642  0.62686934  0.23727122  1
  O  O239  1  0.99312795  0.63246080  0.74782427  1
  O  O240  1  0.36920385  0.25721327  0.00485456  1
  O  O241  1  0.36932877  0.25780230  0.50624805  1
  O  O242  1  0.36373141  0.75038674  -0.00045702  1
  O  O243  1  0.36977004  0.75583363  0.50525741  1
  O  O244  1  0.86871012  0.24888911  0.00664002  1
  O  O245  1  0.86782434  0.25787448  0.50063928  1
  O  O246  1  0.87219501  0.75650471  0.00842777  1
  O  O247  1  0.86969027  0.75422643  0.50528263  1
  O  O248  1  0.12993820  0.25025124  0.49273215  1
  O  O249  1  0.13137895  0.24947687  0.99354312  1
  O  O250  1  0.13123566  0.74463671  0.49491766  1
  O  O251  1  0.13494828  0.74915901  0.99353296  1
  O  O252  1  0.62907589  0.24674765  0.49277875  1
  O  O253  1  0.63094403  0.24354642  0.99380926  1
  O  O254  1  0.63114490  0.74318468  0.49934723  1
  O  O255  1  0.63286117  0.74259474  0.99934264  1
  O  O256  1  0.49465858  0.24415388  0.12383746  1
  O  O257  1  0.48696822  0.24855285  0.62510399  1
  O  O258  1  0.49781609  0.74056640  0.12627152  1
  O  O259  1  0.49373871  0.74471364  0.62991235  1
  O  O260  1  0.99504672  0.24443650  0.13094339  1
  O  O261  1  0.99852503  0.24346052  0.63267076  1
  O  O262  1  0.99353096  0.74192188  0.12473714  1
  O  O263  1  0.99360414  0.74746709  0.63141211  1
  O  O264  1  0.00364230  0.25579268  0.36926677  1
  O  O265  1  0.00509750  0.25430471  0.87025633  1
  O  O266  1  0.00772298  0.75609465  0.37373506  1
  O  O267  1  0.00789293  0.75165770  0.86890157  1
  O  O268  1  0.51325315  0.25261628  0.37405900  1
  O  O269  1  0.50664620  0.25688243  0.87567907  1
  O  O270  1  0.50303728  0.76412469  0.37306657  1
  O  O271  1  0.50077634  0.75600863  0.86751347  1
  O  O272  1  0.24692736  0.13030990  0.48977156  1
  O  O273  1  0.24824326  0.13264146  0.99405203  1
  O  O274  1  0.24473944  0.63065530  0.49429843  1
  O  O275  1  0.24888061  0.63328930  0.99270654  1
  O  O276  1  0.74403915  0.13189932  0.49880044  1
  O  O277  1  0.74477749  0.12828073  0.99529685  1
  O  O278  1  0.74340778  0.62945136  0.49449947  1
  O  O279  1  0.74530099  0.62933603  0.99444811  1
  O  O280  1  0.25549928  0.37028506  0.00453674  1
  O  O281  1  0.25824603  0.36970897  0.50028246  1
  O  O282  1  0.25317568  0.86387459  0.00107377  1
  O  O283  1  0.25558638  0.87004503  0.50461418  1
  O  O284  1  0.75193190  0.36538919  0.00135911  1
  O  O285  1  0.75363575  0.37062841  0.50504333  1
  O  O286  1  0.75961124  0.86952205  0.00328356  1
  O  O287  1  0.75653589  0.86806212  0.50031101  1
  O  O288  1  0.12471062  0.49241719  0.24218172  1
  O  O289  1  0.12851324  0.49522629  0.74488995  1
  O  O290  1  0.13424444  0.99592953  0.24686661  1
  O  O291  1  0.13098717  0.99380710  0.74501465  1
  O  O292  1  0.62897723  0.49273720  0.24530582  1
  O  O293  1  0.62530076  0.49295190  0.74286210  1
  O  O294  1  0.63289000  0.99270026  0.24519161  1
  O  O295  1  0.63040947  0.99478534  0.74486815  1
  O  O296  1  0.36406650  0.00476378  0.25394678  1
  O  O297  1  0.36765205  0.00002189  0.75616933  1
  O  O298  1  0.37372660  0.51142121  0.25145608  1
  O  O299  1  0.36918016  0.50471122  0.75427240  1
  O  O300  1  0.86640443  0.00370593  0.24971628  1
  O  O301  1  0.86884155  0.00505982  0.75250402  1
  O  O302  1  0.86704341  0.50073275  0.25622976  1
  O  O303  1  0.87423646  0.50747690  0.75630811  1
  O  O304  1  0.11811549  0.37030754  0.36905738  1
  O  O305  1  0.11817666  0.36970410  0.86911034  1
  O  O306  1  0.12079988  0.86964218  0.37182906  1
  O  O307  1  0.12585265  0.86797090  0.86693437  1
  O  O308  1  0.62389569  0.36717164  0.36690217  1
  O  O309  1  0.61973976  0.36981604  0.86976184  1
  O  O310  1  0.61738592  0.87536726  0.36583097  1
  O  O311  1  0.61793197  0.87302598  0.86825339  1
  O  O312  1  0.38250044  0.13324277  0.12577083  1
  O  O313  1  0.37469716  0.13668939  0.62377927  1
  O  O314  1  0.38090484  0.62476801  0.13375090  1
  O  O315  1  0.37934340  0.63047259  0.62963591  1
  O  O316  1  0.88196955  0.12989657  0.13213018  1
  O  O317  1  0.88179831  0.12676612  0.63322817  1
  O  O318  1  0.88365322  0.63374130  0.12480068  1
  O  O319  1  0.87623708  0.63123839  0.63099689  1
  O  O320  1  0.25506974  0.25631784  0.11961303  1
  O  O321  1  0.25680945  0.25115942  0.61816322  1
  O  O322  1  0.25077241  0.75029059  0.11301679  1
  O  O323  1  0.25546336  0.75537136  0.61917676  1
  O  O324  1  0.75618684  0.24935526  0.11794262  1
  O  O325  1  0.75043500  0.25780483  0.61788505  1
  O  O326  1  0.76131261  0.74936843  0.11885695  1
  O  O327  1  0.75690718  0.75123734  0.61756687  1
  O  O328  1  0.24375077  0.24324382  0.37867035  1
  O  O329  1  0.24462890  0.24562115  0.88042996  1
  O  O330  1  0.24516779  0.74487497  0.38157163  1
  O  O331  1  0.24600210  0.74461490  0.88074985  1
  O  O332  1  0.73831721  0.25020183  0.38131418  1
  O  O333  1  0.74416473  0.24296775  0.88000968  1
  O  O334  1  0.74843075  0.74281801  0.38123791  1
  O  O335  1  0.74962739  0.74208288  0.88268513  1
  O  O336  1  0.00170997  0.11676146  0.00826579  1
  O  O337  1  0.00044758  0.11880882  0.50736345  1
  O  O338  1  0.00156655  0.62011125  0.01084153  1
  O  O339  1  0.00675837  0.61756873  0.49903503  1
  O  O340  1  0.50735076  0.11902687  0.00470574  1
  O  O341  1  0.50745418  0.11770284  0.50085000  1
  O  O342  1  0.50499377  0.61839920  0.00329010  1
  O  O343  1  0.50349468  0.62129892  0.50608069  1
  O  O344  1  0.48905053  0.38117340  0.49978892  1
  O  O345  1  0.49490261  0.38114306  0.99411038  1
  O  O346  1  0.49696625  0.87988759  0.49239274  1
  O  O347  1  0.50080147  0.88202964  0.99332805  1
  O  O348  1  0.99341160  0.38014091  0.49299854  1
  O  O349  1  0.99771756  0.38145399  0.99234696  1
  O  O350  1  0.99528228  0.87998342  0.49595023  1
  O  O351  1  0.99227386  0.87995432  1.00164436  1
  O  O352  1  0.49588580  0.49703192  0.38488439  1
  O  O353  1  0.49367066  0.49422554  0.87977439  1
  O  O354  1  0.50072485  0.99043175  0.38077634  1
  O  O355  1  0.49538313  0.99521060  0.88024108  1
  O  O356  1  0.99373821  0.49409273  0.37866080  1
  O  O357  1  0.99538824  0.49560387  0.87973232  1
  O  O358  1  1.00001225  0.99320462  0.38284351  1
  O  O359  1  0.99850695  0.99619928  0.88544299  1
  O  O360  1  0.00693718  0.00496796  0.12175896  1
  O  O361  1  0.00564506  0.00499366  0.62125960  1
  O  O362  1  0.00320619  0.50733892  0.11997036  1
  O  O363  1  0.00576225  0.50111072  0.61644834  1
  O  O364  1  0.50597896  0.00661689  0.11932516  1
  O  O365  1  0.50755349  -0.00040878  0.61744162  1
  O  O366  1  0.50624452  0.50551236  0.11766173  1
  O  O367  1  0.50369474  0.50594526  0.61984649  1
  O  O368  1  0.24243382  0.37610699  0.24280108  1
  O  O369  1  0.24168716  0.38233841  0.74993971  1
  O  O370  1  0.24564765  0.88733931  0.25427611  1
  O  O371  1  0.24545324  0.87989971  0.74329368  1
  O  O372  1  0.73821110  0.38172543  0.24882231  1
  O  O373  1  0.74255678  0.37658207  0.74315113  1
  O  O374  1  0.74199008  0.88226936  0.24909420  1
  O  O375  1  0.74379579  0.88103472  0.75033064  1
  O  O376  1  0.24962767  0.11837208  0.25981311  1
  O  O377  1  0.25185887  0.11749562  0.75753190  1
  O  O378  1  0.25875275  0.62363556  0.25476403  1
  O  O379  1  0.25563458  0.61987372  0.75456379  1
  O  O380  1  0.75520125  0.11467599  0.25070828  1
  O  O381  1  0.75497321  0.11943185  0.75575358  1
  O  O382  1  0.74975772  0.61879886  0.25671943  1
  O  O383  1  0.75677057  0.62406304  0.75651421  1
  O  O384  1  0.36292160  0.12626741  0.37428754  1
  O  O385  1  0.36787976  0.11856274  0.87455417  1
  O  O386  1  0.36965597  0.62493872  0.36648065  1
  O  O387  1  0.36999191  0.61812961  0.86802105  1
  O  O388  1  0.87207532  0.12186917  0.36660556  1
  O  O389  1  0.86828625  0.12227615  0.86930252  1
  O  O390  1  0.86808393  0.61827441  0.37345463  1
  O  O391  1  0.87053466  0.62013243  0.86995218  1
  O  O392  1  0.12900074  0.37930267  0.12959547  1
  O  O393  1  0.12523429  0.38107489  0.63171833  1
  O  O394  1  0.13011097  0.88237833  0.13388518  1
  O  O395  1  0.13167316  0.87981499  0.63020964  1
  O  O396  1  0.62616592  0.38061659  0.13374887  1
  O  O397  1  0.62837302  0.37992417  0.62921622  1
  O  O398  1  0.62528084  0.88117432  0.13445621  1
  O  O399  1  0.62714577  0.88189115  0.63221397  1
  O  O400  1  0.11774967  0.25625641  0.25511137  1
  O  O401  1  0.11925662  0.25549441  0.75628845  1
  O  O402  1  0.12650419  0.75776680  0.25718039  1
  O  O403  1  0.12131827  0.75480150  0.75377378  1
  O  O404  1  0.62676761  0.25807883  0.25775689  1
  O  O405  1  0.62387407  0.25632701  0.75669475  1
  O  O406  1  0.62425816  0.76277198  0.25005926  1
  O  O407  1  0.61792053  0.75583869  0.75043791  1
  O  O408  1  0.37888536  0.25015155  0.24166504  1
  O  O409  1  0.37394700  0.25032052  0.73795533  1
  O  O410  1  0.37677910  0.73768799  0.24869960  1
  O  O411  1  0.37984736  0.74445315  0.74371995  1
  O  O412  1  0.87906851  0.24451009  0.24524693  1
  O  O413  1  0.88154307  0.24257312  0.74913834  1
  O  O414  1  0.87725912  0.74978576  0.23768211  1
  O  O415  1  0.88059137  0.74561649  0.74519454  1
  O  O416  1  0.37873446  0.49064738  0.50179467  1
  O  O417  1  0.38001863  0.49492835  0.99373016  1
  O  O418  1  0.38186396  0.99304136  0.49824669  1
  O  O419  1  0.38262260  0.99966414  0.99350713  1
  O  O420  1  0.87907230  0.49474459  0.49342105  1
  O  O421  1  0.88205925  0.49892782  0.99269979  1
  O  O422  1  0.88103357  0.99269551  0.50006330  1
  O  O423  1  0.88157189  0.98939163  1.00364258  1
  O  O424  1  0.12020872  -0.00007787  0.00857200  1
  O  O425  1  0.11793864  0.00138524  0.50850911  1
  O  O426  1  0.11745257  0.50228398  0.00642460  1
  O  O427  1  0.11895813  0.50407626  0.50348277  1
  O  O428  1  0.62101796  0.00478625  0.00567832  1
  O  O429  1  0.62187424  0.00489423  0.50454435  1
  O  O430  1  0.61975504  0.50447814  0.00472271  1
  O  O431  1  0.61806110  0.50553106  0.50629647  1
  O  O432  1  0.37009609  0.37156653  0.11860320  1
  O  O433  1  0.37152181  0.36671859  0.61517750  1
  O  O434  1  0.37104837  0.87111613  0.12286685  1
  O  O435  1  0.36989782  0.86932502  0.61924158  1
  O  O436  1  0.87204000  0.36586633  0.12261176  1
  O  O437  1  0.86773710  0.37472695  0.61786059  1
  O  O438  1  0.87638689  0.86510094  0.11680466  1
  O  O439  1  0.87323577  0.86705254  0.61817872  1
  O  O440  1  0.13408246  0.13234115  0.37631725  1
  O  O441  1  0.13203635  0.13187987  0.87740239  1
  O  O442  1  0.13030503  0.63029954  0.37906225  1
  O  O443  1  0.13222044  0.63190461  0.87549794  1
  O  O444  1  0.62800795  0.13479505  0.38075124  1
  O  O445  1  0.63055521  0.12953649  0.88047312  1
  O  O446  1  0.62992044  0.62613668  0.38212824  1
  O  O447  1  0.63112602  0.62545719  0.88123544  1
