# generated using pymatgen
data_V3Zn3O8
_symmetry_space_group_name_H-M   'P 1'
_cell_length_a   17.08812185
_cell_length_b   17.08873248
_cell_length_c   17.08784044
_cell_angle_alpha   90.00212835
_cell_angle_beta   90.00207900
_cell_angle_gamma   90.00289570
_symmetry_Int_Tables_number   1
_chemical_formula_structural   V3Zn3O8
_chemical_formula_sum   'V96 Zn96 O256'
_cell_volume   4989.89448363
_cell_formula_units_Z   32
loop_
 _symmetry_equiv_pos_site_id
 _symmetry_equiv_pos_as_xyz
  1  'x, y, z'
loop_
 _atom_site_type_symbol
 _atom_site_label
 _atom_site_symmetry_multiplicity
 _atom_site_fract_x
 _atom_site_fract_y
 _atom_site_fract_z
 _atom_site_occupancy
  V  V0  1  0.12585632  0.62416260  0.49903554  1
  V  V1  1  0.62535756  0.87582769  0.25112973  1
  V  V2  1  -0.00044012  0.37496298  0.87471165  1
  V  V3  1  0.49977552  0.49887087  0.50049134  1
  V  V4  1  0.75131320  0.87559486  0.12407185  1
  V  V5  1  0.37403187  0.37517358  0.00142847  1
  V  V6  1  0.49940614  0.37436211  0.87509310  1
  V  V7  1  0.37531768  0.12449288  0.24975369  1
  V  V8  1  0.37699337  0.87589880  0.49952581  1
  V  V9  1  0.37479589  0.74909109  0.62500739  1
  V  V10  1  0.62552422  0.62545815  0.49998136  1
  V  V11  1  0.62492532  0.12567322  -0.00069278  1
  V  V12  1  0.87396051  0.25118356  0.12403233  1
  V  V13  1  -0.00027264  0.87648157  0.37534027  1
  V  V14  1  0.25110295  0.00008328  0.25077613  1
  V  V15  1  0.37399472  0.37349339  0.50051823  1
  V  V16  1  0.12536038  0.74961623  0.37562585  1
  V  V17  1  0.74911312  0.00066870  0.74973383  1
  V  V18  1  0.87541423  0.74959258  0.62460825  1
  V  V19  1  0.25056878  0.37504453  0.12399007  1
  V  V20  1  0.75017337  0.62604095  0.87500328  1
  V  V21  1  -0.00018648  0.25005022  0.74935384  1
  V  V22  1  0.37454237  -0.00029350  0.87520555  1
  V  V23  1  0.74982713  0.00177853  0.24973295  1
  V  V24  1  0.87679915  0.12520578  0.74859975  1
  V  V25  1  0.50003485  0.37492041  0.37530540  1
  V  V26  1  0.00054333  0.62336925  0.62503595  1
  V  V27  1  0.49986368  0.74937703  0.75067799  1
  V  V28  1  0.12499583  0.12611636  -0.00054879  1
  V  V29  1  0.50027559  0.50090290  0.00009009  1
  V  V30  1  0.62525664  0.37671686  0.24954867  1
  V  V31  1  0.12536887  0.87509593  0.25062183  1
  V  V32  1  0.12441511  0.50086906  0.12511685  1
  V  V33  1  0.12417384  -0.00010938  0.62358115  1
  V  V34  1  0.12544399  0.74959094  0.87579351  1
  V  V35  1  -0.00035484  -0.00064308  -0.00107800  1
  V  V36  1  0.37380289  0.62303649  0.75012452  1
  V  V37  1  0.87508688  0.12699411  0.24899964  1
  V  V38  1  0.50051403  -0.00031911  0.00002793  1
  V  V39  1  0.87486143  0.50026063  0.87608781  1
  V  V40  1  0.49979434  0.75023014  0.25042353  1
  V  V41  1  -0.00061536  0.25017087  0.24832966  1
  V  V42  1  0.12527036  0.37518570  0.24888875  1
  V  V43  1  0.87607055  0.49977630  0.37505588  1
  V  V44  1  0.00097923  0.87441380  0.87473462  1
  V  V45  1  0.49798876  0.24912288  0.74998873  1
  V  V46  1  0.49921281  0.12329635  0.62448886  1
  V  V47  1  0.24951069  0.49823494  0.74976472  1
  V  V48  1  0.49933382  0.12537680  0.12569385  1
  V  V49  1  0.62439466  0.24983081  0.87583871  1
  V  V50  1  0.25010068  0.87465075  0.12554101  1
  V  V51  1  0.12487001  0.62513582  0.00086955  1
  V  V52  1  0.75029468  0.37512602  0.62512070  1
  V  V53  1  0.62537721  0.49914801  0.62570901  1
  V  V54  1  0.62536540  0.25065221  0.37513334  1
  V  V55  1  0.75004508  0.62582609  0.37545732  1
  V  V56  1  0.87574507  0.00078807  0.37481318  1
  V  V57  1  0.12586175  0.87328825  0.75012505  1
  V  V58  1  0.37627698  0.74954459  0.12627315  1
  V  V59  1  -0.00073035  0.37573413  0.37447652  1
  V  V60  1  0.87523036  0.25034426  0.62489648  1
  V  V61  1  0.62445242  0.12520751  0.50099391  1
  V  V62  1  0.62480896  0.75031417  0.87420600  1
  V  V63  1  0.74836228  0.50001134  0.24915994  1
  V  V64  1  0.62554459  0.00048520  0.12503228  1
  V  V65  1  0.74915836  0.49948476  0.74945270  1
  V  V66  1  0.25004973  0.74921464  0.00048428  1
  V  V67  1  0.00003939  0.62519162  0.12556695  1
  V  V68  1  0.74943381  0.25044860  -0.00110460  1
  V  V69  1  0.49954721  0.24977465  0.24964310  1
  V  V70  1  0.87423341  0.37514649  -0.00050324  1
  V  V71  1  0.12550936  0.24939518  0.37382793  1
  V  V72  1  0.37524876  0.87417763  0.00025421  1
  V  V73  1  0.62452983  0.62529160  0.00146946  1
  V  V74  1  -0.00020892  0.75075419  0.25023903  1
  V  V75  1  0.37419937  0.49974905  0.87448998  1
  V  V76  1  0.25113184  0.50097207  0.25163329  1
  V  V77  1  0.87536851  0.62517790  0.74985346  1
  V  V78  1  0.49975235  0.62343367  0.62558271  1
  V  V79  1  0.50039070  0.87434616  0.87439654  1
  V  V80  1  0.75012392  0.12668574  0.37501128  1
  V  V81  1  0.25063703  0.12428240  0.87442795  1
  V  V82  1  0.12458492  0.37459329  0.75017827  1
  V  V83  1  0.87644603  -0.00048592  0.87418331  1
  V  V84  1  0.12452972  -0.00025527  0.12452334  1
  V  V85  1  0.87614775  0.87576612  0.49932690  1
  V  V86  1  0.75018504  0.87513431  0.62472950  1
  V  V87  1  0.75135798  0.25145459  0.50065269  1
  V  V88  1  0.87454074  0.62570359  0.25035904  1
  V  V89  1  0.24930600  0.24909247  0.49899274  1
  V  V90  1  0.25013407  0.12462240  0.37410011  1
  V  V91  1  0.37430418  0.50091725  0.37450349  1
  V  V92  1  0.24900350  0.37299459  0.62503080  1
  V  V93  1  0.87389497  0.75170807  0.12471110  1
  V  V94  1  0.62556298  0.75089253  0.37541920  1
  V  V95  1  0.25001508  0.87305786  0.62567838  1
  Zn  Zn96  1  0.49900279  0.62364581  0.12617579  1
  Zn  Zn97  1  0.37448299  0.62549636  0.25117310  1
  Zn  Zn98  1  0.62472444  0.37473506  0.75038910  1
  Zn  Zn99  1  0.37278608  0.24740893  0.62496237  1
  Zn  Zn100  1  0.12433901  0.49878254  0.62363882  1
  Zn  Zn101  1  0.25156886  0.74825895  0.49867749  1
  Zn  Zn102  1  0.00061987  0.74898016  0.75164002  1
  Zn  Zn103  1  0.62380404  0.87535792  0.74893811  1
  Zn  Zn104  1  0.37360295  0.24994607  0.12405221  1
  Zn  Zn105  1  0.75035502  0.12531316  0.87421963  1
  Zn  Zn106  1  0.00047515  0.00280720  0.49948673  1
  Zn  Zn107  1  0.87389943  0.87461242  -0.00128437  1
  Zn  Zn108  1  0.87702303  0.37628901  0.50009836  1
  Zn  Zn109  1  0.50136647  0.87820444  0.37755501  1
  Zn  Zn110  1  0.37317377  0.12233373  0.74830839  1
  Zn  Zn111  1  0.00152472  0.12552845  0.62175837  1
  Zn  Zn112  1  0.12563497  0.25064616  0.87504462  1
  Zn  Zn113  1  -0.00056574  0.49767521  0.49929241  1
  Zn  Zn114  1  0.25074261  0.25127065  0.00058802  1
  Zn  Zn115  1  0.25226680  0.62633637  0.37491311  1
  Zn  Zn116  1  -0.00060853  0.49977502  0.00066688  1
  Zn  Zn117  1  0.50164423  0.00014067  0.49853152  1
  Zn  Zn118  1  0.75136654  0.75239531  -0.00125118  1
  Zn  Zn119  1  0.24881863  0.62398991  0.87507389  1
  Zn  Zn120  1  0.25115672  -0.00065019  0.74977493  1
  Zn  Zn121  1  0.12422338  0.12360832  0.49914875  1
  Zn  Zn122  1  -0.00083389  0.12507169  0.12343447  1
  Zn  Zn123  1  0.62363445  -0.00172169  0.62378762  1
  Zn  Zn124  1  0.74985061  0.75020786  0.49928615  1
  Zn  Zn125  1  0.62441774  0.50006422  0.12545113  1
  Zn  Zn126  1  0.74789237  0.37745865  0.12360925  1
  Zn  Zn127  1  0.37723137  -0.00086815  0.37566194  1
  Zn  Zn128  1  0.18854721  0.18823455  0.18591777  1
  Zn  Zn129  1  0.18593511  0.18733879  0.68785839  1
  Zn  Zn130  1  0.18878729  0.68661287  0.18881048  1
  Zn  Zn131  1  0.18799862  0.68725106  0.68773838  1
  Zn  Zn132  1  0.68747572  0.18983346  0.18609076  1
  Zn  Zn133  1  0.68628745  0.18727698  0.68771628  1
  Zn  Zn134  1  0.68800779  0.68860830  0.18708146  1
  Zn  Zn135  1  0.68758279  0.68776577  0.68760167  1
  Zn  Zn136  1  0.31313550  0.31249022  0.31153429  1
  Zn  Zn137  1  0.31203954  0.31081043  0.81414454  1
  Zn  Zn138  1  0.31204527  0.81177945  0.31500670  1
  Zn  Zn139  1  0.31156545  0.81148965  0.81259352  1
  Zn  Zn140  1  0.81252712  0.31448517  0.31209019  1
  Zn  Zn141  1  0.81210926  0.31270267  0.81217970  1
  Zn  Zn142  1  0.81175765  0.81319006  0.31209668  1
  Zn  Zn143  1  0.81405302  0.81227336  0.81156851  1
  Zn  Zn144  1  0.18691754  0.43761533  0.43725199  1
  Zn  Zn145  1  0.18672091  0.43847467  0.93745768  1
  Zn  Zn146  1  0.19059742  0.93668246  0.43908782  1
  Zn  Zn147  1  0.18735073  0.93772790  0.93758840  1
  Zn  Zn148  1  0.68895839  0.43804360  0.43750549  1
  Zn  Zn149  1  0.68681842  0.43717248  0.93642563  1
  Zn  Zn150  1  0.68769536  0.93930745  0.43873627  1
  Zn  Zn151  1  0.68808573  0.93700384  0.93665064  1
  Zn  Zn152  1  0.31239593  0.06208809  0.06283103  1
  Zn  Zn153  1  0.31122131  0.06118396  0.56217565  1
  Zn  Zn154  1  0.31302668  0.56345342  0.06458855  1
  Zn  Zn155  1  0.31112996  0.55999968  0.56284526  1
  Zn  Zn156  1  0.81280116  0.06400702  0.06095644  1
  Zn  Zn157  1  0.81379414  0.06360209  0.56201436  1
  Zn  Zn158  1  0.81091522  0.56276248  0.06305153  1
  Zn  Zn159  1  0.81284690  0.56147307  0.56065845  1
  Zn  Zn160  1  0.43795600  0.43911665  0.18617157  1
  Zn  Zn161  1  0.43564507  0.43489265  0.68709415  1
  Zn  Zn162  1  0.43773885  0.93714316  0.18810937  1
  Zn  Zn163  1  0.43561585  0.93796364  0.68853792  1
  Zn  Zn164  1  0.93608968  0.43759431  0.18695857  1
  Zn  Zn165  1  0.93666388  0.43740995  0.68822286  1
  Zn  Zn166  1  0.93781866  0.93869019  0.18687882  1
  Zn  Zn167  1  0.93959735  0.93684882  0.68839698  1
  Zn  Zn168  1  0.06208742  0.06362065  0.31154156  1
  Zn  Zn169  1  0.06318898  0.06138973  0.80975515  1
  Zn  Zn170  1  0.06258637  0.56221254  0.31255065  1
  Zn  Zn171  1  0.06285369  0.56123198  0.81307478  1
  Zn  Zn172  1  0.56102426  0.06202427  0.31494230  1
  Zn  Zn173  1  0.56287407  0.06323882  0.81244952  1
  Zn  Zn174  1  0.56254096  0.56337811  0.31380865  1
  Zn  Zn175  1  0.56255065  0.56236475  0.81338668  1
  Zn  Zn176  1  0.43580332  0.18718337  0.43695002  1
  Zn  Zn177  1  0.43573441  0.18832409  0.93891227  1
  Zn  Zn178  1  0.43852917  0.68815869  0.43697794  1
  Zn  Zn179  1  0.43697827  0.68668637  0.93674582  1
  Zn  Zn180  1  0.93965922  0.18780853  0.43919631  1
  Zn  Zn181  1  0.93700795  0.18714551  0.93502287  1
  Zn  Zn182  1  0.93806872  0.68832433  0.43886093  1
  Zn  Zn183  1  0.93837959  0.68877793  0.93952846  1
  Zn  Zn184  1  0.06112594  0.31250989  0.06178077  1
  Zn  Zn185  1  0.06265812  0.31187559  0.56131556  1
  Zn  Zn186  1  0.06156458  0.81257826  0.06209569  1
  Zn  Zn187  1  0.06189100  0.81136604  0.56178660  1
  Zn  Zn188  1  0.56200023  0.31357444  0.06409748  1
  Zn  Zn189  1  0.56342285  0.31157435  0.56373014  1
  Zn  Zn190  1  0.56370567  0.81199638  0.06301854  1
  Zn  Zn191  1  0.56267874  0.81128969  0.56341844  1
  O  O192  1  0.12546946  0.11851158  0.11479997  1
  O  O193  1  0.12550433  0.11187717  0.62451976  1
  O  O194  1  0.11932887  0.62073250  0.12106762  1
  O  O195  1  0.11627479  0.62509880  0.61741958  1
  O  O196  1  0.61931160  0.11938427  0.11981991  1
  O  O197  1  0.61539791  0.12530442  0.61910168  1
  O  O198  1  0.62387643  0.62595606  0.11169693  1
  O  O199  1  0.61945238  0.61917515  0.62001010  1
  O  O200  1  0.38132148  0.38037825  0.38068361  1
  O  O201  1  0.38010815  0.38056527  0.88085866  1
  O  O202  1  0.37610778  0.87444082  0.38791809  1
  O  O203  1  0.38043605  0.87894708  0.88162794  1
  O  O204  1  0.88177936  0.38189030  0.37437219  1
  O  O205  1  0.87963977  0.38092513  0.87965433  1
  O  O206  1  0.87946071  0.88095168  0.37872688  1
  O  O207  1  0.88254774  0.88138508  0.87525662  1
  O  O208  1  0.25135107  0.00595762  0.36726415  1
  O  O209  1  0.25589715  0.00817175  0.87583380  1
  O  O210  1  0.25687031  0.49978982  0.36878101  1
  O  O211  1  0.25708200  0.50074536  0.86774185  1
  O  O212  1  0.75555871  0.00707289  0.36858078  1
  O  O213  1  0.75617592  -0.00057187  0.86415666  1
  O  O214  1  0.75541326  0.50678917  0.36924146  1
  O  O215  1  0.75500003  0.50623405  0.86893467  1
  O  O216  1  0.24387924  0.49475146  0.13159524  1
  O  O217  1  0.24853044  0.49100851  0.63213885  1
  O  O218  1  0.24420284  0.99340548  0.13000441  1
  O  O219  1  0.24120582  0.99198357  0.62715041  1
  O  O220  1  0.74649942  0.49885057  0.13425600  1
  O  O221  1  0.74494803  0.49560619  0.62998446  1
  O  O222  1  0.74460842  0.99671409  0.13063486  1
  O  O223  1  0.75176857  0.99144506  0.63359561  1
  O  O224  1  0.00585527  0.36945733  0.25410773  1
  O  O225  1  0.00447725  0.37023191  0.75507940  1
  O  O226  1  0.00594292  0.87028781  0.25516280  1
  O  O227  1  0.00765496  0.87176172  0.75703133  1
  O  O228  1  0.50488613  0.37011640  0.25665031  1
  O  O229  1  0.50040456  0.36509274  0.75534951  1
  O  O230  1  0.50684761  0.86553026  0.25026573  1
  O  O231  1  0.50073133  0.86775421  0.75614174  1
  O  O232  1  0.49559422  0.13008006  0.24484912  1
  O  O233  1  0.49960747  0.13285458  0.74248598  1
  O  O234  1  0.50106027  0.63931317  0.24923107  1
  O  O235  1  0.49364111  0.62870978  0.74461273  1
  O  O236  1  0.99298291  0.13239766  0.24766249  1
  O  O237  1  0.99431709  0.13181986  0.74765135  1
  O  O238  1  0.99457227  0.63173612  0.24527261  1
  O  O239  1  0.99464052  0.62524602  0.74074854  1
  O  O240  1  0.37340141  0.25975149  0.00316603  1
  O  O241  1  0.36725351  0.25722668  0.49952228  1
  O  O242  1  0.37057314  0.75560486  0.00513613  1
  O  O243  1  0.37568480  0.75747839  0.50747581  1
  O  O244  1  0.86937292  0.25457585  0.00371694  1
  O  O245  1  0.86781861  0.25166415  0.50633154  1
  O  O246  1  0.87243323  0.75280419  0.00917979  1
  O  O247  1  0.87238722  0.75718373  0.50640011  1
  O  O248  1  0.13238992  0.24908025  0.49107525  1
  O  O249  1  0.12531052  0.23712822  0.99815704  1
  O  O250  1  0.12505644  0.74010626  0.49416215  1
  O  O251  1  0.13104477  0.74513474  0.99637547  1
  O  O252  1  0.63112468  0.24530401  0.49405778  1
  O  O253  1  0.62876906  0.24489296  0.99508527  1
  O  O254  1  0.62613139  0.74279932  0.49400689  1
  O  O255  1  0.62516035  0.74083936  0.99295640  1
  O  O256  1  0.49939024  0.24245810  0.13240649  1
  O  O257  1  0.49938071  0.24207813  0.63391387  1
  O  O258  1  0.49526229  0.75073058  0.13479900  1
  O  O259  1  0.49515545  0.74240395  0.63144061  1
  O  O260  1  0.99262982  0.24835857  0.13113076  1
  O  O261  1  0.99315696  0.25014851  0.63205189  1
  O  O262  1  0.99495201  0.74558502  0.13184751  1
  O  O263  1  0.99433175  0.73858966  0.62650360  1
  O  O264  1  0.00537618  0.25567503  0.36734671  1
  O  O265  1  0.00040308  0.25736396  0.86699377  1
  O  O266  1  0.00456010  0.75653691  0.36857335  1
  O  O267  1  0.00765730  0.75631863  0.87487416  1
  O  O268  1  0.50612651  0.25539731  0.36982877  1
  O  O269  1  0.50403147  0.25372276  0.86824263  1
  O  O270  1  0.50688697  0.75306543  0.36597909  1
  O  O271  1  0.50418641  0.75528236  0.86953396  1
  O  O272  1  0.24873989  0.13125709  0.49212976  1
  O  O273  1  0.24063055  0.12350229  0.99267537  1
  O  O274  1  0.23781873  0.62603081  0.50010965  1
  O  O275  1  0.24310450  0.63200909  1.00005096  1
  O  O276  1  0.74513946  0.13186157  0.49436621  1
  O  O277  1  0.74232395  0.13144327  0.99729907  1
  O  O278  1  0.74305897  0.62650452  0.49363961  1
  O  O279  1  0.74007848  0.62620620  0.99316050  1
  O  O280  1  0.25582549  0.37572855  0.00617262  1
  O  O281  1  0.25429469  0.36926932  0.50475949  1
  O  O282  1  0.25530387  0.86968475  0.00626748  1
  O  O283  1  0.25995883  0.87103688  0.50744387  1
  O  O284  1  0.75611731  0.36841915  -0.00019723  1
  O  O285  1  0.75106101  0.36852589  0.50665646  1
  O  O286  1  0.75203180  0.87391722  0.00841427  1
  O  O287  1  0.75639945  0.87482677  0.51012241  1
  O  O288  1  0.13040927  0.49426265  0.24483321  1
  O  O289  1  0.13172983  0.49281258  0.74834125  1
  O  O290  1  0.13057509  0.99424072  0.24421819  1
  O  O291  1  0.12743271  0.99152775  0.74086567  1
  O  O292  1  0.63036766  0.49478292  0.25110214  1
  O  O293  1  0.63103863  0.49962829  0.74347873  1
  O  O294  1  0.63078267  0.99648073  0.24444030  1
  O  O295  1  0.63759952  0.99877792  0.74844508  1
  O  O296  1  0.36789523  0.00571113  0.24994563  1
  O  O297  1  0.37195976  0.00218249  0.76012604  1
  O  O298  1  0.36984590  0.50077920  0.25719916  1
  O  O299  1  0.37004032  0.50361879  0.75492198  1
  O  O300  1  0.86908201  0.00667537  0.25481936  1
  O  O301  1  0.86794385  0.00462858  0.75361118  1
  O  O302  1  0.86890056  0.50702729  0.25520324  1
  O  O303  1  0.86842493  0.50613980  0.75585634  1
  O  O304  1  0.12001122  0.36941770  0.36737454  1
  O  O305  1  0.11796176  0.37374769  0.86902974  1
  O  O306  1  0.12004666  0.87024015  0.36963053  1
  O  O307  1  0.12088493  0.86981895  0.87043039  1
  O  O308  1  0.61913883  0.36992152  0.37066967  1
  O  O309  1  0.61661850  0.36813484  0.87333856  1
  O  O310  1  0.62623850  0.86907128  0.36866394  1
  O  O311  1  0.61780478  0.86867213  0.87323304  1
  O  O312  1  0.38184670  0.12536810  0.13094707  1
  O  O313  1  0.38505526  0.12711999  0.62675978  1
  O  O314  1  0.37846615  0.63446159  0.12860262  1
  O  O315  1  0.38100254  0.62822928  0.62974917  1
  O  O316  1  0.87598811  0.13229763  0.13133514  1
  O  O317  1  0.87649862  0.13226761  0.63144443  1
  O  O318  1  0.87978926  0.63099156  0.13159620  1
  O  O319  1  0.88176309  0.62901727  0.62896284  1
  O  O320  1  0.25218732  0.25954630  0.12231593  1
  O  O321  1  0.25083559  0.25500133  0.61826630  1
  O  O322  1  0.25546100  0.75656690  0.12086042  1
  O  O323  1  0.25778149  0.75529345  0.62380892  1
  O  O324  1  0.75601002  0.25257616  0.11712217  1
  O  O325  1  0.75460097  0.25540629  0.62077779  1
  O  O326  1  0.75641924  0.75791620  0.12523760  1
  O  O327  1  0.75592445  0.75989940  0.62480649  1
  O  O328  1  0.24429124  0.24516556  0.37819062  1
  O  O329  1  0.24784166  0.23770187  0.87907333  1
  O  O330  1  0.24057008  0.74671700  0.37736602  1
  O  O331  1  0.24396216  0.74830611  0.88332627  1
  O  O332  1  0.74488554  0.24554038  0.37989256  1
  O  O333  1  0.74263285  0.24834110  0.88016941  1
  O  O334  1  0.74365161  0.74331564  0.37514201  1
  O  O335  1  0.74375995  0.74369838  0.87479763  1
  O  O336  1  0.01025716  0.11862749  -0.00145090  1
  O  O337  1  0.00565833  0.12109032  0.50304496  1
  O  O338  1  0.00689090  0.62375638  0.00854331  1
  O  O339  1  0.00804448  0.62421287  0.50863348  1
  O  O340  1  0.50494959  0.11896540  0.00553073  1
  O  O341  1  0.50518605  0.12782959  0.51015456  1
  O  O342  1  0.50994073  0.61998946  -0.00180521  1
  O  O343  1  0.50547363  0.61827712  0.50627509  1
  O  O344  1  0.49533937  0.37930563  0.49499420  1
  O  O345  1  0.49467181  0.38087363  0.99423137  1
  O  O346  1  0.48973074  0.87607391  0.50217691  1
  O  O347  1  0.49512762  0.88023541  0.99490048  1
  O  O348  1  0.99858371  0.37693664  0.49020884  1
  O  O349  1  0.99259969  0.37642416  0.99288571  1
  O  O350  1  0.99344763  0.87652960  0.49223384  1
  O  O351  1  0.99983781  0.88235350  0.99298571  1
  O  O352  1  0.49542302  0.49419455  0.38157048  1
  O  O353  1  0.49396922  0.49379692  0.87934664  1
  O  O354  1  0.49561300  0.99620828  0.37943823  1
  O  O355  1  0.49544248  0.99459727  0.88096280  1
  O  O356  1  0.99309442  0.49318463  0.37298454  1
  O  O357  1  0.99186179  0.49333518  0.87611334  1
  O  O358  1  0.99321411  0.99339104  0.37342933  1
  O  O359  1  0.99608085  0.99382453  0.87899579  1
  O  O360  1  0.00712266  0.00203254  0.11853977  1
  O  O361  1  0.01192099  -0.00068168  0.62359908  1
  O  O362  1  0.00638387  0.50761629  0.12572443  1
  O  O363  1  -0.00008210  0.51243198  0.62352083  1
  O  O364  1  0.50642782  0.00466532  0.11963698  1
  O  O365  1  0.50220646  0.01238416  0.62600965  1
  O  O366  1  0.50356543  0.50415176  0.11639949  1
  O  O367  1  0.50475277  0.50384758  0.62004881  1
  O  O368  1  0.24424547  0.38088012  0.24455692  1
  O  O369  1  0.24506244  0.37785592  0.74528732  1
  O  O370  1  0.24467733  0.87968880  0.24472399  1
  O  O371  1  0.24379589  0.87526358  0.74343086  1
  O  O372  1  0.74246606  0.38229001  0.25034722  1
  O  O373  1  0.74778605  0.38196490  0.74342248  1
  O  O374  1  0.74481590  0.88273962  0.24460953  1
  O  O375  1  0.75122092  0.88375627  0.74064684  1
  O  O376  1  0.25543168  0.11968649  0.25365280  1
  O  O377  1  0.25068902  0.12318898  0.76281052  1
  O  O378  1  0.25195890  0.61614855  0.25323628  1
  O  O379  1  0.25669784  0.61697855  0.75048943  1
  O  O380  1  0.75452147  0.12137648  0.25550227  1
  O  O381  1  0.75613760  0.11532115  0.74944879  1
  O  O382  1  0.75483356  0.62055587  0.25599049  1
  O  O383  1  0.75564886  0.61914958  0.75470768  1
  O  O384  1  0.36775538  0.12357351  0.36734101  1
  O  O385  1  0.36565249  0.11797419  0.87790488  1
  O  O386  1  0.37382112  0.61650776  0.37421822  1
  O  O387  1  0.37362891  0.61777710  0.86773267  1
  O  O388  1  0.86900073  0.12129112  0.36876383  1
  O  O389  1  0.87306238  0.11729817  0.86666746  1
  O  O390  1  0.87049340  0.62132364  0.36893939  1
  O  O391  1  0.87044218  0.62063795  0.87020403  1
  O  O392  1  0.12930772  0.38095828  0.12974175  1
  O  O393  1  0.13086284  0.37645629  0.63177314  1
  O  O394  1  0.13054502  0.87938727  0.13106143  1
  O  O395  1  0.12991538  0.87916092  0.62959042  1
  O  O396  1  0.62681824  0.37801841  0.13399323  1
  O  O397  1  0.63125854  0.38194086  0.62681052  1
  O  O398  1  0.63059351  0.88163861  0.13082018  1
  O  O399  1  0.63723881  0.87613267  0.62705962  1
  O  O400  1  0.11966086  0.25593122  0.25351288  1
  O  O401  1  0.11771624  0.25675133  0.75218711  1
  O  O402  1  0.11915680  0.75598317  0.25471007  1
  O  O403  1  0.12422912  0.75514015  0.75770164  1
  O  O404  1  0.61969685  0.25528869  0.25652756  1
  O  O405  1  0.61388469  0.25029689  0.75626225  1
  O  O406  1  0.61821753  0.75590441  0.25445529  1
  O  O407  1  0.61729344  0.74961262  0.75648946  1
  O  O408  1  0.38260327  0.24332505  0.24849308  1
  O  O409  1  0.38754781  0.24656075  0.75030017  1
  O  O410  1  0.38465002  0.75184507  0.24572582  1
  O  O411  1  0.38055218  0.74327906  0.74520222  1
  O  O412  1  0.87925788  0.24590556  0.24448478  1
  O  O413  1  0.87929585  0.24464260  0.74456563  1
  O  O414  1  0.88068920  0.74507804  0.24544583  1
  O  O415  1  0.87727786  0.74218026  0.74294239  1
  O  O416  1  0.38092865  0.49326869  0.49527061  1
  O  O417  1  0.38024398  0.49567207  0.99402495  1
  O  O418  1  0.37645778  0.98718101  0.50058072  1
  O  O419  1  0.38134210  0.99315273  0.99610453  1
  O  O420  1  0.87752523  0.49802971  0.49010024  1
  O  O421  1  0.87525978  0.49418269  0.99345672  1
  O  O422  1  0.87549672  0.99392355  0.49190452  1
  O  O423  1  0.88176007  1.00007684  0.99249702  1
  O  O424  1  0.12007862  0.00735279  0.00488955  1
  O  O425  1  0.12465850  -0.00135738  0.51138716  1
  O  O426  1  0.12315370  0.50693123  0.00781540  1
  O  O427  1  0.12159458  0.51109601  0.50146305  1
  O  O428  1  0.61963901  0.00537882  0.00505971  1
  O  O429  1  0.62390001  0.00997386  0.50346675  1
  O  O430  1  0.61935116  0.51045452  -0.00230491  1
  O  O431  1  0.61907271  0.50534726  0.50533835  1
  O  O432  1  0.36832798  0.37564880  0.11862447  1
  O  O433  1  0.36799875  0.37146720  0.61774365  1
  O  O434  1  0.36954484  0.86984752  0.11915727  1
  O  O435  1  0.37047104  0.86883633  0.61937251  1
  O  O436  1  0.87274094  0.36885825  0.11779298  1
  O  O437  1  0.86793171  0.36874820  0.62400540  1
  O  O438  1  0.86883466  0.86981537  0.12531611  1
  O  O439  1  0.86836143  0.87033538  0.62033886  1
  O  O440  1  0.13276233  0.13205695  0.37286202  1
  O  O441  1  0.13355302  0.12250734  0.88384717  1
  O  O442  1  0.12303498  0.63090461  0.38450600  1
  O  O443  1  0.12580719  0.63107110  0.88233100  1
  O  O444  1  0.63098620  0.13198906  0.37993042  1
  O  O445  1  0.62565460  0.13140126  0.88241512  1
  O  O446  1  0.63037688  0.63066879  0.38103912  1
  O  O447  1  0.62980117  0.63020183  0.88236290  1
