# generated using pymatgen
data_V3Zn3O8
_symmetry_space_group_name_H-M   'P 1'
_cell_length_a   17.09170232
_cell_length_b   17.09230719
_cell_length_c   17.09009294
_cell_angle_alpha   90.01365882
_cell_angle_beta   90.00226002
_cell_angle_gamma   89.99498971
_symmetry_Int_Tables_number   1
_chemical_formula_structural   V3Zn3O8
_chemical_formula_sum   'V96 Zn96 O256'
_cell_volume   4992.64193097
_cell_formula_units_Z   32
loop_
 _symmetry_equiv_pos_site_id
 _symmetry_equiv_pos_as_xyz
  1  'x, y, z'
loop_
 _atom_site_type_symbol
 _atom_site_label
 _atom_site_symmetry_multiplicity
 _atom_site_fract_x
 _atom_site_fract_y
 _atom_site_fract_z
 _atom_site_occupancy
  V  V0  1  0.50086678  0.87491807  0.87512255  1
  V  V1  1  0.12363416  0.24949836  0.87424093  1
  V  V2  1  0.75082707  0.37802936  0.62518482  1
  V  V3  1  0.25037232  0.50051051  0.75016933  1
  V  V4  1  -0.00061959  -0.00154285  0.00013346  1
  V  V5  1  0.87568251  0.12660084  0.75002355  1
  V  V6  1  0.49945372  0.50196096  0.49880646  1
  V  V7  1  0.87509847  0.00049304  0.37634557  1
  V  V8  1  0.12525267  0.87534123  0.75021209  1
  V  V9  1  0.25086765  0.87519354  0.62390810  1
  V  V10  1  0.12395764  0.37381348  0.24923451  1
  V  V11  1  0.12422403  0.25011425  0.37573362  1
  V  V12  1  0.49953357  0.37462460  0.37368312  1
  V  V13  1  0.12474264  0.87505877  0.24877398  1
  V  V14  1  0.50225561  0.00214996  0.50282290  1
  V  V15  1  0.49920624  0.62214685  0.12374964  1
  V  V16  1  0.12376583  0.75045096  0.87352626  1
  V  V17  1  0.62493197  0.25081111  0.37526122  1
  V  V18  1  0.87502722  0.50008334  0.87517634  1
  V  V19  1  0.12524911  0.50138869  0.62532823  1
  V  V20  1  0.12496702  0.12621597  0.50133825  1
  V  V21  1  0.75042490  0.37424400  0.12443349  1
  V  V22  1  0.74983651  0.62563327  0.37427468  1
  V  V23  1  0.37477727  0.87451140  0.49999978  1
  V  V24  1  0.37460527  0.37603403  0.49977550  1
  V  V25  1  0.37443749  0.62409812  0.24824556  1
  V  V26  1  0.62413133  0.62535475  0.49961240  1
  V  V27  1  -0.00072783  0.12367973  0.12500881  1
  V  V28  1  0.62359427  0.50258991  0.62437625  1
  V  V29  1  0.12463037  0.37502870  0.75164880  1
  V  V30  1  0.24845998  0.49912105  0.24976141  1
  V  V31  1  0.62551637  -0.00120493  0.12673474  1
  V  V32  1  0.37414528  0.24820463  0.12557880  1
  V  V33  1  0.00012315  0.62348506  0.12360738  1
  V  V34  1  0.37508468  -0.00058831  0.37523392  1
  V  V35  1  -0.00064073  0.37589199  0.37552110  1
  V  V36  1  0.74975295  0.49946626  0.24972063  1
  V  V37  1  0.74929648  0.87475864  0.12606909  1
  V  V38  1  0.24977055  0.24716120  0.00035757  1
  V  V39  1  -0.00080483  0.24936849  0.25046303  1
  V  V40  1  0.75226005  0.87568961  0.62423090  1
  V  V41  1  0.24935082  0.12466271  0.37553579  1
  V  V42  1  0.25035798  0.75082465  0.49867833  1
  V  V43  1  0.75085864  0.75152038  0.49961918  1
  V  V44  1  0.25208259  0.12380698  0.87488224  1
  V  V45  1  0.87566206  -0.00061079  0.87558640  1
  V  V46  1  0.75107803  0.25181955  0.50064897  1
  V  V47  1  0.87476661  0.62526239  0.24927498  1
  V  V48  1  0.37479927  0.12387742  0.25073593  1
  V  V49  1  0.87506026  0.87412815  -0.00064018  1
  V  V50  1  0.49985439  0.74930298  0.74928321  1
  V  V51  1  0.62592853  0.87504063  0.75052067  1
  V  V52  1  0.00002732  0.75025334  0.24952642  1
  V  V53  1  0.00014854  0.00148412  0.49952330  1
  V  V54  1  0.25225438  0.00049409  0.75030629  1
  V  V55  1  0.50077553  -0.00155570  0.00081253  1
  V  V56  1  0.50026874  0.12334803  0.12625210  1
  V  V57  1  0.25065843  0.37592409  0.62542988  1
  V  V58  1  0.87565963  0.62783273  0.74747253  1
  V  V59  1  0.24951988  -0.00086264  0.25005398  1
  V  V60  1  0.37340916  0.49951830  0.37453734  1
  V  V61  1  0.75006042  -0.00023546  0.74990217  1
  V  V62  1  0.74905753  0.74873347  0.00021992  1
  V  V63  1  0.62440787  0.74998264  0.37408066  1
  V  V64  1  0.87397286  0.24982103  0.12424585  1
  V  V65  1  0.37592404  0.49745286  0.87654678  1
  V  V66  1  0.37467380  0.87349915  0.00088758  1
  V  V67  1  0.24999408  0.25083186  0.50057865  1
  V  V68  1  0.00137423  0.50271333  0.50149477  1
  V  V69  1  0.74926049  -0.00044145  0.25133643  1
  V  V70  1  0.50043629  0.87394392  0.37468712  1
  V  V71  1  0.37559353  0.00021763  0.87453328  1
  V  V72  1  0.62199226  0.37477689  0.75216991  1
  V  V73  1  0.49933873  0.74889631  0.25010477  1
  V  V74  1  0.62528674  0.62310327  -0.00101852  1
  V  V75  1  0.37960839  0.24902943  0.62705927  1
  V  V76  1  0.37564329  0.62529365  0.75036889  1
  V  V77  1  0.37592906  0.37392245  -0.00038488  1
  V  V78  1  0.12644051  0.00149277  0.62564227  1
  V  V79  1  0.12467483  0.62360131  -0.00084296  1
  V  V80  1  0.12560553  0.75005777  0.37412840  1
  V  V81  1  -0.00001857  0.12731532  0.62723141  1
  V  V82  1  0.24869811  0.62538431  0.37430167  1
  V  V83  1  0.87553983  0.50062207  0.37586813  1
  V  V84  1  0.87475130  0.74902101  0.12441151  1
  V  V85  1  0.74902198  0.12598801  0.87602625  1
  V  V86  1  0.12322711  0.49897194  0.12358119  1
  V  V87  1  0.87434579  0.12493348  0.25067299  1
  V  V88  1  -0.00038143  0.87660726  0.37490910  1
  V  V89  1  0.25072363  0.87403002  0.12396038  1
  V  V90  1  0.49982471  0.24954234  0.25181795  1
  V  V91  1  0.62665516  0.12505185  -0.00008533  1
  V  V92  1  0.24915231  0.62430705  0.87517984  1
  V  V93  1  0.74976558  0.12632842  0.37659232  1
  V  V94  1  0.12368600  -0.00049370  0.12402789  1
  V  V95  1  0.24859001  0.37251245  0.12534558  1
  Zn  Zn96  1  0.49846256  0.62653401  0.62380538  1
  Zn  Zn97  1  0.50194300  0.37306012  0.87822733  1
  Zn  Zn98  1  -0.00286735  0.37433604  0.87517410  1
  Zn  Zn99  1  0.62442553  0.87412350  0.24996530  1
  Zn  Zn100  1  0.50140466  0.24651548  0.75507586  1
  Zn  Zn101  1  0.74925465  0.62667757  0.87229313  1
  Zn  Zn102  1  -0.00070974  0.87476749  0.87244745  1
  Zn  Zn103  1  -0.00242543  0.25253775  0.74984786  1
  Zn  Zn104  1  0.37973456  0.12478207  0.74971454  1
  Zn  Zn105  1  0.50167149  0.49626644  -0.00024649  1
  Zn  Zn106  1  -0.00019071  0.75268466  0.74449220  1
  Zn  Zn107  1  0.75009226  0.25105653  -0.00151895  1
  Zn  Zn108  1  0.87747940  0.25362545  0.62761896  1
  Zn  Zn109  1  0.12594290  0.62739605  0.50166012  1
  Zn  Zn110  1  0.87570391  0.37699536  0.50208174  1
  Zn  Zn111  1  0.25118077  0.74895324  0.00114120  1
  Zn  Zn112  1  0.50458346  0.12632657  0.62808588  1
  Zn  Zn113  1  0.37277432  0.74819275  0.12259522  1
  Zn  Zn114  1  0.62504388  0.12580144  0.50298629  1
  Zn  Zn115  1  0.37427462  0.74889074  0.62389803  1
  Zn  Zn116  1  0.12462111  0.12330756  -0.00049865  1
  Zn  Zn117  1  -0.00064748  0.49646291  -0.00152716  1
  Zn  Zn118  1  0.62613122  0.00451783  0.62556372  1
  Zn  Zn119  1  0.62444985  0.37602999  0.24948688  1
  Zn  Zn120  1  0.00229037  0.62980237  0.62420283  1
  Zn  Zn121  1  0.87600566  0.37363227  -0.00294276  1
  Zn  Zn122  1  0.62482898  0.49619373  0.12531557  1
  Zn  Zn123  1  0.74836514  0.50364283  0.75093005  1
  Zn  Zn124  1  0.62436178  0.25121243  0.87691338  1
  Zn  Zn125  1  0.62654940  0.74910232  0.87517470  1
  Zn  Zn126  1  0.87645154  0.87448517  0.50069268  1
  Zn  Zn127  1  0.87894835  0.74988993  0.62241995  1
  Zn  Zn128  1  0.18555645  0.18518490  0.18777698  1
  Zn  Zn129  1  0.19067896  0.18760865  0.68966359  1
  Zn  Zn130  1  0.18704660  0.68746351  0.18562734  1
  Zn  Zn131  1  0.18796781  0.68784032  0.68687606  1
  Zn  Zn132  1  0.68664188  0.18823401  0.18837407  1
  Zn  Zn133  1  0.68670620  0.18834585  0.68719820  1
  Zn  Zn134  1  0.68533680  0.68644507  0.18628848  1
  Zn  Zn135  1  0.68871847  0.68903485  0.68631138  1
  Zn  Zn136  1  0.31222622  0.31173758  0.31247294  1
  Zn  Zn137  1  0.31193455  0.31237359  0.81270542  1
  Zn  Zn138  1  0.31400781  0.81154265  0.31118981  1
  Zn  Zn139  1  0.31210840  0.81256718  0.81326082  1
  Zn  Zn140  1  0.81329892  0.31445479  0.31193616  1
  Zn  Zn141  1  0.80932309  0.31245409  0.81192467  1
  Zn  Zn142  1  0.81293835  0.81363154  0.31276724  1
  Zn  Zn143  1  0.81216667  0.81049921  0.81351320  1
  Zn  Zn144  1  0.18622650  0.43760343  0.43834301  1
  Zn  Zn145  1  0.18879411  0.43592879  0.93817255  1
  Zn  Zn146  1  0.18623055  0.93706348  0.43784050  1
  Zn  Zn147  1  0.18809685  0.93657734  0.93808281  1
  Zn  Zn148  1  0.68587063  0.43774416  0.43679922  1
  Zn  Zn149  1  0.69123133  0.44056243  0.93723739  1
  Zn  Zn150  1  0.68600196  0.93648511  0.43778643  1
  Zn  Zn151  1  0.68792051  0.93752386  0.93727372  1
  Zn  Zn152  1  0.31253119  0.06055460  0.06127678  1
  Zn  Zn153  1  0.31459523  0.06391148  0.56301788  1
  Zn  Zn154  1  0.31087272  0.56039902  0.06070490  1
  Zn  Zn155  1  0.31251830  0.56521307  0.56325823  1
  Zn  Zn156  1  0.81217546  0.06159437  0.06249630  1
  Zn  Zn157  1  0.81442339  0.06416668  0.56395755  1
  Zn  Zn158  1  0.81170091  0.56053767  0.06089829  1
  Zn  Zn159  1  0.81278075  0.56416808  0.56283813  1
  Zn  Zn160  1  0.43585398  0.43609110  0.18676430  1
  Zn  Zn161  1  0.43916652  0.43822110  0.68759276  1
  Zn  Zn162  1  0.43720869  0.93544589  0.18745638  1
  Zn  Zn163  1  0.43730681  0.93556647  0.68715213  1
  Zn  Zn164  1  0.93581865  0.43708846  0.18709753  1
  Zn  Zn165  1  0.93817749  0.44016487  0.69060205  1
  Zn  Zn166  1  0.93574959  0.93711247  0.18751476  1
  Zn  Zn167  1  0.93864792  0.93909210  0.68831355  1
  Zn  Zn168  1  0.06234655  0.06305940  0.31186121  1
  Zn  Zn169  1  0.06243960  0.06317138  0.81317336  1
  Zn  Zn170  1  0.06247140  0.56297773  0.31193147  1
  Zn  Zn171  1  0.05853369  0.56323025  0.81113147  1
  Zn  Zn172  1  0.56442940  0.06291961  0.31532364  1
  Zn  Zn173  1  0.56304960  0.06356345  0.81108864  1
  Zn  Zn174  1  0.56350269  0.56165995  0.31117325  1
  Zn  Zn175  1  0.56077685  0.56035207  0.81389134  1
  Zn  Zn176  1  0.43700668  0.18704247  0.43928319  1
  Zn  Zn177  1  0.44063348  0.18804812  0.93651772  1
  Zn  Zn178  1  0.43600131  0.68721969  0.43600168  1
  Zn  Zn179  1  0.43739869  0.68740625  0.93664746  1
  Zn  Zn180  1  0.93577098  0.18830452  0.44007369  1
  Zn  Zn181  1  0.93662371  0.18614680  0.93930299  1
  Zn  Zn182  1  0.93660975  0.68872621  0.43751142  1
  Zn  Zn183  1  0.93841516  0.68498929  0.93570545  1
  Zn  Zn184  1  0.05924732  0.31205296  0.05867465  1
  Zn  Zn185  1  0.06238251  0.31474172  0.56443891  1
  Zn  Zn186  1  0.06266684  0.81133394  0.05981802  1
  Zn  Zn187  1  0.06338222  0.81385226  0.56180382  1
  Zn  Zn188  1  0.56348313  0.31017878  0.06299510  1
  Zn  Zn189  1  0.56430310  0.31603340  0.56171602  1
  Zn  Zn190  1  0.56241991  0.80956852  0.06359894  1
  Zn  Zn191  1  0.56467083  0.81417718  0.56391379  1
  O  O192  1  0.11735565  0.11718563  0.12473084  1
  O  O193  1  0.12210398  0.12065228  0.62027670  1
  O  O194  1  0.11987458  0.61871200  0.12008915  1
  O  O195  1  0.12446180  0.61607602  0.62207476  1
  O  O196  1  0.61945645  0.11827064  0.12127334  1
  O  O197  1  0.62270712  0.12193075  0.61964505  1
  O  O198  1  0.61546070  0.62278407  0.11722205  1
  O  O199  1  0.62361901  0.61998729  0.61686674  1
  O  O200  1  0.37874563  0.37999501  0.38019575  1
  O  O201  1  0.37332322  0.38038520  0.88245846  1
  O  O202  1  0.38002195  0.88078460  0.37986409  1
  O  O203  1  0.38085050  0.88105083  0.88069008  1
  O  O204  1  0.88222641  0.38296038  0.37620375  1
  O  O205  1  0.87351678  0.38653176  0.87314556  1
  O  O206  1  0.88230631  0.88301347  0.37526525  1
  O  O207  1  0.87579483  0.88136826  0.88185339  1
  O  O208  1  0.25443933  0.00506431  0.36997152  1
  O  O209  1  0.25568598  0.00417269  0.87015185  1
  O  O210  1  0.25373516  0.50393230  0.36905510  1
  O  O211  1  0.25511326  0.50467913  0.86870563  1
  O  O212  1  0.75495678  0.00579091  0.37152595  1
  O  O213  1  0.75663204  0.00485485  0.86965803  1
  O  O214  1  0.75546165  0.50623684  0.37072171  1
  O  O215  1  0.76133923  0.50574048  0.87194807  1
  O  O216  1  0.24336124  0.49252754  0.13103336  1
  O  O217  1  0.24591019  0.49464603  0.63015242  1
  O  O218  1  0.24421150  0.99491558  0.13140085  1
  O  O219  1  0.24560805  0.99580626  0.62918106  1
  O  O220  1  0.75188073  0.49025356  0.13207092  1
  O  O221  1  0.74226766  0.49133681  0.62193537  1
  O  O222  1  0.74543301  0.99439178  0.13180322  1
  O  O223  1  0.75054709  0.99145554  0.63050782  1
  O  O224  1  0.00513685  0.36882238  0.25533939  1
  O  O225  1  0.00975399  0.37250512  0.75297799  1
  O  O226  1  0.00506701  0.86995883  0.25443691  1
  O  O227  1  0.00995008  0.87492633  0.75226836  1
  O  O228  1  0.49849895  0.36738856  0.25599923  1
  O  O229  1  0.51215314  0.37404608  0.74950361  1
  O  O230  1  0.50044092  0.86789841  0.25688157  1
  O  O231  1  0.50502482  0.86807177  0.75511460  1
  O  O232  1  0.49373348  0.12889994  0.24649152  1
  O  O233  1  0.49646884  0.12835658  0.74533293  1
  O  O234  1  0.49447563  0.62810675  0.24270670  1
  O  O235  1  0.49493195  0.63451930  0.75004915  1
  O  O236  1  0.99402642  0.12999853  0.24560665  1
  O  O237  1  0.99397524  0.12558635  0.74385311  1
  O  O238  1  0.99464815  0.63099592  0.24446534  1
  O  O239  1  0.98900291  0.62780583  0.74596572  1
  O  O240  1  0.36910958  0.25306949  0.00734349  1
  O  O241  1  0.36873494  0.25656169  0.50591413  1
  O  O242  1  0.37234819  0.75802236  0.00081241  1
  O  O243  1  0.36862107  0.75720403  0.49937285  1
  O  O244  1  0.87124291  0.25042403  0.00969939  1
  O  O245  1  0.86288326  0.25497868  0.50166807  1
  O  O246  1  0.87013808  0.75348738  0.00582931  1
  O  O247  1  0.86604318  0.75356946  0.49982629  1
  O  O248  1  0.13070998  0.24607525  0.49510635  1
  O  O249  1  0.13164624  0.24767539  0.99104985  1
  O  O250  1  0.13252653  0.75043669  0.49087085  1
  O  O251  1  0.12742262  0.74354842  0.99028044  1
  O  O252  1  0.63612862  0.25187684  0.49392379  1
  O  O253  1  0.62890132  0.23865175  1.00085307  1
  O  O254  1  0.63001297  0.74520178  0.49359027  1
  O  O255  1  0.63005726  0.73980666  1.00053822  1
  O  O256  1  0.49324102  0.24230066  0.13199946  1
  O  O257  1  0.48784467  0.25246819  0.62121699  1
  O  O258  1  0.49792889  0.73750278  0.13102964  1
  O  O259  1  0.49833401  0.75090182  0.63734185  1
  O  O260  1  0.99491565  0.24378178  0.13183451  1
  O  O261  1  0.99870989  0.24315499  0.62690477  1
  O  O262  1  0.99475438  0.74436439  0.13055340  1
  O  O263  1  0.99730786  0.74801143  0.62523592  1
  O  O264  1  0.00491815  0.25496581  0.37084991  1
  O  O265  1  0.01350056  0.24826405  0.87401920  1
  O  O266  1  0.00513819  0.75606774  0.36864463  1
  O  O267  1  0.01417722  0.75121697  0.87333524  1
  O  O268  1  0.50355914  0.25490346  0.37157561  1
  O  O269  1  0.50581641  0.25554514  0.87307108  1
  O  O270  1  0.50487856  0.75432784  0.36992956  1
  O  O271  1  0.50099923  0.75608677  0.86436227  1
  O  O272  1  0.24438549  0.13042769  0.49440834  1
  O  O273  1  0.24825993  0.12965513  0.99395687  1
  O  O274  1  0.24957869  0.63182150  0.49144400  1
  O  O275  1  0.24271054  0.62543931  0.99285507  1
  O  O276  1  0.75118709  0.13611234  0.49477026  1
  O  O277  1  0.74343296  0.12275690  0.99413405  1
  O  O278  1  0.74414613  0.63060566  0.49315674  1
  O  O279  1  0.73944848  0.63105644  1.00304562  1
  O  O280  1  0.25530328  0.36675595  0.00731965  1
  O  O281  1  0.25492042  0.37041656  0.50491867  1
  O  O282  1  0.25716271  0.87507051  0.00687662  1
  O  O283  1  0.25515513  0.87113742  0.50357677  1
  O  O284  1  0.75271936  0.37412913  0.01303892  1
  O  O285  1  0.74985886  0.36902239  0.50754753  1
  O  O286  1  0.75529254  0.86966796  0.00688415  1
  O  O287  1  0.75075986  0.87096157  0.50839318  1
  O  O288  1  0.12941378  0.49320623  0.24429065  1
  O  O289  1  0.13144957  0.49526138  0.74571249  1
  O  O290  1  0.12982928  0.99452166  0.24476017  1
  O  O291  1  0.13237095  0.99568261  0.74489625  1
  O  O292  1  0.63431870  0.49773315  0.24748516  1
  O  O293  1  0.62591263  0.49357215  0.74281385  1
  O  O294  1  0.63166141  0.99891488  0.24480995  1
  O  O295  1  0.63264747  0.99208130  0.74886987  1
  O  O296  1  0.36938218  0.00468930  0.25588189  1
  O  O297  1  0.36920287  -0.00135779  0.75708588  1
  O  O298  1  0.36751542  0.50385687  0.25524860  1
  O  O299  1  0.36964257  0.50451975  0.75543840  1
  O  O300  1  0.86935164  0.00590210  0.25608629  1
  O  O301  1  0.86954814  0.00590369  0.75617205  1
  O  O302  1  0.87035796  0.50680783  0.25637012  1
  O  O303  1  0.87264062  0.50996113  0.75694859  1
  O  O304  1  0.11997441  0.36918656  0.36895699  1
  O  O305  1  0.12800100  0.36406830  0.86954832  1
  O  O306  1  0.11958815  0.87083841  0.36761478  1
  O  O307  1  0.12602595  0.86584828  0.86929867  1
  O  O308  1  0.61702908  0.36887075  0.37306281  1
  O  O309  1  0.62746182  0.37692018  0.86354439  1
  O  O310  1  0.61824852  0.86733839  0.37288174  1
  O  O311  1  0.61818463  0.87349058  0.86916210  1
  O  O312  1  0.38007316  0.12810473  0.13138007  1
  O  O313  1  0.37658306  0.13809834  0.62461712  1
  O  O314  1  0.38260421  0.62379539  0.12961247  1
  O  O315  1  0.37756680  0.62860582  0.63387942  1
  O  O316  1  0.87958256  0.12864360  0.13225068  1
  O  O317  1  0.88213920  0.12710046  0.63258991  1
  O  O318  1  0.87988531  0.63005674  0.13022568  1
  O  O319  1  0.87649206  0.62658851  0.63474256  1
  O  O320  1  0.25437851  0.25258803  0.12168870  1
  O  O321  1  0.25772015  0.25610060  0.61920210  1
  O  O322  1  0.25162258  0.75820177  0.12305288  1
  O  O323  1  0.25034073  0.75778179  0.61710139  1
  O  O324  1  0.75628647  0.25837269  0.12770893  1
  O  O325  1  0.74987668  0.26123090  0.61562566  1
  O  O326  1  0.75578848  0.75480019  0.12096721  1
  O  O327  1  0.75094467  0.76097740  0.61788605  1
  O  O328  1  0.24435708  0.24465824  0.38034528  1
  O  O329  1  0.24347923  0.24395316  0.88047061  1
  O  O330  1  0.24491417  0.74549626  0.37819193  1
  O  O331  1  0.23930213  0.74350923  0.87518652  1
  O  O332  1  0.74605590  0.24726930  0.38187929  1
  O  O333  1  0.74631710  0.24039772  0.87775999  1
  O  O334  1  0.74463487  0.74496397  0.37865319  1
  O  O335  1  0.74681743  0.74731160  0.88540301  1
  O  O336  1  0.00111224  0.11646941  0.00817640  1
  O  O337  1  0.00640068  0.12121434  0.50541772  1
  O  O338  1  0.00700810  0.62285039  0.00740152  1
  O  O339  1  0.00287190  0.61298575  0.49815987  1
  O  O340  1  0.50543597  0.11747868  0.00738285  1
  O  O341  1  0.49976971  0.11279518  0.50042711  1
  O  O342  1  0.50681767  0.62441378  0.00862371  1
  O  O343  1  0.50576062  0.61954641  0.49904505  1
  O  O344  1  0.49378925  0.38215564  0.49283254  1
  O  O345  1  0.49096039  0.37640726  1.00277496  1
  O  O346  1  0.49497931  0.88174593  0.49432219  1
  O  O347  1  0.49583858  0.87944429  0.99557430  1
  O  O348  1  0.99984476  0.38562644  0.49421839  1
  O  O349  1  0.99439362  0.37850050  0.99464263  1
  O  O350  1  1.00032282  0.88427037  0.49223289  1
  O  O351  1  0.99206937  0.88060862  0.99907497  1
  O  O352  1  0.49274551  0.49508597  0.37856528  1
  O  O353  1  0.49008012  0.49543393  0.87871093  1
  O  O354  1  0.49432631  0.99469290  0.38216382  1
  O  O355  1  0.49534188  0.99399921  0.88158922  1
  O  O356  1  0.99659481  0.49537450  0.38140585  1
  O  O357  1  0.98848204  0.49849149  0.87567137  1
  O  O358  1  0.99553196  0.99670168  0.37938544  1
  O  O359  1  0.99353161  0.99908315  0.88225561  1
  O  O360  1  0.00386213  0.00419761  0.12093260  1
  O  O361  1  0.00721371  0.00682941  0.61922306  1
  O  O362  1  0.00621039  0.50635621  0.12604503  1
  O  O363  1  0.00620696  0.49989113  0.61470250  1
  O  O364  1  0.50512981  0.00447594  0.12115868  1
  O  O365  1  0.49996930  -0.00182416  0.61242917  1
  O  O366  1  0.50069219  0.51142738  0.12506046  1
  O  O367  1  0.50553773  0.50216150  0.61580148  1
  O  O368  1  0.24377344  0.37866956  0.24508683  1
  O  O369  1  0.24495493  0.38182695  0.74438342  1
  O  O370  1  0.24447723  0.88069148  0.24546070  1
  O  O371  1  0.24531643  0.88116819  0.74404313  1
  O  O372  1  0.74974057  0.38104311  0.24173949  1
  O  O373  1  0.74084287  0.37779997  0.73860992  1
  O  O374  1  0.74898373  0.88152194  0.24387857  1
  O  O375  1  0.74621998  0.87914516  0.74308750  1
  O  O376  1  0.25470166  0.11887183  0.25595925  1
  O  O377  1  0.25470982  0.11744542  0.75652358  1
  O  O378  1  0.25418575  0.61833740  0.25385049  1
  O  O379  1  0.25567502  0.61935133  0.75574426  1
  O  O380  1  0.75548667  0.11969316  0.25649702  1
  O  O381  1  0.75524215  0.11903782  0.75547540  1
  O  O382  1  0.75581897  0.62067930  0.25456233  1
  O  O383  1  0.75969227  0.62457191  0.75083433  1
  O  O384  1  0.36831041  0.11982874  0.37018030  1
  O  O385  1  0.36943551  0.11741123  0.87525183  1
  O  O386  1  0.36847721  0.61821936  0.36800931  1
  O  O387  1  0.36893786  0.61846454  0.87015487  1
  O  O388  1  0.86989581  0.12047236  0.36967592  1
  O  O389  1  0.86927550  0.11838134  0.87027579  1
  O  O390  1  0.86934347  0.62048662  0.36824373  1
  O  O391  1  0.87419951  0.61826262  0.86559908  1
  O  O392  1  0.12934066  0.37768950  0.13058472  1
  O  O393  1  0.13228924  0.38100646  0.63111065  1
  O  O394  1  0.12926944  0.88006179  0.13026360  1
  O  O395  1  0.13195574  0.88315499  0.62936583  1
  O  O396  1  0.63616547  0.37506653  0.12833959  1
  O  O397  1  0.63222063  0.38233708  0.63031361  1
  O  O398  1  0.63104107  0.88077017  0.12669564  1
  O  O399  1  0.63706270  0.87780616  0.63122405  1
  O  O400  1  0.11908959  0.25395246  0.25609138  1
  O  O401  1  0.12780290  0.25578925  0.76008283  1
  O  O402  1  0.11908575  0.75593078  0.25408090  1
  O  O403  1  0.12605750  0.75608751  0.75867179  1
  O  O404  1  0.61669878  0.25040252  0.25752720  1
  O  O405  1  0.62417872  0.26344024  0.74951380  1
  O  O406  1  0.61763254  0.74979307  0.25651306  1
  O  O407  1  0.61592312  0.75533979  0.75145444  1
  O  O408  1  0.37896092  0.24297239  0.24567880  1
  O  O409  1  0.37549734  0.25146103  0.73739948  1
  O  O410  1  0.38148112  0.74128163  0.24843418  1
  O  O411  1  0.38400182  0.74520707  0.75019859  1
  O  O412  1  0.88090846  0.24372957  0.24612385  1
  O  O413  1  0.87659714  0.24165020  0.74880705  1
  O  O414  1  0.88052260  0.74479535  0.24450761  1
  O  O415  1  0.87744676  0.74043283  0.74946441  1
  O  O416  1  0.37858017  0.49535507  0.49375222  1
  O  O417  1  0.37368633  0.49139182  0.99371474  1
  O  O418  1  0.38163058  0.99470029  0.49384328  1
  O  O419  1  0.38199582  0.99385777  0.99490792  1
  O  O420  1  0.88463863  0.50030354  0.49382436  1
  O  O421  1  0.87670726  0.50105558  0.98787456  1
  O  O422  1  0.88284016  1.00050292  0.49307490  1
  O  O423  1  0.87962693  0.99337538  0.99583853  1
  O  O424  1  0.11817192  -0.00008443  0.00672189  1
  O  O425  1  0.12059139  0.00725162  0.50517972  1
  O  O426  1  0.12485133  0.50528002  0.00643966  1
  O  O427  1  0.11685011  0.50102847  0.50529720  1
  O  O428  1  0.61966786  0.00440199  0.00738978  1
  O  O429  1  0.61291283  0.00076722  0.49988002  1
  O  O430  1  0.62346900  0.51062373  0.00380558  1
  O  O431  1  0.61835959  0.50622400  0.50293642  1
  O  O432  1  0.36728142  0.36748163  0.12141929  1
  O  O433  1  0.36950059  0.36936967  0.61869772  1
  O  O434  1  0.36888120  0.87388673  0.11883377  1
  O  O435  1  0.36748165  0.87336693  0.61742349  1
  O  O436  1  0.86604012  0.36801505  0.12640303  1
  O  O437  1  0.86276355  0.37659684  0.62491974  1
  O  O438  1  0.86916942  0.86843135  0.11997937  1
  O  O439  1  0.86292175  0.87524487  0.62425732  1
  O  O440  1  0.12973472  0.13075150  0.38060263  1
  O  O441  1  0.13289876  0.13349973  0.87560733  1
  O  O442  1  0.13191071  0.63232976  0.37378068  1
  O  O443  1  0.12971172  0.63137869  0.87812809  1
  O  O444  1  0.63260306  0.13282545  0.37898531  1
  O  O445  1  0.63250817  0.12253395  0.88306620  1
  O  O446  1  0.63070326  0.63025384  0.37995801  1
  O  O447  1  0.62485806  0.62620757  0.88746801  1
