# generated using pymatgen
data_V3Zn3O8
_symmetry_space_group_name_H-M   'P 1'
_cell_length_a   17.08615498
_cell_length_b   17.08648084
_cell_length_c   17.08659924
_cell_angle_alpha   89.98917771
_cell_angle_beta   89.98733148
_cell_angle_gamma   90.00750634
_symmetry_Int_Tables_number   1
_chemical_formula_structural   V3Zn3O8
_chemical_formula_sum   'V96 Zn96 O256'
_cell_volume   4988.30013879
_cell_formula_units_Z   32
loop_
 _symmetry_equiv_pos_site_id
 _symmetry_equiv_pos_as_xyz
  1  'x, y, z'
loop_
 _atom_site_type_symbol
 _atom_site_label
 _atom_site_symmetry_multiplicity
 _atom_site_fract_x
 _atom_site_fract_y
 _atom_site_fract_z
 _atom_site_occupancy
  V  V0  1  0.12517695  0.50090386  0.12469208  1
  V  V1  1  0.37492229  0.87498374  0.50033940  1
  V  V2  1  0.37523508  0.12365695  0.74978982  1
  V  V3  1  0.24932626  0.74859432  0.50056352  1
  V  V4  1  0.24928807  0.00010838  0.24950804  1
  V  V5  1  0.12466678  -0.00124507  0.62491296  1
  V  V6  1  0.74875152  0.74980744  0.49963610  1
  V  V7  1  0.49904504  0.87432035  0.87543118  1
  V  V8  1  0.25062465  0.24892749  0.50004099  1
  V  V9  1  0.12358356  0.37122061  0.75078008  1
  V  V10  1  0.50061458  0.25076724  0.24912924  1
  V  V11  1  -0.00025857  0.12534708  0.12509517  1
  V  V12  1  0.62484163  0.75091578  0.37536568  1
  V  V13  1  0.12585834  0.37491141  0.25018540  1
  V  V14  1  0.25037817  0.12458074  0.37514939  1
  V  V15  1  0.87475662  0.37577912  0.50106413  1
  V  V16  1  0.62480488  0.12512709  0.49960382  1
  V  V17  1  0.50093368  0.24974561  0.75001898  1
  V  V18  1  0.37554216  0.37527399  0.00017602  1
  V  V19  1  0.75077644  0.62488065  0.87566640  1
  V  V20  1  0.87456466  0.87557933  0.49981740  1
  V  V21  1  -0.00104941  -0.00039769  0.49912650  1
  V  V22  1  0.87430532  0.24988827  0.62415576  1
  V  V23  1  0.62440101  -0.00030806  0.62410885  1
  V  V24  1  0.12413201  0.74890304  0.87637123  1
  V  V25  1  0.49905769  0.62502613  0.62709369  1
  V  V26  1  0.00004010  0.49924110  0.49991469  1
  V  V27  1  0.62564602  0.25108434  0.37436058  1
  V  V28  1  -0.00136311  0.62518230  0.62679704  1
  V  V29  1  0.62438861  0.00126096  0.12531241  1
  V  V30  1  -0.00199245  0.37457511  0.87683466  1
  V  V31  1  0.49889364  0.87618663  0.37531488  1
  V  V32  1  0.50104457  0.49962087  0.00027363  1
  V  V33  1  0.75031804  0.87418309  0.12537055  1
  V  V34  1  0.75115313  0.50104479  0.24938855  1
  V  V35  1  0.37517286  -0.00071073  0.87509406  1
  V  V36  1  0.24880356  0.75042491  -0.00007222  1
  V  V37  1  0.37599941  0.25038956  0.12546767  1
  V  V38  1  0.37475321  -0.00028805  0.37549781  1
  V  V39  1  -0.00090264  0.12543995  0.62487892  1
  V  V40  1  0.50051725  0.12390917  0.62433620  1
  V  V41  1  0.12258731  0.87346902  0.75047400  1
  V  V42  1  0.12479994  0.00062680  0.12520142  1
  V  V43  1  0.49968791  0.37430311  0.87428394  1
  V  V44  1  0.62627814  0.37595314  0.24884999  1
  V  V45  1  0.24926402  0.87405205  0.62552383  1
  V  V46  1  0.12543696  0.25047887  0.37444996  1
  V  V47  1  0.00092447  0.62547825  0.12420329  1
  V  V48  1  0.37359994  0.50019619  0.87490359  1
  V  V49  1  0.75172216  0.50129006  0.75092573  1
  V  V50  1  0.12504128  0.12439538  0.50036063  1
  V  V51  1  0.87507733  0.74877408  0.62592788  1
  V  V52  1  0.00085929  0.25062613  0.24926874  1
  V  V53  1  0.37638446  0.37508118  0.49931371  1
  V  V54  1  0.37459363  0.74917795  0.62599447  1
  V  V55  1  0.74940907  -0.00102331  0.74966329  1
  V  V56  1  0.24960183  0.87657897  0.12577007  1
  V  V57  1  0.62364612  0.12459595  -0.00019785  1
  V  V58  1  0.62385496  0.74994273  0.87529136  1
  V  V59  1  0.49923213  0.75050115  0.24918360  1
  V  V60  1  0.74999861  0.12696108  0.37377114  1
  V  V61  1  0.87467310  -0.00204603  0.87512601  1
  V  V62  1  -0.00125865  -0.00074328  -0.00051331  1
  V  V63  1  0.25044619  0.37542928  0.12482055  1
  V  V64  1  0.75005293  0.75077624  0.00232398  1
  V  V65  1  0.62611683  0.37499444  0.74904394  1
  V  V66  1  0.24990634  0.24945181  -0.00085806  1
  V  V67  1  0.62641032  0.49970802  0.12439942  1
  V  V68  1  0.62419321  0.62581517  0.49981386  1
  V  V69  1  0.87549467  0.12742525  0.24911970  1
  V  V70  1  0.74892995  0.87431445  0.62482259  1
  V  V71  1  0.25196631  0.50119190  0.25042147  1
  V  V72  1  0.62347282  0.87344174  0.75040199  1
  V  V73  1  0.87518229  0.00087718  0.37542864  1
  V  V74  1  0.75038143  0.25199818  0.50003097  1
  V  V75  1  0.37505079  0.87593160  -0.00066600  1
  V  V76  1  0.62464945  0.87595269  0.25043255  1
  V  V77  1  0.12501043  0.49866653  0.62431814  1
  V  V78  1  0.87412941  0.12409563  0.74798771  1
  V  V79  1  0.74903661  0.12351113  0.87404300  1
  V  V80  1  0.25160456  0.49933045  0.75133595  1
  V  V81  1  0.37552691  0.12629088  0.24957577  1
  V  V82  1  0.24873332  0.12509617  0.87478754  1
  V  V83  1  0.87560813  0.50206128  0.37489286  1
  V  V84  1  0.37463675  0.62573623  0.24967653  1
  V  V85  1  0.37585023  0.24873165  0.62462371  1
  V  V86  1  0.12593215  0.62407947  0.50109355  1
  V  V87  1  0.50034784  0.50006216  0.49977336  1
  V  V88  1  0.75362955  0.25134852  -0.00039298  1
  V  V89  1  0.12530988  0.75029648  0.37565631  1
  V  V90  1  0.50039286  0.37645252  0.37533132  1
  V  V91  1  0.74985697  0.00135061  0.25003595  1
  V  V92  1  0.62523007  0.62379429  0.00038335  1
  V  V93  1  -0.00074695  0.75083145  0.25098967  1
  V  V94  1  0.25051185  0.37363311  0.62482766  1
  V  V95  1  0.37469641  0.75092903  0.12510718  1
  Zn  Zn96  1  0.75042188  0.37742029  0.62494216  1
  Zn  Zn97  1  0.87682882  0.25335369  0.12400639  1
  Zn  Zn98  1  0.49899958  0.00073429  0.00186567  1
  Zn  Zn99  1  0.25066505  0.62420909  0.87551865  1
  Zn  Zn100  1  0.37334010  0.62598595  0.75259526  1
  Zn  Zn101  1  0.12603725  0.62276169  -0.00122761  1
  Zn  Zn102  1  0.87400046  0.62674606  0.25036121  1
  Zn  Zn103  1  0.87625901  0.62623595  0.75234661  1
  Zn  Zn104  1  0.87494794  0.75075241  0.12600420  1
  Zn  Zn105  1  0.74938096  0.62658415  0.37525580  1
  Zn  Zn106  1  0.49967321  -0.00008493  0.49980853  1
  Zn  Zn107  1  -0.00018704  0.87585003  0.37458256  1
  Zn  Zn108  1  0.12423263  0.12582078  -0.00108472  1
  Zn  Zn109  1  -0.00223548  0.24861127  0.75061587  1
  Zn  Zn110  1  -0.00315456  0.87319741  0.87578681  1
  Zn  Zn111  1  0.37492849  0.50212745  0.37473352  1
  Zn  Zn112  1  0.49976881  0.12490787  0.12468729  1
  Zn  Zn113  1  0.00174121  0.37580305  0.37452127  1
  Zn  Zn114  1  0.62622966  0.50062574  0.62391075  1
  Zn  Zn115  1  0.87380071  0.87379367  0.00105878  1
  Zn  Zn116  1  0.87608304  0.37869691  0.00123747  1
  Zn  Zn117  1  0.12212196  0.24746220  0.87633978  1
  Zn  Zn118  1  0.49722187  0.74850473  0.75184953  1
  Zn  Zn119  1  0.87839807  0.50301847  0.87743157  1
  Zn  Zn120  1  0.75468403  0.37558811  0.12217171  1
  Zn  Zn121  1  0.12444036  0.87630063  0.25128266  1
  Zn  Zn122  1  0.50010216  0.62530286  0.12486224  1
  Zn  Zn123  1  -0.00040248  0.49971594  0.00042168  1
  Zn  Zn124  1  0.62538446  0.24848830  0.87437494  1
  Zn  Zn125  1  0.25222321  0.62330729  0.37614684  1
  Zn  Zn126  1  0.24944789  -0.00059863  0.74999194  1
  Zn  Zn127  1  -0.00304690  0.74698486  0.75332856  1
  Zn  Zn128  1  0.18706987  0.18687399  0.18629655  1
  Zn  Zn129  1  0.18807093  0.18672290  0.68757023  1
  Zn  Zn130  1  0.18745127  0.68720689  0.18816466  1
  Zn  Zn131  1  0.18722616  0.68561403  0.68958046  1
  Zn  Zn132  1  0.68890998  0.18925612  0.18412382  1
  Zn  Zn133  1  0.68805120  0.18804729  0.68593461  1
  Zn  Zn134  1  0.68637406  0.68637382  0.18711546  1
  Zn  Zn135  1  0.68623261  0.68733105  0.68810690  1
  Zn  Zn136  1  0.31313255  0.31364227  0.31291975  1
  Zn  Zn137  1  0.31317568  0.31137700  0.81283260  1
  Zn  Zn138  1  0.31143481  0.81249335  0.31232294  1
  Zn  Zn139  1  0.31081246  0.81151286  0.81197034  1
  Zn  Zn140  1  0.81444365  0.31547455  0.31247556  1
  Zn  Zn141  1  0.81308578  0.31117859  0.81353142  1
  Zn  Zn142  1  0.81276633  0.81399759  0.31324959  1
  Zn  Zn143  1  0.81182980  0.81138947  0.81369020  1
  Zn  Zn144  1  0.18965124  0.43734458  0.43589032  1
  Zn  Zn145  1  0.18546543  0.43748598  0.93776936  1
  Zn  Zn146  1  0.18775566  0.93594733  0.43785760  1
  Zn  Zn147  1  0.18649962  0.93781471  0.93778749  1
  Zn  Zn148  1  0.68780747  0.43893652  0.43693500  1
  Zn  Zn149  1  0.68764991  0.43699471  0.93484901  1
  Zn  Zn150  1  0.68766711  0.93836743  0.43723789  1
  Zn  Zn151  1  0.68660459  0.93674242  0.93818571  1
  Zn  Zn152  1  0.31280323  0.06305035  0.06183321  1
  Zn  Zn153  1  0.31175869  0.06013997  0.56297971  1
  Zn  Zn154  1  0.31182953  0.56504122  0.06197197  1
  Zn  Zn155  1  0.31322842  0.56110032  0.56320328  1
  Zn  Zn156  1  0.81294599  0.06324336  0.06335600  1
  Zn  Zn157  1  0.81088774  0.06307662  0.56174418  1
  Zn  Zn158  1  0.81720332  0.56287900  0.06174928  1
  Zn  Zn159  1  0.81150018  0.56368160  0.56387624  1
  Zn  Zn160  1  0.43860723  0.43897892  0.18715901  1
  Zn  Zn161  1  0.43788008  0.43835046  0.68730078  1
  Zn  Zn162  1  0.43764775  0.93891787  0.18662389  1
  Zn  Zn163  1  0.43783327  0.93739904  0.68897175  1
  Zn  Zn164  1  0.93791641  0.43589148  0.18571644  1
  Zn  Zn165  1  0.93645554  0.43769107  0.68859585  1
  Zn  Zn166  1  0.93670932  0.93668191  0.18760161  1
  Zn  Zn167  1  0.93765438  0.93645252  0.68692208  1
  Zn  Zn168  1  0.06216215  0.06381391  0.31211307  1
  Zn  Zn169  1  0.06135891  0.06049796  0.81151564  1
  Zn  Zn170  1  0.06403768  0.56404567  0.31177344  1
  Zn  Zn171  1  0.06284767  0.56129013  0.81233185  1
  Zn  Zn172  1  0.56126873  0.06355893  0.31249135  1
  Zn  Zn173  1  0.56157726  0.06007703  0.81326576  1
  Zn  Zn174  1  0.56162659  0.56405357  0.31263287  1
  Zn  Zn175  1  0.56299786  0.56142185  0.81290930  1
  Zn  Zn176  1  0.43897459  0.18779165  0.43665666  1
  Zn  Zn177  1  0.43722877  0.18827720  0.93664386  1
  Zn  Zn178  1  0.43712367  0.68760423  0.43678293  1
  Zn  Zn179  1  0.43693682  0.68634755  0.93834177  1
  Zn  Zn180  1  0.93828402  0.18844636  0.43640351  1
  Zn  Zn181  1  0.93747742  0.18648616  0.93407296  1
  Zn  Zn182  1  0.93802515  0.68661031  0.43953351  1
  Zn  Zn183  1  0.93601684  0.68819951  0.93973005  1
  Zn  Zn184  1  0.06470432  0.31105948  0.06149078  1
  Zn  Zn185  1  0.06077077  0.31191408  0.56163526  1
  Zn  Zn186  1  0.06346633  0.81448202  0.06375796  1
  Zn  Zn187  1  0.05994420  0.81157442  0.56305093  1
  Zn  Zn188  1  0.56537910  0.31275515  0.06316705  1
  Zn  Zn189  1  0.56329663  0.31264257  0.56352763  1
  Zn  Zn190  1  0.56237118  0.81291183  0.06211644  1
  Zn  Zn191  1  0.56044816  0.81182981  0.56243638  1
  O  O192  1  0.11863192  0.11779873  0.12299694  1
  O  O193  1  0.12027250  0.11948702  0.61961831  1
  O  O194  1  0.11666844  0.61961751  0.12552742  1
  O  O195  1  0.11978523  0.61798669  0.62020709  1
  O  O196  1  0.62497841  0.11987714  0.11535030  1
  O  O197  1  0.62028777  0.11966574  0.61939419  1
  O  O198  1  0.62286495  0.61748519  0.11816785  1
  O  O199  1  0.61394844  0.62586719  0.61860598  1
  O  O200  1  0.38278173  0.37526185  0.38196167  1
  O  O201  1  0.38021485  0.37941597  0.88101206  1
  O  O202  1  0.37906034  0.87995912  0.38023668  1
  O  O203  1  0.37851271  0.87949165  0.87976018  1
  O  O204  1  0.87727607  0.38715667  0.38127609  1
  O  O205  1  0.88819879  0.37560949  0.87341538  1
  O  O206  1  0.87556677  0.88338791  0.38245094  1
  O  O207  1  0.87670584  0.88281119  0.87740345  1
  O  O208  1  0.25481086  0.00514352  0.37045731  1
  O  O209  1  0.25576616  0.00975072  0.87421675  1
  O  O210  1  0.25323161  0.50235941  0.36663483  1
  O  O211  1  0.25578756  0.49860678  0.86913897  1
  O  O212  1  0.75477691  0.00712004  0.36940312  1
  O  O213  1  0.75420323  0.00391835  0.86868566  1
  O  O214  1  0.75822952  0.50170789  0.36684820  1
  O  O215  1  0.74899040  0.50657415  0.86549427  1
  O  O216  1  0.24572251  0.49425478  0.13019084  1
  O  O217  1  0.24481019  0.49180016  0.62967197  1
  O  O218  1  0.24524928  0.99646904  0.13013227  1
  O  O219  1  0.24191889  0.99261840  0.62590918  1
  O  O220  1  0.74573721  0.50001184  0.13484480  1
  O  O221  1  0.74648715  0.49896794  0.63665621  1
  O  O222  1  0.74394237  0.99576786  0.13169962  1
  O  O223  1  0.74420599  0.99422243  0.62982238  1
  O  O224  1  0.00867051  0.36883614  0.25171469  1
  O  O225  1  0.00952457  0.37406904  0.75592882  1
  O  O226  1  0.00286998  0.86417893  0.25270264  1
  O  O227  1  0.01227956  0.87253391  0.75021923  1
  O  O228  1  0.50642857  0.37034676  0.25526939  1
  O  O229  1  0.50714532  0.37025277  0.75383362  1
  O  O230  1  0.50500811  0.87048235  0.25566424  1
  O  O231  1  0.50649181  0.87261053  0.75682898  1
  O  O232  1  0.49341740  0.13337487  0.24961381  1
  O  O233  1  0.49551131  0.12972762  0.74446175  1
  O  O234  1  0.49352246  0.63286406  0.24782934  1
  O  O235  1  0.49911227  0.62497801  0.73824868  1
  O  O236  1  0.99484375  0.13083237  0.24504398  1
  O  O237  1  0.99286970  0.12453393  0.74233499  1
  O  O238  1  1.00072438  0.63513638  0.24261554  1
  O  O239  1  0.99809940  0.62534878  0.74146349  1
  O  O240  1  0.37053516  0.25621367  0.00553019  1
  O  O241  1  0.37018525  0.25448720  0.50531415  1
  O  O242  1  0.36903162  0.75652211  0.00526052  1
  O  O243  1  0.36894090  0.75554463  0.50552689  1
  O  O244  1  0.86268027  0.24726578  -0.00072086  1
  O  O245  1  0.86966502  0.25544035  0.50315227  1
  O  O246  1  0.86554726  0.75358066  0.00425167  1
  O  O247  1  0.86881869  0.75562316  0.50487430  1
  O  O248  1  0.13109713  0.24403100  0.49540780  1
  O  O249  1  0.13507052  0.24578765  0.99686387  1
  O  O250  1  0.12880456  0.74456837  0.49413785  1
  O  O251  1  0.13061988  0.75354006  0.99043408  1
  O  O252  1  0.63007645  0.24535498  0.49421862  1
  O  O253  1  0.63345336  0.24045930  0.99815485  1
  O  O254  1  0.62940249  0.74653017  0.49450863  1
  O  O255  1  0.62974000  0.74396623  0.99499313  1
  O  O256  1  0.49395178  0.25000030  0.13164170  1
  O  O257  1  0.49489339  0.24356126  0.63024927  1
  O  O258  1  0.49303821  0.75078029  0.13196611  1
  O  O259  1  0.49358064  0.74028700  0.62521692  1
  O  O260  1  1.00106417  0.24259525  0.13147788  1
  O  O261  1  0.99262295  0.24222081  0.62496349  1
  O  O262  1  1.00279196  0.74369381  0.13541319  1
  O  O263  1  0.99310102  0.74250762  0.62565055  1
  O  O264  1  0.00824329  0.25101560  0.36852668  1
  O  O265  1  0.00293377  0.25732150  0.87016030  1
  O  O266  1  0.00849702  0.74915015  0.36876355  1
  O  O267  1  0.01063306  0.75315541  0.87513653  1
  O  O268  1  0.50660042  0.25609561  0.36920196  1
  O  O269  1  0.50105130  0.25647052  0.86731735  1
  O  O270  1  0.50470642  0.75746958  0.36925431  1
  O  O271  1  0.50603950  0.75595668  0.87459161  1
  O  O272  1  0.24474627  0.12979108  0.49520250  1
  O  O273  1  0.25099411  0.13019726  0.98936262  1
  O  O274  1  0.24348029  0.63096766  0.50058016  1
  O  O275  1  0.24615837  0.63515635  0.99790005  1
  O  O276  1  0.74456145  0.13152228  0.49309613  1
  O  O277  1  0.74183640  0.13042281  0.99465124  1
  O  O278  1  0.74203085  0.63218822  0.49958274  1
  O  O279  1  0.74369601  0.63013890  0.99568933  1
  O  O280  1  0.25621823  0.36963314  0.00531707  1
  O  O281  1  0.25539383  0.36832508  0.50581491  1
  O  O282  1  0.25570002  0.87088128  0.00593443  1
  O  O283  1  0.25502372  0.86829979  0.50610458  1
  O  O284  1  0.75000344  0.36236973  -0.00337077  1
  O  O285  1  0.75560006  0.36964602  0.50156439  1
  O  O286  1  0.74782077  0.86880000  0.00813652  1
  O  O287  1  0.75436154  0.87025890  0.50581613  1
  O  O288  1  0.13163995  0.49479129  0.24495565  1
  O  O289  1  0.13095439  0.48861120  0.74397240  1
  O  O290  1  0.13164069  0.99964816  0.24485859  1
  O  O291  1  0.12577325  0.98976222  0.74359647  1
  O  O292  1  0.63270946  0.49598922  0.24639136  1
  O  O293  1  0.63251462  0.49053589  0.74924962  1
  O  O294  1  0.63065488  0.99597614  0.24632470  1
  O  O295  1  0.63030869  0.99391276  0.74398461  1
  O  O296  1  0.36916257  0.00615218  0.25565388  1
  O  O297  1  0.37211832  0.00614156  0.75612044  1
  O  O298  1  0.36993975  0.50748815  0.24946123  1
  O  O299  1  0.36842296  0.49790001  0.75678698  1
  O  O300  1  0.86947993  0.00687871  0.25591772  1
  O  O301  1  0.86843785  0.00409924  0.75347522  1
  O  O302  1  0.86798743  0.49980009  0.25898660  1
  O  O303  1  0.86216618  0.50110406  0.75277945  1
  O  O304  1  0.12548120  0.36772309  0.36855111  1
  O  O305  1  0.11904584  0.37247849  0.86455525  1
  O  O306  1  0.12261091  0.86235581  0.37562535  1
  O  O307  1  0.12426838  0.86800157  0.86605308  1
  O  O308  1  0.62005117  0.36964824  0.36934497  1
  O  O309  1  0.61826819  0.37301663  0.86346342  1
  O  O310  1  0.61935386  0.87130982  0.36978393  1
  O  O311  1  0.61943022  0.87004582  0.87003574  1
  O  O312  1  0.37576486  0.13231467  0.13156282  1
  O  O313  1  0.37983089  0.12921050  0.62936335  1
  O  O314  1  0.37727129  0.63351275  0.13128326  1
  O  O315  1  0.38472294  0.62999888  0.62478108  1
  O  O316  1  0.88168462  0.12683533  0.13277538  1
  O  O317  1  0.87937563  0.12903260  0.62860765  1
  O  O318  1  0.88798862  0.62802651  0.12978661  1
  O  O319  1  0.88118082  0.63163955  0.62568399  1
  O  O320  1  0.25608800  0.25575784  0.12008862  1
  O  O321  1  0.25629097  0.25358938  0.61924499  1
  O  O322  1  0.25438055  0.75718344  0.12068431  1
  O  O323  1  0.25384746  0.75452499  0.61958042  1
  O  O324  1  0.75247951  0.25200935  0.11275650  1
  O  O325  1  0.75654055  0.25111952  0.61704650  1
  O  O326  1  0.74902093  0.75638078  0.12079697  1
  O  O327  1  0.75383011  0.75572541  0.61922589  1
  O  O328  1  0.24564060  0.24394932  0.38060342  1
  O  O329  1  0.25153295  0.23971975  0.87962081  1
  O  O330  1  0.24062465  0.74924930  0.38137869  1
  O  O331  1  0.24008157  0.75038687  0.88129796  1
  O  O332  1  0.74502166  0.24620209  0.37957331  1
  O  O333  1  0.74770872  0.24110914  0.88209456  1
  O  O334  1  0.74307290  0.74978902  0.38132142  1
  O  O335  1  0.74260508  0.74497468  0.88156015  1
  O  O336  1  0.00021953  0.11447362  0.00471020  1
  O  O337  1  0.00561434  0.11943494  0.50495245  1
  O  O338  1  0.00418535  0.62668876  0.01371576  1
  O  O339  1  0.00665989  0.61816856  0.50684843  1
  O  O340  1  0.51206573  0.12540169  0.00046634  1
  O  O341  1  0.50686341  0.12426439  0.50593268  1
  O  O342  1  0.50728384  0.61728160  0.00116320  1
  O  O343  1  0.50414659  0.62076696  0.50769442  1
  O  O344  1  0.49610541  0.37933613  0.49563285  1
  O  O345  1  0.49581128  0.37930615  0.99414431  1
  O  O346  1  0.49269105  0.87638590  0.49322268  1
  O  O347  1  0.49308271  0.87667432  0.99324845  1
  O  O348  1  0.99372038  0.38193940  0.49771611  1
  O  O349  1  1.00190345  0.37352469  0.98749427  1
  O  O350  1  0.99239048  0.88206012  0.49944428  1
  O  O351  1  0.99761616  0.88881793  1.00089155  1
  O  O352  1  0.49918281  0.49323167  0.38144224  1
  O  O353  1  0.49471737  0.49320619  0.88052830  1
  O  O354  1  0.49267108  0.99410667  0.37576673  1
  O  O355  1  0.49285853  0.99272788  0.87738594  1
  O  O356  1  0.99217777  0.50035849  0.38055485  1
  O  O357  1  1.00163764  0.48812920  0.87621344  1
  O  O358  1  0.99346821  1.00017571  0.38134367  1
  O  O359  1  0.99408986  0.99965188  0.88418672  1
  O  O360  1  0.00414881  0.00536479  0.11866653  1
  O  O361  1  0.00477897  0.00576835  0.61847174  1
  O  O362  1  0.00739438  0.51034135  0.12811514  1
  O  O363  1  0.00536182  0.50411519  0.61942459  1
  O  O364  1  0.50804040  0.00388392  0.12281680  1
  O  O365  1  0.50664818  0.00628671  0.62359254  1
  O  O366  1  0.50797369  0.50025810  0.11746562  1
  O  O367  1  0.50071107  0.50945498  0.61890555  1
  O  O368  1  0.24599985  0.37979349  0.24360574  1
  O  O369  1  0.24265177  0.37793021  0.74453189  1
  O  O370  1  0.24917058  0.88268906  0.24379121  1
  O  O371  1  0.23823314  0.87575406  0.74378819  1
  O  O372  1  0.74466048  0.38621549  0.25053387  1
  O  O373  1  0.74147515  0.38247136  0.75112132  1
  O  O374  1  0.74340920  0.88190125  0.24635197  1
  O  O375  1  0.74332965  0.88005459  0.74394244  1
  O  O376  1  0.25597043  0.12040120  0.25600537  1
  O  O377  1  0.25652302  0.12429217  0.75836478  1
  O  O378  1  0.25751111  0.61934158  0.25061900  1
  O  O379  1  0.25153688  0.61371020  0.75175423  1
  O  O380  1  0.75455279  0.12136337  0.25503354  1
  O  O381  1  0.75354601  0.11782422  0.75372716  1
  O  O382  1  0.75112487  0.61327406  0.25287567  1
  O  O383  1  0.74727284  0.61571341  0.75628419  1
  O  O384  1  0.36937724  0.12049733  0.37015749  1
  O  O385  1  0.36804062  0.12026909  0.86959991  1
  O  O386  1  0.37277622  0.62421308  0.36572103  1
  O  O387  1  0.37285847  0.61591757  0.87312365  1
  O  O388  1  0.86889531  0.12057476  0.36974595  1
  O  O389  1  0.86855124  0.11723574  0.86701920  1
  O  O390  1  0.87317274  0.61247865  0.37519311  1
  O  O391  1  0.86610681  0.62482440  0.87224195  1
  O  O392  1  0.13180692  0.38011557  0.13103721  1
  O  O393  1  0.12987392  0.37858475  0.63157642  1
  O  O394  1  0.13256496  0.88310063  0.12762084  1
  O  O395  1  0.12890971  0.87805949  0.63156893  1
  O  O396  1  0.62945262  0.38208084  0.13174284  1
  O  O397  1  0.62593074  0.37679775  0.63780854  1
  O  O398  1  0.62988375  0.88112410  0.13190721  1
  O  O399  1  0.62948872  0.87944328  0.62947708  1
  O  O400  1  0.12147110  0.25476937  0.25526689  1
  O  O401  1  0.12396556  0.26217403  0.74870167  1
  O  O402  1  0.11780529  0.75068491  0.26017888  1
  O  O403  1  0.12462350  0.75803264  0.75831432  1
  O  O404  1  0.62150005  0.25554504  0.25494011  1
  O  O405  1  0.62004994  0.25815357  0.75038053  1
  O  O406  1  0.61972444  0.75631678  0.25558665  1
  O  O407  1  0.62345581  0.75656991  0.75750755  1
  O  O408  1  0.38025113  0.24578035  0.24522767  1
  O  O409  1  0.38107698  0.24449110  0.74339822  1
  O  O410  1  0.37944381  0.74610843  0.24454376  1
  O  O411  1  0.37629534  0.74697224  0.74174836  1
  O  O412  1  0.88207842  0.24445790  0.25090841  1
  O  O413  1  0.87397432  0.24140145  0.74206640  1
  O  O414  1  0.88676987  0.74780997  0.25182179  1
  O  O415  1  0.87592200  0.74869362  0.74134768  1
  O  O416  1  0.38156328  0.49210199  0.49881976  1
  O  O417  1  0.38028970  0.49364745  0.99592106  1
  O  O418  1  0.37536785  0.99300662  0.49324855  1
  O  O419  1  0.37630583  0.99352358  0.99375314  1
  O  O420  1  0.87894754  0.49599687  0.49327690  1
  O  O421  1  0.88086562  0.49664278  0.99482208  1
  O  O422  1  0.87885884  0.99595498  0.49503982  1
  O  O423  1  0.88276529  1.00009698  0.99420326  1
  O  O424  1  0.11527484  0.00204315  0.00541456  1
  O  O425  1  0.11976418  0.00493007  0.50459331  1
  O  O426  1  0.12237803  0.50176435  0.00982583  1
  O  O427  1  0.12090283  0.50348006  0.50528744  1
  O  O428  1  0.62557802  0.01042167  0.00578248  1
  O  O429  1  0.62434812  0.00722926  0.50587579  1
  O  O430  1  0.62097272  0.50381137  0.00422010  1
  O  O431  1  0.61865363  0.50645709  0.50183553  1
  O  O432  1  0.36990644  0.36992393  0.11955588  1
  O  O433  1  0.37071730  0.36790826  0.61974659  1
  O  O434  1  0.36908440  0.87095806  0.11968855  1
  O  O435  1  0.36950682  0.86993070  0.62040995  1
  O  O436  1  0.87249055  0.37052719  0.11984010  1
  O  O437  1  0.87355401  0.36830397  0.61871479  1
  O  O438  1  0.86470176  0.87316527  0.12462500  1
  O  O439  1  0.86813459  0.87038420  0.61921229  1
  O  O440  1  0.13151050  0.13007559  0.38095081  1
  O  O441  1  0.13720168  0.12517364  0.87329041  1
  O  O442  1  0.12670647  0.63524928  0.38208992  1
  O  O443  1  0.12632088  0.63713382  0.87566963  1
  O  O444  1  0.63063132  0.13149886  0.37917653  1
  O  O445  1  0.63045535  0.12395244  0.88343209  1
  O  O446  1  0.62449445  0.63368614  0.38213091  1
  O  O447  1  0.62986198  0.63002316  0.88108535  1
