# generated using pymatgen
data_V3Zn3O8
_symmetry_space_group_name_H-M   'P 1'
_cell_length_a   17.08868770
_cell_length_b   17.08867627
_cell_length_c   17.08911788
_cell_angle_alpha   89.99601058
_cell_angle_beta   90.00080011
_cell_angle_gamma   90.00280751
_symmetry_Int_Tables_number   1
_chemical_formula_structural   V3Zn3O8
_chemical_formula_sum   'V96 Zn96 O256'
_cell_volume   4990.41633964
_cell_formula_units_Z   32
loop_
 _symmetry_equiv_pos_site_id
 _symmetry_equiv_pos_as_xyz
  1  'x, y, z'
loop_
 _atom_site_type_symbol
 _atom_site_label
 _atom_site_symmetry_multiplicity
 _atom_site_fract_x
 _atom_site_fract_y
 _atom_site_fract_z
 _atom_site_occupancy
  V  V0  1  -0.00076787  0.87498196  0.37603192  1
  V  V1  1  0.62438413  0.49948234  0.12382167  1
  V  V2  1  0.74963663  0.74997093  0.00031065  1
  V  V3  1  0.74938906  0.87430206  0.62557450  1
  V  V4  1  0.00034013  0.12481987  0.62472767  1
  V  V5  1  0.12518284  0.62624100  -0.00102891  1
  V  V6  1  0.62468002  0.25252466  0.87315420  1
  V  V7  1  0.49829875  0.75055957  0.75029569  1
  V  V8  1  0.24970890  0.12515079  0.37449091  1
  V  V9  1  -0.00137532  0.62581003  0.12544621  1
  V  V10  1  0.12494210  0.50006824  0.12402035  1
  V  V11  1  0.37413142  0.37526550  0.49891402  1
  V  V12  1  0.75128257  0.24989974  0.00021992  1
  V  V13  1  0.24934591  0.87669051  0.62605881  1
  V  V14  1  0.37618776  0.00180225  0.87543290  1
  V  V15  1  0.87533710  0.37386930  0.49876003  1
  V  V16  1  0.49966800  0.12671696  0.62552182  1
  V  V17  1  0.12435162  0.37479233  0.24941223  1
  V  V18  1  -0.00021115  0.37484143  0.87494145  1
  V  V19  1  0.25158608  0.25147914  -0.00072916  1
  V  V20  1  0.00077876  0.24995464  0.75037504  1
  V  V21  1  0.37405074  0.49971123  0.37564114  1
  V  V22  1  0.12639638  0.12465090  0.00046059  1
  V  V23  1  0.62481682  -0.00074628  0.12535049  1
  V  V24  1  0.49998972  0.12550819  0.12562560  1
  V  V25  1  0.24887208  0.75046009  0.49978279  1
  V  V26  1  0.24988024  0.25040836  0.49961303  1
  V  V27  1  0.37506659  0.25073503  0.62631282  1
  V  V28  1  0.24989033  0.50089758  0.25016746  1
  V  V29  1  0.37441129  0.75106531  0.62539125  1
  V  V30  1  0.37593250  0.74935711  0.12661827  1
  V  V31  1  0.49982497  0.74895136  0.25051590  1
  V  V32  1  0.75011569  0.12500920  0.87644543  1
  V  V33  1  0.87547379  -0.00131653  0.87592137  1
  V  V34  1  0.74931616  0.62287010  0.87490838  1
  V  V35  1  0.50080747  0.62469517  0.12525561  1
  V  V36  1  0.25175416  0.12547247  0.87486571  1
  V  V37  1  0.87440597  0.49894076  0.37410798  1
  V  V38  1  0.37514826  0.12570387  0.24966864  1
  V  V39  1  0.12665134  0.00057181  0.12515650  1
  V  V40  1  0.24888141  0.50113890  0.74941502  1
  V  V41  1  0.87503238  0.87520108  0.50048835  1
  V  V42  1  0.25108318  0.87402467  0.12635129  1
  V  V43  1  0.12523235  0.25025654  0.87409049  1
  V  V44  1  0.62594414  0.24865445  0.37443522  1
  V  V45  1  0.62415580  0.74964532  0.87525540  1
  V  V46  1  0.74979907  0.49992773  0.25026898  1
  V  V47  1  -0.00022020  -0.00072303  0.50010628  1
  V  V48  1  0.62466980  0.37437262  0.25012770  1
  V  V49  1  0.49934996  0.62314999  0.62460304  1
  V  V50  1  0.87491603  0.12422489  0.25065912  1
  V  V51  1  -0.00123143  0.74928813  0.24945901  1
  V  V52  1  0.12371735  0.49931603  0.62400993  1
  V  V53  1  0.12470487  0.25093861  0.37370867  1
  V  V54  1  0.62464835  0.00081209  0.62534038  1
  V  V55  1  0.87457467  0.74919177  0.62562529  1
  V  V56  1  0.49984401  0.50028516  -0.00057289  1
  V  V57  1  0.50038807  0.00005079  0.50078338  1
  V  V58  1  0.24924948  0.62528602  0.37511345  1
  V  V59  1  0.75006969  0.62335234  0.37545780  1
  V  V60  1  0.00047076  0.12471732  0.12449967  1
  V  V61  1  0.25027539  -0.00049598  0.25055920  1
  V  V62  1  0.87353903  0.62453660  0.75039966  1
  V  V63  1  0.87578752  0.12372114  0.75024081  1
  V  V64  1  -0.00078400  0.62511253  0.62413713  1
  V  V65  1  0.12457005  0.12532774  0.49927787  1
  V  V66  1  0.49968327  0.87614744  0.87591098  1
  V  V67  1  0.25084816  0.00138288  0.75035921  1
  V  V68  1  0.12482230  0.74947598  0.37586565  1
  V  V69  1  0.37476337  0.37637285  -0.00066154  1
  V  V70  1  -0.00042392  0.37525681  0.37336524  1
  V  V71  1  0.75002190  0.87353939  0.12552134  1
  V  V72  1  0.87734764  0.87516715  0.00004362  1
  V  V73  1  0.87555583  0.24962359  0.62396320  1
  V  V74  1  0.12433714  0.87500178  0.25069513  1
  V  V75  1  0.87597576  0.37459301  0.00012660  1
  V  V76  1  0.62575919  0.87443535  0.25108807  1
  V  V77  1  0.24986286  0.74948459  -0.00105525  1
  V  V78  1  0.62645544  0.12473708  0.49894983  1
  V  V79  1  0.75071637  -0.00038111  0.25093577  1
  V  V80  1  0.74930468  0.74948219  0.50061804  1
  V  V81  1  0.74877186  0.37473832  0.62605952  1
  V  V82  1  -0.00007668  0.50002725  -0.00127961  1
  V  V83  1  0.37461293  0.87599158  0.50046585  1
  V  V84  1  0.37524859  0.00064167  0.37560134  1
  V  V85  1  0.12642137  -0.00021450  0.62612170  1
  V  V86  1  0.25036485  0.37571831  0.12346717  1
  V  V87  1  0.50078563  -0.00096776  0.00005767  1
  V  V88  1  0.50016062  0.87442395  0.37588440  1
  V  V89  1  0.75009408  -0.00033002  0.75074693  1
  V  V90  1  0.62473583  0.74902278  0.37617625  1
  V  V91  1  0.62464223  0.87581017  0.75058942  1
  V  V92  1  0.75065272  0.37441488  0.12411698  1
  V  V93  1  0.62401367  0.62365924  0.50175863  1
  V  V94  1  0.37440089  0.50210998  0.87398843  1
  V  V95  1  0.49954060  0.37580846  0.37450561  1
  Zn  Zn96  1  0.87531396  0.24987534  0.12507655  1
  Zn  Zn97  1  0.24729234  0.62844520  0.87225858  1
  Zn  Zn98  1  0.75177838  0.12349574  0.37626674  1
  Zn  Zn99  1  0.00257726  0.87444104  0.87139140  1
  Zn  Zn100  1  0.50190443  0.37615004  0.87173701  1
  Zn  Zn101  1  0.00522267  0.75182389  0.75304329  1
  Zn  Zn102  1  0.87390546  0.62592442  0.24897488  1
  Zn  Zn103  1  0.37722465  0.12741495  0.75150336  1
  Zn  Zn104  1  0.12416801  0.87341283  0.75378650  1
  Zn  Zn105  1  0.62512853  0.62451467  -0.00044626  1
  Zn  Zn106  1  0.87465786  0.49866787  0.87374887  1
  Zn  Zn107  1  0.00030190  0.50008222  0.49788721  1
  Zn  Zn108  1  0.24802952  0.37534237  0.62399017  1
  Zn  Zn109  1  0.75122507  0.24749963  0.49933676  1
  Zn  Zn110  1  0.37647128  0.25191034  0.12501921  1
  Zn  Zn111  1  0.87386631  0.74846517  0.12654813  1
  Zn  Zn112  1  0.12336043  0.62502298  0.49914778  1
  Zn  Zn113  1  0.49827087  0.25125650  0.24800457  1
  Zn  Zn114  1  0.50036728  0.25193594  0.75133726  1
  Zn  Zn115  1  0.12243292  0.75286602  0.87396172  1
  Zn  Zn116  1  0.62392387  0.49672996  0.62573501  1
  Zn  Zn117  1  0.00356340  -0.00225175  -0.00303217  1
  Zn  Zn118  1  0.37555921  0.87482942  0.00111591  1
  Zn  Zn119  1  0.37406036  0.62632084  0.75007596  1
  Zn  Zn120  1  0.62192160  0.37710963  0.74796332  1
  Zn  Zn121  1  0.37533417  0.62415577  0.25117658  1
  Zn  Zn122  1  0.12343910  0.37488822  0.74905512  1
  Zn  Zn123  1  0.87386525  0.00005383  0.37638088  1
  Zn  Zn124  1  0.62629050  0.12539892  0.00077368  1
  Zn  Zn125  1  -0.00068809  0.25038901  0.24886281  1
  Zn  Zn126  1  0.74676508  0.49798656  0.74973326  1
  Zn  Zn127  1  0.49996170  0.49898603  0.50055750  1
  Zn  Zn128  1  0.18898278  0.18933222  0.18684308  1
  Zn  Zn129  1  0.18874092  0.18656486  0.68832283  1
  Zn  Zn130  1  0.18635701  0.68683841  0.18733598  1
  Zn  Zn131  1  0.18653440  0.68774416  0.68787175  1
  Zn  Zn132  1  0.68793928  0.18773320  0.18782650  1
  Zn  Zn133  1  0.68877072  0.18873559  0.68828856  1
  Zn  Zn134  1  0.68678991  0.68626224  0.18761591  1
  Zn  Zn135  1  0.68540957  0.68728248  0.68900079  1
  Zn  Zn136  1  0.31240316  0.31247752  0.31051404  1
  Zn  Zn137  1  0.31102432  0.31656236  0.81104354  1
  Zn  Zn138  1  0.31310964  0.81162870  0.31275747  1
  Zn  Zn139  1  0.31279689  0.81614702  0.81273945  1
  Zn  Zn140  1  0.81221725  0.31075237  0.31080665  1
  Zn  Zn141  1  0.81325581  0.31147763  0.81208865  1
  Zn  Zn142  1  0.81383284  0.81131228  0.31335678  1
  Zn  Zn143  1  0.81388882  0.81063593  0.81385281  1
  Zn  Zn144  1  0.18709409  0.43780879  0.43798142  1
  Zn  Zn145  1  0.18658809  0.43820689  0.93588138  1
  Zn  Zn146  1  0.18648364  0.93725260  0.43829633  1
  Zn  Zn147  1  0.18867226  0.93641046  0.93727412  1
  Zn  Zn148  1  0.68706305  0.43690645  0.44106058  1
  Zn  Zn149  1  0.68773612  0.43702401  0.93852569  1
  Zn  Zn150  1  0.68862208  0.93824214  0.43696407  1
  Zn  Zn151  1  0.68772351  0.93729623  0.93886479  1
  Zn  Zn152  1  0.31440477  0.06241621  0.06157692  1
  Zn  Zn153  1  0.31273310  0.06456613  0.56260667  1
  Zn  Zn154  1  0.31366203  0.56459407  0.06303478  1
  Zn  Zn155  1  0.31196793  0.56370994  0.56134504  1
  Zn  Zn156  1  0.81256355  0.06106457  0.06301233  1
  Zn  Zn157  1  0.81189278  0.06234767  0.56225623  1
  Zn  Zn158  1  0.81423036  0.56164586  0.06192837  1
  Zn  Zn159  1  0.81218548  0.55871764  0.56105027  1
  Zn  Zn160  1  0.43705332  0.43806512  0.18824531  1
  Zn  Zn161  1  0.43736949  0.43489733  0.68961491  1
  Zn  Zn162  1  0.43749002  0.93677161  0.18801934  1
  Zn  Zn163  1  0.43633475  0.93900180  0.68933107  1
  Zn  Zn164  1  0.93666799  0.43860957  0.18713406  1
  Zn  Zn165  1  0.93571353  0.43762861  0.68807243  1
  Zn  Zn166  1  0.93744027  0.93828457  0.18642979  1
  Zn  Zn167  1  0.93911208  0.93638756  0.68824580  1
  Zn  Zn168  1  0.06144217  0.06170327  0.31250977  1
  Zn  Zn169  1  0.06295594  0.06016663  0.81341344  1
  Zn  Zn170  1  0.06196810  0.56261583  0.31135387  1
  Zn  Zn171  1  0.06261883  0.56500867  0.81337082  1
  Zn  Zn172  1  0.56260949  0.06247675  0.31176578  1
  Zn  Zn173  1  0.56231574  0.06652577  0.81228124  1
  Zn  Zn174  1  0.56197613  0.56149935  0.31273237  1
  Zn  Zn175  1  0.56353962  0.56048050  0.80871985  1
  Zn  Zn176  1  0.43922433  0.18872629  0.43803378  1
  Zn  Zn177  1  0.43913330  0.18805934  0.93958593  1
  Zn  Zn178  1  0.43533935  0.68637515  0.43870929  1
  Zn  Zn179  1  0.43640068  0.68609684  0.93893846  1
  Zn  Zn180  1  0.93876203  0.18884388  0.43612116  1
  Zn  Zn181  1  0.93790659  0.18725222  0.93821420  1
  Zn  Zn182  1  0.93602630  0.68703636  0.43724712  1
  Zn  Zn183  1  0.93852520  0.68998877  0.93703571  1
  Zn  Zn184  1  0.06330066  0.31136860  0.06145662  1
  Zn  Zn185  1  0.06110069  0.31377045  0.56100938  1
  Zn  Zn186  1  0.06284361  0.81143394  0.06326700  1
  Zn  Zn187  1  0.06289645  0.81223439  0.56485570  1
  Zn  Zn188  1  0.56250278  0.31278019  0.05890297  1
  Zn  Zn189  1  0.56155778  0.31178805  0.55955395  1
  Zn  Zn190  1  0.56317887  0.81183243  0.06212479  1
  Zn  Zn191  1  0.56209567  0.81163352  0.56329154  1
  O  O192  1  0.11946204  0.12022428  0.12140373  1
  O  O193  1  0.11983081  0.12050594  0.61826593  1
  O  O194  1  0.11894494  0.61870542  0.11927247  1
  O  O195  1  0.11480167  0.61681694  0.62425788  1
  O  O196  1  0.61587298  0.11791767  0.12596456  1
  O  O197  1  0.62057108  0.11981548  0.61971897  1
  O  O198  1  0.61899816  0.61725737  0.12321483  1
  O  O199  1  0.61393228  0.62780907  0.61976170  1
  O  O200  1  0.37911598  0.37952227  0.37931412  1
  O  O201  1  0.37385460  0.38761735  0.88060101  1
  O  O202  1  0.38045070  0.88095559  0.38062467  1
  O  O203  1  0.38317376  0.88345327  0.87727856  1
  O  O204  1  0.87938662  0.37854325  0.37824403  1
  O  O205  1  0.88163926  0.37560769  0.88166186  1
  O  O206  1  0.88170862  0.87555176  0.38311361  1
  O  O207  1  0.87192077  0.88059747  0.88574458  1
  O  O208  1  0.25519017  0.00516878  0.37041559  1
  O  O209  1  0.25671672  0.00651888  0.87107259  1
  O  O210  1  0.25363883  0.50524650  0.36962812  1
  O  O211  1  0.25668878  0.50166554  0.86681932  1
  O  O212  1  0.75243217  0.00203572  0.36662093  1
  O  O213  1  0.75438735  0.00496827  0.86937032  1
  O  O214  1  0.75384007  0.50376141  0.36994434  1
  O  O215  1  0.75166221  0.51218969  0.87446235  1
  O  O216  1  0.24423915  0.49544079  0.12943736  1
  O  O217  1  0.24104035  0.50115538  0.63175430  1
  O  O218  1  0.24648769  0.99489116  0.13160340  1
  O  O219  1  0.24627656  0.99688706  0.62909787  1
  O  O220  1  0.74417806  0.49435800  0.12942938  1
  O  O221  1  0.74969672  0.48688035  0.62519925  1
  O  O222  1  0.74384350  0.99335629  0.13112336  1
  O  O223  1  0.74411000  0.99397676  0.63106742  1
  O  O224  1  0.00683075  0.37334848  0.25437930  1
  O  O225  1  -0.00077148  0.36754909  0.75649051  1
  O  O226  1  0.00549540  0.87072563  0.25527824  1
  O  O227  1  0.00356081  0.87083307  0.75068280  1
  O  O228  1  0.50706897  0.37374154  0.25587612  1
  O  O229  1  0.50329124  0.36920301  0.75400849  1
  O  O230  1  0.50617775  0.86972371  0.25676160  1
  O  O231  1  0.50575136  0.87074394  0.75547295  1
  O  O232  1  0.49399138  0.12393003  0.24050986  1
  O  O233  1  0.49723852  0.13027881  0.74088514  1
  O  O234  1  0.49980685  0.63194603  0.24411059  1
  O  O235  1  0.49829330  0.63251502  0.74014179  1
  O  O236  1  0.99281797  0.12408646  0.24125676  1
  O  O237  1  0.99499676  0.12948614  0.74413721  1
  O  O238  1  0.99940236  0.63153768  0.24326401  1
  O  O239  1  0.99000283  0.62534960  0.74028094  1
  O  O240  1  0.36847943  0.25822428  0.00031982  1
  O  O241  1  0.36915970  0.25444177  0.50617956  1
  O  O242  1  0.36642367  0.75058875  0.00806313  1
  O  O243  1  0.36921136  0.75775639  0.50482134  1
  O  O244  1  0.86913284  0.25619555  0.00201877  1
  O  O245  1  0.87481479  0.25533273  0.50608664  1
  O  O246  1  0.86745379  0.76010864  0.00186864  1
  O  O247  1  0.86807318  0.75528254  0.50585581  1
  O  O248  1  0.12973486  0.24452658  0.49418010  1
  O  O249  1  0.13187272  0.24427929  0.99369891  1
  O  O250  1  0.13145533  0.74965470  0.49358979  1
  O  O251  1  0.13638958  0.74436068  1.00345693  1
  O  O252  1  0.62522195  0.24309011  0.48923394  1
  O  O253  1  0.63289205  0.24858510  0.99053253  1
  O  O254  1  0.63023048  0.74522774  0.49507226  1
  O  O255  1  0.63159408  0.74860400  0.99243561  1
  O  O256  1  0.49953653  0.23811841  0.12509662  1
  O  O257  1  0.48931826  0.24460931  0.62225261  1
  O  O258  1  0.49655850  0.74540615  0.13097604  1
  O  O259  1  0.49430872  0.74422066  0.63018164  1
  O  O260  1  1.00061757  0.23614848  0.12637975  1
  O  O261  1  0.99565273  0.24386892  0.62992861  1
  O  O262  1  0.99966300  0.74339379  0.13216306  1
  O  O263  1  0.99312013  0.73926582  0.62496137  1
  O  O264  1  0.00797318  0.25671252  0.37172805  1
  O  O265  1  0.00579130  0.25390684  0.86991211  1
  O  O266  1  0.00527686  0.75540512  0.37081109  1
  O  O267  1  0.00243746  0.75462214  0.87211723  1
  O  O268  1  0.51025058  0.25563681  0.37298570  1
  O  O269  1  0.51218716  0.25088339  0.87636936  1
  O  O270  1  0.50489145  0.75510187  0.37135793  1
  O  O271  1  0.50372869  0.75506422  0.87027170  1
  O  O272  1  0.24396747  0.12990604  0.49314769  1
  O  O273  1  0.24567399  0.13118113  0.99519141  1
  O  O274  1  0.24785623  0.63350290  0.49342036  1
  O  O275  1  0.24392016  0.63495023  1.00235648  1
  O  O276  1  0.74246315  0.12627847  0.49710728  1
  O  O277  1  0.74986494  0.13094295  0.99453854  1
  O  O278  1  0.74460562  0.63065721  0.49579793  1
  O  O279  1  0.75032735  0.63034442  0.98975814  1
  O  O280  1  0.25451847  0.37132200  0.00450047  1
  O  O281  1  0.25577481  0.36748689  0.50068223  1
  O  O282  1  0.25204904  0.86547289  0.00884342  1
  O  O283  1  0.25617506  0.87111239  0.50505166  1
  O  O284  1  0.75666791  0.37027464  0.00534547  1
  O  O285  1  0.75716513  0.37104428  0.50866310  1
  O  O286  1  0.75713725  0.87004829  0.00558963  1
  O  O287  1  0.75402285  0.86949339  0.50622584  1
  O  O288  1  0.13047226  0.49407151  0.24355525  1
  O  O289  1  0.13155637  0.50062605  0.74122189  1
  O  O290  1  0.13144663  0.99466081  0.24562943  1
  O  O291  1  0.13349711  1.00168315  0.74209244  1
  O  O292  1  0.63052474  0.49346889  0.24461812  1
  O  O293  1  0.62966949  0.49564286  0.74350414  1
  O  O294  1  0.62989584  0.99303817  0.24542012  1
  O  O295  1  0.63035298  0.99518747  0.74489492  1
  O  O296  1  0.36947751  0.00452002  0.25678843  1
  O  O297  1  0.36926091  0.00389954  0.75708422  1
  O  O298  1  0.36699091  0.50073192  0.25734449  1
  O  O299  1  0.36629456  0.50081356  0.75740396  1
  O  O300  1  0.87002299  0.00836000  0.25084503  1
  O  O301  1  0.86852177  0.00483102  0.75452522  1
  O  O302  1  0.86671967  0.50095326  0.25652855  1
  O  O303  1  0.87131118  0.51362824  0.75131114  1
  O  O304  1  0.12003641  0.37073840  0.36906826  1
  O  O305  1  0.11773517  0.36776242  0.87366920  1
  O  O306  1  0.11935868  0.86973851  0.37003923  1
  O  O307  1  0.12206042  0.87327569  0.87369077  1
  O  O308  1  0.62059169  0.36748656  0.37080788  1
  O  O309  1  0.62718658  0.36378091  0.87367713  1
  O  O310  1  0.61934294  0.86889308  0.37132444  1
  O  O311  1  0.62002915  0.87016169  0.86907312  1
  O  O312  1  0.38445255  0.12477650  0.13077393  1
  O  O313  1  0.38093803  0.13550014  0.62308390  1
  O  O314  1  0.38301570  0.63104156  0.12848211  1
  O  O315  1  0.38400244  0.63288699  0.62410019  1
  O  O316  1  0.88428348  0.12356209  0.13272475  1
  O  O317  1  0.88092867  0.12888340  0.63051521  1
  O  O318  1  0.88301200  0.62697028  0.12710078  1
  O  O319  1  0.87981376  0.62838177  0.63097921  1
  O  O320  1  0.25138579  0.25749787  0.11694447  1
  O  O321  1  0.25786139  0.25003356  0.61800153  1
  O  O322  1  0.25521975  0.75437832  0.11955033  1
  O  O323  1  0.25560312  0.75595682  0.61902149  1
  O  O324  1  0.74992516  0.25703686  0.11819246  1
  O  O325  1  0.75813625  0.25679135  0.62334727  1
  O  O326  1  0.74929242  0.75608908  0.11915257  1
  O  O327  1  0.75369674  0.75495075  0.61995143  1
  O  O328  1  0.24450345  0.24404764  0.37989329  1
  O  O329  1  0.24527786  0.24597198  0.87935888  1
  O  O330  1  0.24444172  0.74611412  0.37985672  1
  O  O331  1  0.25347799  0.74982605  0.88947062  1
  O  O332  1  0.73707305  0.24790985  0.37559648  1
  O  O333  1  0.74472215  0.24431029  0.88026424  1
  O  O334  1  0.74384142  0.74454139  0.38124085  1
  O  O335  1  0.74412530  0.74177193  0.87941550  1
  O  O336  1  0.00663058  0.12321205  0.00920203  1
  O  O337  1  0.00541753  0.11982087  0.50502254  1
  O  O338  1  0.00510673  0.61977188  0.00579212  1
  O  O339  1  -0.00106638  0.62231841  0.51244817  1
  O  O340  1  0.50195982  0.11784664  0.01106420  1
  O  O341  1  0.50602025  0.11821543  0.50514225  1
  O  O342  1  0.50209464  0.61836849  0.00717428  1
  O  O343  1  0.50509928  0.62674021  0.50978700  1
  O  O344  1  0.49196595  0.37651857  0.49220756  1
  O  O345  1  0.49266101  0.38302734  0.99697438  1
  O  O346  1  0.49483660  0.88032728  0.49546579  1
  O  O347  1  0.49939289  0.88092116  0.99356595  1
  O  O348  1  0.99321180  0.37671859  0.49146069  1
  O  O349  1  0.99601115  0.37959519  0.99507858  1
  O  O350  1  0.99446976  0.87951079  0.49640200  1
  O  O351  1  0.98682535  0.87675788  1.00303262  1
  O  O352  1  0.49248151  0.49386464  0.37636532  1
  O  O353  1  0.48998999  0.50118331  0.87968842  1
  O  O354  1  0.49504992  0.99412755  0.38069579  1
  O  O355  1  0.49697232  0.99617033  0.87991526  1
  O  O356  1  0.99350332  0.49334002  0.37481818  1
  O  O357  1  0.99888958  0.49364435  0.88131603  1
  O  O358  1  0.99987068  0.99243651  0.38255426  1
  O  O359  1  0.99043470  0.99839565  0.87828663  1
  O  O360  1  0.00771224  0.01013398  0.12382854  1
  O  O361  1  0.00575411  0.00633574  0.61911040  1
  O  O362  1  0.00639674  0.50490076  0.11902288  1
  O  O363  1  0.00686811  0.50819277  0.62534867  1
  O  O364  1  0.50477927  0.00612035  0.12131696  1
  O  O365  1  0.50538923  0.00494128  0.61988247  1
  O  O366  1  0.50499741  0.50478223  0.11996268  1
  O  O367  1  0.49741931  0.51337892  0.62390100  1
  O  O368  1  0.24391943  0.38114684  0.24388710  1
  O  O369  1  0.24572099  0.38884932  0.74607566  1
  O  O370  1  0.24417310  0.88017640  0.24668003  1
  O  O371  1  0.25082623  0.88437646  0.74204322  1
  O  O372  1  0.74424886  0.38028830  0.24404787  1
  O  O373  1  0.75254711  0.37494591  0.73727506  1
  O  O374  1  0.74464120  0.87865458  0.24587988  1
  O  O375  1  0.74459258  0.87957182  0.74506668  1
  O  O376  1  0.25467605  0.11886675  0.25523823  1
  O  O377  1  0.25300290  0.11931850  0.75760332  1
  O  O378  1  0.25042751  0.61840174  0.25650768  1
  O  O379  1  0.25279667  0.61302570  0.75035482  1
  O  O380  1  0.75991859  0.11849266  0.24882558  1
  O  O381  1  0.75659451  0.11856994  0.75510732  1
  O  O382  1  0.74917302  0.61780239  0.25777041  1
  O  O383  1  0.75693670  0.62617810  0.75818949  1
  O  O384  1  0.36988525  0.11953620  0.37097626  1
  O  O385  1  0.36934957  0.12010329  0.87513614  1
  O  O386  1  0.36750603  0.61869886  0.37399853  1
  O  O387  1  0.37135453  0.61308217  0.87353159  1
  O  O388  1  0.87561170  0.12290985  0.36322866  1
  O  O389  1  0.86986826  0.11958863  0.86953481  1
  O  O390  1  0.86713999  0.61784498  0.37431657  1
  O  O391  1  0.86553694  0.62603131  0.86657352  1
  O  O392  1  0.13031045  0.38068333  0.12879131  1
  O  O393  1  0.12448106  0.38656631  0.62681295  1
  O  O394  1  0.13081337  0.88072947  0.13176113  1
  O  O395  1  0.13338467  0.88357867  0.62345746  1
  O  O396  1  0.63025177  0.38008912  0.12968004  1
  O  O397  1  0.63675929  0.37154456  0.62339522  1
  O  O398  1  0.62984524  0.87947043  0.13214531  1
  O  O399  1  0.62956839  0.88050831  0.63062123  1
  O  O400  1  0.12553043  0.25699654  0.25640192  1
  O  O401  1  0.11873827  0.25063634  0.75583060  1
  O  O402  1  0.11967789  0.75657337  0.25594751  1
  O  O403  1  0.12529966  0.75327937  0.75401571  1
  O  O404  1  0.62341240  0.25557017  0.25865509  1
  O  O405  1  0.62631463  0.25116769  0.76229297  1
  O  O406  1  0.61998376  0.75552306  0.25709087  1
  O  O407  1  0.61861711  0.75708924  0.75555453  1
  O  O408  1  0.37714429  0.24165830  0.24668484  1
  O  O409  1  0.37297626  0.25023608  0.73705352  1
  O  O410  1  0.38245371  0.74846089  0.24520245  1
  O  O411  1  0.38042859  0.74972114  0.74353064  1
  O  O412  1  0.87693903  0.23777192  0.24605986  1
  O  O413  1  0.88166365  0.24214168  0.74462666  1
  O  O414  1  0.88296535  0.74770086  0.24793353  1
  O  O415  1  0.87319619  0.73833521  0.74302705  1
  O  O416  1  0.37455363  0.49291031  0.49323169  1
  O  O417  1  0.37838334  0.49647077  0.99203442  1
  O  O418  1  0.38052158  0.99558360  0.49478771  1
  O  O419  1  0.38241143  0.99776548  0.99366100  1
  O  O420  1  0.87661441  0.49178581  0.49143248  1
  O  O421  1  0.88273916  0.49257828  0.99774597  1
  O  O422  1  0.88177483  0.99319587  0.50020989  1
  O  O423  1  0.87391951  0.98980068  0.99465507  1
  O  O424  1  0.12660309  0.00749360  0.00824085  1
  O  O425  1  0.12003783  0.00632480  0.50529646  1
  O  O426  1  0.11994233  0.50549129  0.00551208  1
  O  O427  1  0.12325037  0.50286088  0.51131745  1
  O  O428  1  0.61928012  0.00099718  0.00766897  1
  O  O429  1  0.61934803  0.00361421  0.50590438  1
  O  O430  1  0.61812094  0.50096735  0.00630087  1
  O  O431  1  0.62087870  0.50831607  0.50446147  1
  O  O432  1  0.36793388  0.37567793  0.11770645  1
  O  O433  1  0.37313741  0.36582967  0.61768320  1
  O  O434  1  0.36887740  0.86802909  0.12544100  1
  O  O435  1  0.37018279  0.87124925  0.61894934  1
  O  O436  1  0.86888457  0.37309153  0.11873524  1
  O  O437  1  0.86989199  0.36903279  0.61909244  1
  O  O438  1  0.86794926  0.87503807  0.11630482  1
  O  O439  1  0.86810692  0.86941444  0.61980561  1
  O  O440  1  0.13016560  0.12980798  0.37952904  1
  O  O441  1  0.13114370  0.13022905  0.88111301  1
  O  O442  1  0.13037525  0.63165964  0.37664758  1
  O  O443  1  0.12823573  0.62756378  0.88521668  1
  O  O444  1  0.62432396  0.13316930  0.37913188  1
  O  O445  1  0.63261746  0.13358100  0.87708038  1
  O  O446  1  0.62980712  0.63016564  0.38139735  1
  O  O447  1  0.63424217  0.63112798  0.87429402  1
