# generated using pymatgen
data_V3Zn3O8
_symmetry_space_group_name_H-M   'P 1'
_cell_length_a   17.08992931
_cell_length_b   17.08839499
_cell_length_c   17.08891918
_cell_angle_alpha   89.99282311
_cell_angle_beta   90.00966311
_cell_angle_gamma   89.99725373
_symmetry_Int_Tables_number   1
_chemical_formula_structural   V3Zn3O8
_chemical_formula_sum   'V96 Zn96 O256'
_cell_volume   4990.63865367
_cell_formula_units_Z   32
loop_
 _symmetry_equiv_pos_site_id
 _symmetry_equiv_pos_as_xyz
  1  'x, y, z'
loop_
 _atom_site_type_symbol
 _atom_site_label
 _atom_site_symmetry_multiplicity
 _atom_site_fract_x
 _atom_site_fract_y
 _atom_site_fract_z
 _atom_site_occupancy
  V  V0  1  0.24885936  -0.00133661  0.24961386  1
  V  V1  1  0.87377963  0.00172662  0.37555372  1
  V  V2  1  0.12346168  0.12540298  0.49991733  1
  V  V3  1  -0.00025026  0.12389697  0.12437443  1
  V  V4  1  0.00071699  0.37567471  0.37383749  1
  V  V5  1  0.12564054  0.37538923  0.74963847  1
  V  V6  1  0.74881918  0.00020525  0.24966578  1
  V  V7  1  0.25035644  -0.00120277  0.74897388  1
  V  V8  1  0.75019140  0.75117222  0.49987570  1
  V  V9  1  -0.00023221  0.24965402  0.25039494  1
  V  V10  1  0.87426045  0.75071157  0.12525601  1
  V  V11  1  0.87449398  0.50105649  0.37467580  1
  V  V12  1  0.62555315  0.62445208  0.00176400  1
  V  V13  1  0.00063132  0.87568143  0.87478512  1
  V  V14  1  0.62559081  0.12420197  0.00044905  1
  V  V15  1  0.25064073  0.25045099  0.49975274  1
  V  V16  1  0.74786672  0.49978962  0.25123308  1
  V  V17  1  0.49981909  0.74982253  0.25131049  1
  V  V18  1  0.75018026  0.24994312  0.00009944  1
  V  V19  1  0.25102778  0.12440874  0.87384686  1
  V  V20  1  0.25042054  0.49953774  0.74920344  1
  V  V21  1  0.62512555  0.00028287  0.62612561  1
  V  V22  1  0.12523728  -0.00126080  0.12435907  1
  V  V23  1  0.49967613  0.62381765  0.12553372  1
  V  V24  1  0.25024436  0.74812516  -0.00028134  1
  V  V25  1  0.37576393  0.87330778  -0.00022779  1
  V  V26  1  0.49982561  0.12522447  0.62513976  1
  V  V27  1  0.25023455  0.87460894  0.62517141  1
  V  V28  1  0.24997243  0.62388185  0.37356894  1
  V  V29  1  0.24883061  0.12326683  0.37429500  1
  V  V30  1  0.24889129  0.37399956  0.12528673  1
  V  V31  1  0.62338126  0.25218835  0.37498169  1
  V  V32  1  0.37720998  0.62520571  0.74956857  1
  V  V33  1  0.12479018  0.24954085  0.37483162  1
  V  V34  1  -0.00018080  0.12695360  0.62464022  1
  V  V35  1  0.00023425  -0.00085167  -0.00167136  1
  V  V36  1  0.62433679  0.12539597  0.49984444  1
  V  V37  1  0.37549383  0.49913219  0.87406270  1
  V  V38  1  -0.00127340  0.75076069  0.24985895  1
  V  V39  1  0.49893323  0.24980304  0.25000504  1
  V  V40  1  0.87600711  0.62567322  0.75105159  1
  V  V41  1  0.12632175  0.37484509  0.24762505  1
  V  V42  1  0.62452205  0.75136527  0.37610765  1
  V  V43  1  0.37425815  0.25050812  0.62304171  1
  V  V44  1  0.75093450  0.12496050  0.87475121  1
  V  V45  1  0.12619452  0.50122820  0.62379811  1
  V  V46  1  0.74912183  0.37504781  0.12620165  1
  V  V47  1  0.12482848  0.25046866  0.87311115  1
  V  V48  1  0.12609829  0.74864456  0.87531409  1
  V  V49  1  0.87439017  0.87564462  0.50048188  1
  V  V50  1  0.87447458  0.24947623  0.12521302  1
  V  V51  1  0.74973379  0.74981301  0.00169944  1
  V  V52  1  0.37650940  -0.00159247  0.87538341  1
  V  V53  1  0.87553347  0.75170221  0.62464303  1
  V  V54  1  0.25064177  0.24879489  -0.00126206  1
  V  V55  1  0.12348613  0.87543638  0.24965106  1
  V  V56  1  0.50081115  0.87441606  0.87597182  1
  V  V57  1  0.62476567  0.62480079  0.50194724  1
  V  V58  1  0.00041737  0.75006457  0.74945697  1
  V  V59  1  0.00104441  0.50152556  0.49955194  1
  V  V60  1  0.75038996  0.50166432  0.75183871  1
  V  V61  1  0.37424020  0.74958657  0.12453494  1
  V  V62  1  0.49915586  -0.00023956  0.49999403  1
  V  V63  1  0.12644310  0.87478944  0.74953007  1
  V  V64  1  0.74885428  0.12648991  0.37574234  1
  V  V65  1  0.50082704  0.37426574  0.87443919  1
  V  V66  1  0.37408492  0.62394712  0.25076595  1
  V  V67  1  0.12564784  0.12406006  -0.00135202  1
  V  V68  1  0.62491228  -0.00020842  0.12532788  1
  V  V69  1  -0.00092063  0.87514854  0.37445605  1
  V  V70  1  0.87586227  0.00084283  0.87415387  1
  V  V71  1  0.00096145  0.62356793  0.12334215  1
  V  V72  1  0.87449161  0.25179591  0.62471508  1
  V  V73  1  0.24881595  0.74986763  0.49949410  1
  V  V74  1  0.00099952  0.25151565  0.74978915  1
  V  V75  1  0.37345682  -0.00044606  0.37417167  1
  V  V76  1  0.49752590  0.49927840  0.49949755  1
  V  V77  1  0.49947006  0.87470484  0.37524326  1
  V  V78  1  0.50062383  0.25058822  0.74991780  1
  V  V79  1  0.87761475  0.37690855  -0.00188969  1
  V  V80  1  0.87434705  0.12577208  0.25030491  1
  V  V81  1  0.37547908  0.12449665  0.74976421  1
  V  V82  1  0.37507510  0.37379896  -0.00073756  1
  V  V83  1  0.37392386  0.87502102  0.50075929  1
  V  V84  1  0.50116357  0.49961574  0.00084720  1
  V  V85  1  0.50059143  0.74859067  0.74989363  1
  V  V86  1  0.37550188  0.24750435  0.12410213  1
  V  V87  1  0.74913727  0.37686231  0.62522642  1
  V  V88  1  -0.00090242  0.00176533  0.50058378  1
  V  V89  1  0.62593426  0.87510950  0.75093160  1
  V  V90  1  0.75011007  0.00082534  0.75072860  1
  V  V91  1  0.50018675  0.12384502  0.12375139  1
  V  V92  1  0.74954820  0.87499468  0.12589113  1
  V  V93  1  0.62508184  0.25025139  0.87454528  1
  V  V94  1  0.24997151  0.62434399  0.87543992  1
  V  V95  1  0.62687635  0.74930207  0.87628470  1
  Zn  Zn96  1  0.62344221  0.50048447  0.62638145  1
  Zn  Zn97  1  0.00094957  0.37819001  0.87505190  1
  Zn  Zn98  1  0.87584934  0.12578447  0.75037782  1
  Zn  Zn99  1  0.74873227  0.25270746  0.50028841  1
  Zn  Zn100  1  0.87289524  0.37642065  0.49912130  1
  Zn  Zn101  1  0.62459797  0.37758764  0.75085060  1
  Zn  Zn102  1  0.62376428  0.49817923  0.12709770  1
  Zn  Zn103  1  0.87803577  0.50106698  0.87654989  1
  Zn  Zn104  1  0.12609494  0.50010097  0.12372984  1
  Zn  Zn105  1  0.12461989  0.62109103  -0.00075982  1
  Zn  Zn106  1  0.12412128  0.00086756  0.62534689  1
  Zn  Zn107  1  0.37482723  0.37453652  0.49771829  1
  Zn  Zn108  1  0.24987869  0.87391202  0.12476244  1
  Zn  Zn109  1  0.37334788  0.12226128  0.24836865  1
  Zn  Zn110  1  0.49933189  0.62539243  0.62591012  1
  Zn  Zn111  1  0.12545757  0.62633326  0.49800385  1
  Zn  Zn112  1  0.87479806  0.87515928  -0.00047495  1
  Zn  Zn113  1  0.75063409  0.62630699  0.37478160  1
  Zn  Zn114  1  0.50050355  -0.00141559  0.00078483  1
  Zn  Zn115  1  0.00175370  0.62693244  0.62330235  1
  Zn  Zn116  1  0.62413518  0.87481014  0.25042753  1
  Zn  Zn117  1  0.37432440  0.49518451  0.37349350  1
  Zn  Zn118  1  0.75041994  0.87694823  0.62576421  1
  Zn  Zn119  1  0.25033089  0.49886681  0.24889824  1
  Zn  Zn120  1  0.49696641  0.37621195  0.37458770  1
  Zn  Zn121  1  0.62246785  0.37624790  0.24944279  1
  Zn  Zn122  1  0.37730074  0.74896212  0.62535075  1
  Zn  Zn123  1  0.75168434  0.62440084  0.87835084  1
  Zn  Zn124  1  0.25276717  0.37555010  0.62180110  1
  Zn  Zn125  1  0.00270585  0.50023388  -0.00199989  1
  Zn  Zn126  1  0.87396338  0.62636313  0.24992159  1
  Zn  Zn127  1  0.12247491  0.74929151  0.37412173  1
  Zn  Zn128  1  0.18738567  0.18648130  0.18725303  1
  Zn  Zn129  1  0.18783878  0.18762220  0.68556562  1
  Zn  Zn130  1  0.18552785  0.68879187  0.18741836  1
  Zn  Zn131  1  0.18920110  0.68634083  0.68734356  1
  Zn  Zn132  1  0.68657157  0.18711959  0.18786642  1
  Zn  Zn133  1  0.68760807  0.18771109  0.68897786  1
  Zn  Zn134  1  0.68622560  0.68610009  0.18849856  1
  Zn  Zn135  1  0.68913557  0.68900505  0.68620680  1
  Zn  Zn136  1  0.31363005  0.31228323  0.31317577  1
  Zn  Zn137  1  0.31217363  0.31336165  0.81002939  1
  Zn  Zn138  1  0.31159355  0.81228284  0.31222632  1
  Zn  Zn139  1  0.31371127  0.81094543  0.81281556  1
  Zn  Zn140  1  0.81178872  0.31470276  0.31248381  1
  Zn  Zn141  1  0.81281524  0.31344003  0.81228625  1
  Zn  Zn142  1  0.81177683  0.81313850  0.31240999  1
  Zn  Zn143  1  0.81240349  0.81352164  0.81407784  1
  Zn  Zn144  1  0.18876689  0.43664745  0.43631310  1
  Zn  Zn145  1  0.18579642  0.43827976  0.93876455  1
  Zn  Zn146  1  0.18478109  0.93717251  0.43742535  1
  Zn  Zn147  1  0.18958731  0.93528465  0.93695698  1
  Zn  Zn148  1  0.68537613  0.43729908  0.43878855  1
  Zn  Zn149  1  0.68864533  0.43812182  0.93749185  1
  Zn  Zn150  1  0.68679771  0.93714484  0.43799854  1
  Zn  Zn151  1  0.68856010  0.93705137  0.93909765  1
  Zn  Zn152  1  0.31314651  0.05986687  0.06230357  1
  Zn  Zn153  1  0.31093262  0.06289679  0.56232511  1
  Zn  Zn154  1  0.31192153  0.56092487  0.06310864  1
  Zn  Zn155  1  0.31463329  0.56444631  0.56282751  1
  Zn  Zn156  1  0.81259701  0.06118014  0.06138602  1
  Zn  Zn157  1  0.81109681  0.06479035  0.56303938  1
  Zn  Zn158  1  0.81321616  0.56254090  0.06552670  1
  Zn  Zn159  1  0.81278909  0.56501351  0.56387516  1
  Zn  Zn160  1  0.43419352  0.43705519  0.18732926  1
  Zn  Zn161  1  0.43822940  0.43709369  0.68380908  1
  Zn  Zn162  1  0.43700229  0.93612757  0.18725483  1
  Zn  Zn163  1  0.43798424  0.93531931  0.68787056  1
  Zn  Zn164  1  0.93688735  0.43830021  0.18681084  1
  Zn  Zn165  1  0.93852929  0.43791138  0.68741368  1
  Zn  Zn166  1  0.93589823  0.93729075  0.18701713  1
  Zn  Zn167  1  0.93759544  0.93839168  0.68757975  1
  Zn  Zn168  1  0.06197183  0.06174621  0.31233523  1
  Zn  Zn169  1  0.06271716  0.06320388  0.81014029  1
  Zn  Zn170  1  0.06509108  0.56314819  0.30843866  1
  Zn  Zn171  1  0.06103422  0.56108162  0.81431918  1
  Zn  Zn172  1  0.56167252  0.06341498  0.31138485  1
  Zn  Zn173  1  0.56280544  0.06217272  0.81354180  1
  Zn  Zn174  1  0.56221040  0.56428176  0.31579528  1
  Zn  Zn175  1  0.56423558  0.56364132  0.81454406  1
  Zn  Zn176  1  0.43545330  0.18529322  0.43680440  1
  Zn  Zn177  1  0.43903682  0.18629042  0.93731505  1
  Zn  Zn178  1  0.43612419  0.68623904  0.43776984  1
  Zn  Zn179  1  0.43836378  0.68656670  0.93692727  1
  Zn  Zn180  1  0.93599670  0.18922312  0.43935044  1
  Zn  Zn181  1  0.93813731  0.18856357  0.93626750  1
  Zn  Zn182  1  0.93689927  0.68734243  0.43702673  1
  Zn  Zn183  1  0.93713945  0.68931980  0.93857257  1
  Zn  Zn184  1  0.06284681  0.31071479  0.06221134  1
  Zn  Zn185  1  0.06329953  0.31554129  0.56193300  1
  Zn  Zn186  1  0.06295132  0.81094952  0.06188748  1
  Zn  Zn187  1  0.06306065  0.81410379  0.56290015  1
  Zn  Zn188  1  0.56369530  0.31275286  0.06300566  1
  Zn  Zn189  1  0.56238961  0.31482848  0.56300541  1
  Zn  Zn190  1  0.56277674  0.81206997  0.06389832  1
  Zn  Zn191  1  0.56255512  0.81290082  0.56476611  1
  O  O192  1  0.11897965  0.11939242  0.11830967  1
  O  O193  1  0.11766606  0.12476175  0.61745404  1
  O  O194  1  0.11301059  0.62556338  0.12328295  1
  O  O195  1  0.12361949  0.61250576  0.62348209  1
  O  O196  1  0.62072722  0.12003936  0.11928219  1
  O  O197  1  0.61883606  0.12048642  0.62010035  1
  O  O198  1  0.61669288  0.62280114  0.11921524  1
  O  O199  1  0.62475269  0.62529704  0.61201412  1
  O  O200  1  0.37917702  0.37667099  0.37935590  1
  O  O201  1  0.38062161  0.37924122  0.87990836  1
  O  O202  1  0.37974976  0.88030029  0.38148779  1
  O  O203  1  0.38129087  0.87916213  0.87960537  1
  O  O204  1  0.88134891  0.38488103  0.37669884  1
  O  O205  1  0.87589918  0.37365343  0.88752497  1
  O  O206  1  0.87964279  0.88281002  0.38054470  1
  O  O207  1  0.88315302  0.88238392  0.87597506  1
  O  O208  1  0.25370939  0.00398019  0.37009640  1
  O  O209  1  0.25655105  0.00502741  0.86891154  1
  O  O210  1  0.25148889  0.51247050  0.37418332  1
  O  O211  1  0.25633606  0.50418782  0.86928224  1
  O  O212  1  0.75434864  0.00661555  0.37031693  1
  O  O213  1  0.75538894  0.00560310  0.87088619  1
  O  O214  1  0.75884870  0.49801382  0.36877644  1
  O  O215  1  0.75495967  0.50178858  0.86396643  1
  O  O216  1  0.24945340  0.48919939  0.12710874  1
  O  O217  1  0.24140071  0.49987865  0.62941921  1
  O  O218  1  0.24252499  0.99841914  0.13065881  1
  O  O219  1  0.24841215  0.99358663  0.63151958  1
  O  O220  1  0.74983196  0.49423775  0.13674136  1
  O  O221  1  0.75144018  0.49244179  0.63357328  1
  O  O222  1  0.74530747  0.99590788  0.13045548  1
  O  O223  1  0.74272861  1.00096300  0.63187271  1
  O  O224  1  0.00445453  0.36808892  0.25421827  1
  O  O225  1  0.00770996  0.36885162  0.75030166  1
  O  O226  1  0.00344893  0.87144974  0.25529072  1
  O  O227  1  0.00630899  0.86995697  0.75503952  1
  O  O228  1  0.50080597  0.36092233  0.24950613  1
  O  O229  1  0.50147558  0.36882530  0.75661165  1
  O  O230  1  0.50039397  0.86761231  0.25757094  1
  O  O231  1  0.50616725  0.86949182  0.75692717  1
  O  O232  1  0.49855253  0.13449819  0.24318955  1
  O  O233  1  0.49466233  0.12999994  0.74486589  1
  O  O234  1  0.49443179  0.63061069  0.24586426  1
  O  O235  1  0.49500699  0.63088186  0.75111863  1
  O  O236  1  0.99397211  0.12990651  0.24452948  1
  O  O237  1  0.99917879  0.13337127  0.74262965  1
  O  O238  1  0.99820886  0.63205822  0.24122369  1
  O  O239  1  0.99106402  0.63132016  0.74840183  1
  O  O240  1  0.37015499  0.25417439  0.00352584  1
  O  O241  1  0.36863017  0.24713738  0.50625604  1
  O  O242  1  0.37023162  0.75365354  0.00448327  1
  O  O243  1  0.36454900  0.75655748  0.50044142  1
  O  O244  1  0.86936777  0.25595751  0.00588835  1
  O  O245  1  0.87275753  0.25421202  0.51187240  1
  O  O246  1  0.86742419  0.75277630  0.00687394  1
  O  O247  1  0.87054007  0.75529174  0.50454091  1
  O  O248  1  0.12859602  0.24508287  0.49367706  1
  O  O249  1  0.13100468  0.24298531  0.99392300  1
  O  O250  1  0.13634796  0.74921214  0.49799218  1
  O  O251  1  0.13238515  0.74843564  0.99211191  1
  O  O252  1  0.62356280  0.24376381  0.49061528  1
  O  O253  1  0.63120276  0.24435942  0.99457257  1
  O  O254  1  0.62918084  0.74420582  0.49597432  1
  O  O255  1  0.62995173  0.74406411  0.99611756  1
  O  O256  1  0.49590824  0.24429106  0.13144322  1
  O  O257  1  0.49569887  0.24369128  0.62995645  1
  O  O258  1  0.49417315  0.74353666  0.13107089  1
  O  O259  1  0.49800955  0.74852577  0.63444218  1
  O  O260  1  0.99443386  0.24252703  0.13074214  1
  O  O261  1  0.99270726  0.24814721  0.62869998  1
  O  O262  1  0.99402358  0.74428946  0.12990200  1
  O  O263  1  0.99455394  0.74894281  0.63099286  1
  O  O264  1  0.00414972  0.25517301  0.37011525  1
  O  O265  1  0.00766399  0.25113226  0.86787382  1
  O  O266  1  -0.00072793  0.75723051  0.36921415  1
  O  O267  1  0.00571270  0.75590464  0.86891144  1
  O  O268  1  0.50778729  0.24615536  0.36636026  1
  O  O269  1  0.50501136  0.25456654  0.86978735  1
  O  O270  1  0.50392426  0.75545516  0.37123048  1
  O  O271  1  0.50715022  0.75513479  0.87011384  1
  O  O272  1  0.24284681  0.12932799  0.49359801  1
  O  O273  1  0.24533747  0.12899301  0.99337653  1
  O  O274  1  0.25058224  0.63431672  0.49171541  1
  O  O275  1  0.25083492  0.63081550  0.99246490  1
  O  O276  1  0.74207145  0.12825811  0.49352902  1
  O  O277  1  0.74541086  0.13090274  0.99495300  1
  O  O278  1  0.74156477  0.63086433  0.49851179  1
  O  O279  1  0.74416919  0.63119487  1.00113942  1
  O  O280  1  0.25630487  0.36702925  0.00381890  1
  O  O281  1  0.25098258  0.36508133  0.50112267  1
  O  O282  1  0.25786086  0.86650955  0.00020462  1
  O  O283  1  0.25382300  0.86832124  0.50372858  1
  O  O284  1  0.75767258  0.36896544  0.00568812  1
  O  O285  1  0.75152953  0.37477789  0.51228673  1
  O  O286  1  0.75119920  0.86816093  0.00818971  1
  O  O287  1  0.75701263  0.87000360  0.50152666  1
  O  O288  1  0.12815925  0.48911735  0.24608560  1
  O  O289  1  0.12994446  0.49595620  0.74195592  1
  O  O290  1  0.12838260  0.99521059  0.24380775  1
  O  O291  1  0.13257927  0.99312659  0.74930773  1
  O  O292  1  0.63521831  0.49777473  0.25229023  1
  O  O293  1  0.63748502  0.50104843  0.74843227  1
  O  O294  1  0.63165254  1.00014378  0.24380142  1
  O  O295  1  0.62987416  0.99516027  0.74594930  1
  O  O296  1  0.36765874  -0.00013089  0.25624119  1
  O  O297  1  0.37038183  0.00490530  0.75538226  1
  O  O298  1  0.37223515  0.50921683  0.25232573  1
  O  O299  1  0.37053707  0.50406999  0.75530446  1
  O  O300  1  0.86952303  0.00693037  0.25577941  1
  O  O301  1  0.86901204  0.00266819  0.75623550  1
  O  O302  1  0.86657484  0.49957097  0.25973645  1
  O  O303  1  0.86816145  0.50964558  0.74859436  1
  O  O304  1  0.11977953  0.36842311  0.36825480  1
  O  O305  1  0.12553190  0.36696643  0.86796562  1
  O  O306  1  0.11567974  0.87517384  0.36789334  1
  O  O307  1  0.12068154  0.86899745  0.86860216  1
  O  O308  1  0.62205430  0.36190109  0.37373895  1
  O  O309  1  0.61906710  0.36788024  0.87454305  1
  O  O310  1  0.61672359  0.86951070  0.37485963  1
  O  O311  1  0.62029476  0.86964650  0.87059290  1
  O  O312  1  0.38130941  0.13033283  0.12487117  1
  O  O313  1  0.38084600  0.12914406  0.63069594  1
  O  O314  1  0.38040130  0.63034636  0.13043856  1
  O  O315  1  0.37727915  0.62844616  0.63507118  1
  O  O316  1  0.87996658  0.12977222  0.13029669  1
  O  O317  1  0.87986975  0.13674458  0.62551539  1
  O  O318  1  0.88375886  0.63242178  0.12766810  1
  O  O319  1  0.87770718  0.63216641  0.63534813  1
  O  O320  1  0.25555847  0.25234425  0.11785346  1
  O  O321  1  0.25646259  0.24919201  0.61750702  1
  O  O322  1  0.25702564  0.75040080  0.11840228  1
  O  O323  1  0.25131683  0.75516599  0.61528850  1
  O  O324  1  0.75568798  0.25361965  0.12029522  1
  O  O325  1  0.75780953  0.25875303  0.62689718  1
  O  O326  1  0.75411425  0.75498984  0.12187867  1
  O  O327  1  0.75764819  0.75399380  0.61806913  1
  O  O328  1  0.24338706  0.24234407  0.37912970  1
  O  O329  1  0.24577841  0.24345626  0.87899381  1
  O  O330  1  0.24840731  0.74331921  0.38388487  1
  O  O331  1  0.24564892  0.74366816  0.87937825  1
  O  O332  1  0.74023484  0.24545353  0.37493657  1
  O  O333  1  0.74493733  0.24492823  0.87991730  1
  O  O334  1  0.74399885  0.74936314  0.38178432  1
  O  O335  1  0.74377420  0.74955526  0.88292969  1
  O  O336  1  0.00638144  0.11988734  0.00460840  1
  O  O337  1  0.00428058  0.12124096  0.50457116  1
  O  O338  1  0.00007271  0.62604480  0.01142277  1
  O  O339  1  0.00316804  0.61330686  0.49987411  1
  O  O340  1  0.50772771  0.12381689  0.00606021  1
  O  O341  1  0.50459624  0.11863971  0.50557642  1
  O  O342  1  0.50464718  0.61904810  0.00558357  1
  O  O343  1  0.50819584  0.61884923  0.50102778  1
  O  O344  1  0.50086618  0.38718698  0.49878878  1
  O  O345  1  0.49425836  0.37866822  0.99474293  1
  O  O346  1  0.49401373  0.88076856  0.49539618  1
  O  O347  1  0.49405077  0.87465902  0.99328011  1
  O  O348  1  0.99960229  0.38697335  0.49305066  1
  O  O349  1  0.98744085  0.37245425  1.00123433  1
  O  O350  1  0.99389066  0.88158278  0.49462362  1
  O  O351  1  0.99995085  0.88175095  0.99237283  1
  O  O352  1  0.49865478  0.49914797  0.38612284  1
  O  O353  1  0.49501660  0.49393645  0.88076611  1
  O  O354  1  0.49440266  0.99566294  0.38041777  1
  O  O355  1  0.49403599  0.99287803  0.87620757  1
  O  O356  1  0.99393526  0.49588050  0.37988747  1
  O  O357  1  0.99483951  0.49551203  0.87913833  1
  O  O358  1  0.99226525  0.99650341  0.38027057  1
  O  O359  1  0.99631748  0.99592625  0.87887545  1
  O  O360  1  0.00457163  0.00556902  0.11908307  1
  O  O361  1  -0.00009355  0.00836487  0.61833336  1
  O  O362  1  -0.00090096  0.51233353  0.12459894  1
  O  O363  1  0.00796539  0.50058785  0.61570932  1
  O  O364  1  0.50626133  0.00602032  0.12426727  1
  O  O365  1  0.50470791  0.00558180  0.62011357  1
  O  O366  1  0.50009647  0.50537813  0.11859687  1
  O  O367  1  0.50419189  0.50330796  0.61521725  1
  O  O368  1  0.24362919  0.37212203  0.24285306  1
  O  O369  1  0.24374651  0.38218029  0.74677646  1
  O  O370  1  0.24232198  0.88121007  0.24907483  1
  O  O371  1  0.24620236  0.87911680  0.74549059  1
  O  O372  1  0.74898131  0.38374690  0.24500707  1
  O  O373  1  0.75115578  0.38522211  0.74254358  1
  O  O374  1  0.74787080  0.88312009  0.24435896  1
  O  O375  1  0.74318325  0.88255115  0.74975242  1
  O  O376  1  0.24924404  0.11717418  0.25663228  1
  O  O377  1  0.25588016  0.11964888  0.75477575  1
  O  O378  1  0.25522780  0.62711736  0.25878061  1
  O  O379  1  0.25649923  0.61879758  0.75630278  1
  O  O380  1  0.75555936  0.12044388  0.25550656  1
  O  O381  1  0.75125010  0.11881432  0.75754054  1
  O  O382  1  0.75172965  0.61302149  0.25315272  1
  O  O383  1  0.75930220  0.61795860  0.74950690  1
  O  O384  1  0.36687274  0.11644268  0.37308709  1
  O  O385  1  0.37052891  0.11943043  0.86928580  1
  O  O386  1  0.36452765  0.62619699  0.36864261  1
  O  O387  1  0.37042350  0.61775716  0.86960635  1
  O  O388  1  0.86923724  0.12170057  0.37001320  1
  O  O389  1  0.86867397  0.11984764  0.87363158  1
  O  O390  1  0.87353480  0.61169610  0.37304820  1
  O  O391  1  0.87290876  0.62644555  0.86191448  1
  O  O392  1  0.13173972  0.37111995  0.13108573  1
  O  O393  1  0.12674047  0.38655534  0.62999980  1
  O  O394  1  0.12535049  0.88190492  0.13104893  1
  O  O395  1  0.13204222  0.87749481  0.63211027  1
  O  O396  1  0.63359722  0.37692167  0.12776754  1
  O  O397  1  0.63768371  0.37592588  0.62912797  1
  O  O398  1  0.63097083  0.88148341  0.12764874  1
  O  O399  1  0.62606799  0.88322242  0.63257528  1
  O  O400  1  0.11832572  0.25317885  0.25567334  1
  O  O401  1  0.12122249  0.25525748  0.75364402  1
  O  O402  1  0.11674134  0.75878133  0.25105184  1
  O  O403  1  0.12088902  0.75482635  0.75508444  1
  O  O404  1  0.61628027  0.24874127  0.25880950  1
  O  O405  1  0.61802073  0.25090789  0.75714576  1
  O  O406  1  0.61760680  0.75016886  0.25813029  1
  O  O407  1  0.62175701  0.75508662  0.75603703  1
  O  O408  1  0.38375632  0.24585841  0.24337188  1
  O  O409  1  0.38051164  0.24332675  0.74473128  1
  O  O410  1  0.38040619  0.74458757  0.24474491  1
  O  O411  1  0.38248405  0.74293106  0.75099082  1
  O  O412  1  0.87997579  0.24508754  0.24524436  1
  O  O413  1  0.88076317  0.25064968  0.73941243  1
  O  O414  1  0.88072173  0.74928576  0.24393886  1
  O  O415  1  0.87963539  0.74416069  0.74517140  1
  O  O416  1  0.38629644  0.50092824  0.49838200  1
  O  O417  1  0.38098189  0.49330951  0.99358507  1
  O  O418  1  0.37959115  0.99501132  0.49437815  1
  O  O419  1  0.37660995  0.99235307  0.99271737  1
  O  O420  1  0.88355068  0.50008911  0.49268485  1
  O  O421  1  0.87424823  0.48715310  1.00085969  1
  O  O422  1  0.87909265  0.99685508  0.49454593  1
  O  O423  1  0.88262709  0.99924815  0.99284478  1
  O  O424  1  0.12068723  0.00498906  0.00351800  1
  O  O425  1  0.11686560  0.00717879  0.50096018  1
  O  O426  1  0.12104236  0.50279576  0.00553978  1
  O  O427  1  0.11792401  0.50060621  0.50679333  1
  O  O428  1  0.62435475  0.00691518  0.00694023  1
  O  O429  1  0.61840870  0.00552342  0.50529498  1
  O  O430  1  0.61881997  0.50599810  0.00156498  1
  O  O431  1  0.61846960  0.50988712  0.50018784  1
  O  O432  1  0.36966716  0.36646947  0.11803990  1
  O  O433  1  0.37304767  0.36512385  0.62103302  1
  O  O434  1  0.37405729  0.86717186  0.11800769  1
  O  O435  1  0.36813787  0.87335291  0.61832990  1
  O  O436  1  0.86935933  0.36802699  0.11853246  1
  O  O437  1  0.86692408  0.36802921  0.62446463  1
  O  O438  1  0.86781432  0.86923242  0.12319548  1
  O  O439  1  0.87406807  0.86972694  0.61786693  1
  O  O440  1  0.12826014  0.13033897  0.38010580  1
  O  O441  1  0.13171854  0.12982106  0.87929182  1
  O  O442  1  0.13634083  0.62826045  0.37546362  1
  O  O443  1  0.13239044  0.63155472  0.87426237  1
  O  O444  1  0.62915148  0.13278852  0.37987964  1
  O  O445  1  0.63064815  0.13020372  0.88096422  1
  O  O446  1  0.62657362  0.63276372  0.38716060  1
  O  O447  1  0.62782229  0.63211749  0.88382132  1
