# generated using pymatgen
data_V3Zn3O8
_symmetry_space_group_name_H-M   'P 1'
_cell_length_a   17.09024574
_cell_length_b   17.09017071
_cell_length_c   17.09105308
_cell_angle_alpha   89.99156325
_cell_angle_beta   90.01025385
_cell_angle_gamma   89.99006654
_symmetry_Int_Tables_number   1
_chemical_formula_structural   V3Zn3O8
_chemical_formula_sum   'V96 Zn96 O256'
_cell_volume   4991.87282948
_cell_formula_units_Z   32
loop_
 _symmetry_equiv_pos_site_id
 _symmetry_equiv_pos_as_xyz
  1  'x, y, z'
loop_
 _atom_site_type_symbol
 _atom_site_label
 _atom_site_symmetry_multiplicity
 _atom_site_fract_x
 _atom_site_fract_y
 _atom_site_fract_z
 _atom_site_occupancy
  V  V0  1  0.37392958  0.62428232  0.24951278  1
  V  V1  1  0.87556485  0.37434809  0.00003875  1
  V  V2  1  0.49936583  0.74919322  0.74918819  1
  V  V3  1  0.00031494  0.37537535  0.37449202  1
  V  V4  1  0.62560513  0.25041502  0.87539041  1
  V  V5  1  -0.00136875  0.87622088  0.37647936  1
  V  V6  1  0.75027968  0.37593077  0.62514487  1
  V  V7  1  0.25093925  0.37402548  0.12466975  1
  V  V8  1  0.12613358  0.37521100  0.74990892  1
  V  V9  1  0.75034292  0.87553980  0.12510353  1
  V  V10  1  0.75108886  0.62607696  0.87635813  1
  V  V11  1  0.00081151  0.75086340  0.75153725  1
  V  V12  1  -0.00063840  0.75080012  0.25064832  1
  V  V13  1  0.37599138  0.12485958  0.74896697  1
  V  V14  1  0.62456679  0.00075805  0.12403133  1
  V  V15  1  0.87660354  0.87702867  -0.00014477  1
  V  V16  1  -0.00009926  0.62462706  0.12565920  1
  V  V17  1  0.49959974  -0.00022146  0.49962600  1
  V  V18  1  0.87391505  0.12466817  0.25122231  1
  V  V19  1  0.75016737  0.87477082  0.62553912  1
  V  V20  1  -0.00004343  0.25071267  0.25044233  1
  V  V21  1  0.25061373  0.87323596  0.62316876  1
  V  V22  1  0.62584975  0.12541984  0.49983000  1
  V  V23  1  0.50102368  0.49932802  0.49883481  1
  V  V24  1  0.87546644  0.25043916  0.62542207  1
  V  V25  1  0.74954701  0.50038654  0.25012846  1
  V  V26  1  0.62411118  0.00035756  0.62473752  1
  V  V27  1  0.87348677  0.50167010  0.37457559  1
  V  V28  1  0.37415710  0.37380424  0.00066930  1
  V  V29  1  0.12646435  0.24888321  0.87583403  1
  V  V30  1  0.12364949  0.12558471  0.50076989  1
  V  V31  1  0.75057745  0.25063447  0.00000806  1
  V  V32  1  0.62595182  0.25006397  0.37451454  1
  V  V33  1  0.00277591  0.12181526  0.12355760  1
  V  V34  1  0.62537174  0.49987710  0.12500457  1
  V  V35  1  0.49921783  0.24957742  0.24844376  1
  V  V36  1  0.12471278  0.37468450  0.25055490  1
  V  V37  1  0.74939599  0.00017317  0.75061271  1
  V  V38  1  0.37524310  0.12522275  0.24889451  1
  V  V39  1  0.87481823  0.75090772  0.12625984  1
  V  V40  1  0.50071654  -0.00100175  -0.00028762  1
  V  V41  1  0.24932666  0.62481107  0.37446368  1
  V  V42  1  0.00069692  0.62526148  0.62462774  1
  V  V43  1  0.25032276  0.50019742  0.24991085  1
  V  V44  1  0.49920363  0.62441316  0.62543241  1
  V  V45  1  0.75005198  0.12512964  0.87469612  1
  V  V46  1  0.24961188  0.37441378  0.62547409  1
  V  V47  1  0.87649888  0.50023793  0.87529947  1
  V  V48  1  0.37642638  -0.00235904  0.37542510  1
  V  V49  1  0.37538717  0.62467087  0.74833258  1
  V  V50  1  0.62491250  0.50052374  0.62474571  1
  V  V51  1  0.00068067  0.50012936  0.00087281  1
  V  V52  1  0.37487117  -0.00104295  0.87465596  1
  V  V53  1  -0.00012228  0.50108229  0.50016818  1
  V  V54  1  0.75002556  0.74925148  0.00015777  1
  V  V55  1  0.12504095  0.74996753  0.37576998  1
  V  V56  1  0.74945852  0.25046284  0.49931101  1
  V  V57  1  0.87428055  0.75122087  0.62604533  1
  V  V58  1  0.50045223  0.24963918  0.75010351  1
  V  V59  1  0.87459599  0.87620829  0.50038449  1
  V  V60  1  0.50052480  0.62398596  0.12389817  1
  V  V61  1  0.74999914  0.00131301  0.25073776  1
  V  V62  1  0.87510418  0.25031067  0.12445264  1
  V  V63  1  0.12412660  -0.00020840  0.62609782  1
  V  V64  1  0.12497055  0.62569882  0.49952714  1
  V  V65  1  0.62507493  0.37499931  0.24927810  1
  V  V66  1  0.50126177  0.75108706  0.25121823  1
  V  V67  1  0.12444275  0.49999118  0.12485309  1
  V  V68  1  0.00136151  0.37496297  0.87488995  1
  V  V69  1  0.62431633  0.87428390  0.75065538  1
  V  V70  1  0.87605445  0.62559830  0.75029598  1
  V  V71  1  0.62396815  0.87488534  0.24969775  1
  V  V72  1  0.37532003  0.37383591  0.49936440  1
  V  V73  1  0.62553508  0.37512369  0.75052025  1
  V  V74  1  0.62424252  0.12448361  -0.00037634  1
  V  V75  1  0.87491561  0.12590070  0.74965592  1
  V  V76  1  0.24982167  0.12463137  0.37602265  1
  V  V77  1  -0.00041032  0.25042258  0.74975065  1
  V  V78  1  0.25004045  0.49872081  0.74980499  1
  V  V79  1  0.75092925  0.50056807  0.75029842  1
  V  V80  1  0.24933855  0.12472736  0.87695058  1
  V  V81  1  0.25052666  0.74947097  -0.00072371  1
  V  V82  1  0.50035691  0.37579344  0.87514530  1
  V  V83  1  0.87330379  0.62522646  0.25188704  1
  V  V84  1  0.37493700  0.87320461  -0.00111457  1
  V  V85  1  0.12520616  0.87623698  0.24998314  1
  V  V86  1  0.37553918  0.49931330  0.87433250  1
  V  V87  1  0.24911927  -0.00118157  0.24948045  1
  V  V88  1  0.87535167  0.37589660  0.49991045  1
  V  V89  1  0.50119730  0.50038424  0.00003604  1
  V  V90  1  0.12432616  0.75151284  0.87460605  1
  V  V91  1  0.37391420  0.74989097  0.12318200  1
  V  V92  1  0.25031285  0.62471590  0.87432834  1
  V  V93  1  0.50015643  0.87306881  0.87359963  1
  V  V94  1  0.87608927  -0.00031027  0.87618949  1
  V  V95  1  0.25077756  0.24971225  0.50082235  1
  Zn  Zn96  1  -0.00080756  0.12482059  0.62489601  1
  Zn  Zn97  1  0.50153013  0.87385510  0.37543891  1
  Zn  Zn98  1  0.62531199  0.62944509  0.49885111  1
  Zn  Zn99  1  0.37350213  0.24814109  0.12343956  1
  Zn  Zn100  1  0.49926896  0.37541008  0.37427623  1
  Zn  Zn101  1  0.12439466  0.87689570  0.74980567  1
  Zn  Zn102  1  0.00136247  0.87771954  0.87536389  1
  Zn  Zn103  1  0.12500899  0.25037614  0.37543618  1
  Zn  Zn104  1  0.74612301  0.62690170  0.37871974  1
  Zn  Zn105  1  0.75068997  0.37546682  0.12438588  1
  Zn  Zn106  1  0.12711957  -0.00172678  0.12200743  1
  Zn  Zn107  1  0.87412836  0.00203801  0.37670117  1
  Zn  Zn108  1  0.37440764  0.75007305  0.62128220  1
  Zn  Zn109  1  0.25377817  0.74921539  0.49875016  1
  Zn  Zn110  1  0.37686343  0.24812540  0.62487530  1
  Zn  Zn111  1  0.12577270  0.12320572  0.00071581  1
  Zn  Zn112  1  0.12526849  0.50060817  0.62480224  1
  Zn  Zn113  1  0.00409531  -0.00091831  -0.00195169  1
  Zn  Zn114  1  0.62532012  0.74799060  0.87613376  1
  Zn  Zn115  1  0.25023885  0.24921992  0.00281531  1
  Zn  Zn116  1  -0.00211315  0.00244347  0.49971240  1
  Zn  Zn117  1  0.24820682  0.87550800  0.12411487  1
  Zn  Zn118  1  0.62679230  0.74942510  0.37724416  1
  Zn  Zn119  1  0.49826959  0.12475753  0.12331164  1
  Zn  Zn120  1  0.74482123  0.74954759  0.49853843  1
  Zn  Zn121  1  0.37509601  0.87192853  0.49945586  1
  Zn  Zn122  1  0.24983253  -0.00224514  0.75022883  1
  Zn  Zn123  1  0.12528220  0.62510935  0.00099717  1
  Zn  Zn124  1  0.37509925  0.49991225  0.37413964  1
  Zn  Zn125  1  0.75176712  0.12415587  0.37520533  1
  Zn  Zn126  1  0.62609188  0.62545835  -0.00088746  1
  Zn  Zn127  1  0.49978524  0.12612599  0.62504614  1
  Zn  Zn128  1  0.18754585  0.18798769  0.18880960  1
  Zn  Zn129  1  0.18928529  0.18837856  0.68797302  1
  Zn  Zn130  1  0.18651731  0.68839229  0.18737184  1
  Zn  Zn131  1  0.18729706  0.68819019  0.68684672  1
  Zn  Zn132  1  0.68752537  0.18707775  0.18591462  1
  Zn  Zn133  1  0.68745603  0.18727479  0.68574492  1
  Zn  Zn134  1  0.68733128  0.68576540  0.18762464  1
  Zn  Zn135  1  0.68631631  0.68789869  0.68635327  1
  Zn  Zn136  1  0.31158016  0.31169088  0.31392669  1
  Zn  Zn137  1  0.31282473  0.31039756  0.81369549  1
  Zn  Zn138  1  0.31166283  0.81190059  0.31149881  1
  Zn  Zn139  1  0.31125908  0.81186107  0.80870975  1
  Zn  Zn140  1  0.81181354  0.31312306  0.31185913  1
  Zn  Zn141  1  0.81292752  0.31320767  0.81301332  1
  Zn  Zn142  1  0.80974060  0.81289733  0.31488904  1
  Zn  Zn143  1  0.81301219  0.81307656  0.81412010  1
  Zn  Zn144  1  0.18695016  0.43911544  0.43698757  1
  Zn  Zn145  1  0.18790926  0.43701122  0.93841493  1
  Zn  Zn146  1  0.18701752  0.93721004  0.43875366  1
  Zn  Zn147  1  0.18734996  0.93824162  0.93989036  1
  Zn  Zn148  1  0.68692811  0.43722242  0.43504793  1
  Zn  Zn149  1  0.68840702  0.43859061  0.93865953  1
  Zn  Zn150  1  0.68736758  0.93572285  0.43456255  1
  Zn  Zn151  1  0.68799188  0.93578805  0.93738417  1
  Zn  Zn152  1  0.31378661  0.06062157  0.06381249  1
  Zn  Zn153  1  0.31062417  0.06069234  0.56325554  1
  Zn  Zn154  1  0.31256839  0.56202665  0.06181865  1
  Zn  Zn155  1  0.31196232  0.56131359  0.56205231  1
  Zn  Zn156  1  0.81343826  0.06273094  0.06317175  1
  Zn  Zn157  1  0.81062754  0.06305957  0.56354559  1
  Zn  Zn158  1  0.81262752  0.56274539  0.06404597  1
  Zn  Zn159  1  0.81176468  0.56501435  0.56180760  1
  Zn  Zn160  1  0.43714737  0.43678897  0.18647998  1
  Zn  Zn161  1  0.43682039  0.43664739  0.68596683  1
  Zn  Zn162  1  0.43629011  0.93665097  0.18501975  1
  Zn  Zn163  1  0.43670598  0.93728767  0.68626892  1
  Zn  Zn164  1  0.93653268  0.43764824  0.18749331  1
  Zn  Zn165  1  0.93891592  0.43820020  0.68706494  1
  Zn  Zn166  1  0.93700924  0.93863784  0.18914243  1
  Zn  Zn167  1  0.93943679  0.93773612  0.68887221  1
  Zn  Zn168  1  0.06119596  0.06083391  0.31314524  1
  Zn  Zn169  1  0.06152074  0.06289511  0.81123960  1
  Zn  Zn170  1  0.06191682  0.56250289  0.31242168  1
  Zn  Zn171  1  0.06416585  0.56365933  0.81232254  1
  Zn  Zn172  1  0.56388846  0.06459399  0.31279089  1
  Zn  Zn173  1  0.56180511  0.06147085  0.81356043  1
  Zn  Zn174  1  0.56378214  0.56379321  0.31416992  1
  Zn  Zn175  1  0.56442293  0.56378047  0.81291139  1
  Zn  Zn176  1  0.43870649  0.18670787  0.43516179  1
  Zn  Zn177  1  0.43699499  0.18815015  0.93734628  1
  Zn  Zn178  1  0.43566640  0.68598282  0.43760865  1
  Zn  Zn179  1  0.43810269  0.68646043  0.93593962  1
  Zn  Zn180  1  0.93749686  0.18863828  0.43641043  1
  Zn  Zn181  1  0.93830584  0.18672637  0.93767257  1
  Zn  Zn182  1  0.93558951  0.68938896  0.43808415  1
  Zn  Zn183  1  0.93796830  0.68839509  0.93965866  1
  Zn  Zn184  1  0.06458762  0.30998673  0.06184604  1
  Zn  Zn185  1  0.06276822  0.31274263  0.56336897  1
  Zn  Zn186  1  0.06265168  0.81379750  0.06235062  1
  Zn  Zn187  1  0.06220260  0.81204429  0.56193632  1
  Zn  Zn188  1  0.56241511  0.31344172  0.06370775  1
  Zn  Zn189  1  0.56213700  0.31167091  0.56440681  1
  Zn  Zn190  1  0.56351124  0.81161023  0.06223939  1
  Zn  Zn191  1  0.56143181  0.81249075  0.56358945  1
  O  O192  1  0.11370414  0.12445455  0.12553901  1
  O  O193  1  0.12692515  0.11778307  0.61681278  1
  O  O194  1  0.11756964  0.61818818  0.12476655  1
  O  O195  1  0.11817046  0.62381579  0.61846332  1
  O  O196  1  0.62310456  0.11836693  0.11666481  1
  O  O197  1  0.62367956  0.11790720  0.61859274  1
  O  O198  1  0.61783563  0.61731532  0.12330148  1
  O  O199  1  0.61698538  0.61637176  0.62544331  1
  O  O200  1  0.37554744  0.37685332  0.38841533  1
  O  O201  1  0.38108449  0.38046004  0.87924486  1
  O  O202  1  0.37696379  0.88805602  0.37470312  1
  O  O203  1  0.38014671  0.87931417  0.87851067  1
  O  O204  1  0.88060100  0.38111698  0.38062126  1
  O  O205  1  0.88179507  0.38052396  0.87955554  1
  O  O206  1  0.88009111  0.87559411  0.38555684  1
  O  O207  1  0.87493546  0.88240869  0.88215329  1
  O  O208  1  0.25881939  0.00490637  0.37122689  1
  O  O209  1  0.25640035  0.00838206  0.87253608  1
  O  O210  1  0.25068152  0.50686058  0.36702552  1
  O  O211  1  0.25598740  0.50446506  0.86950642  1
  O  O212  1  0.75208136  0.00265277  0.36556768  1
  O  O213  1  0.75459763  0.00619768  0.86939248  1
  O  O214  1  0.75716740  0.50048355  0.36784163  1
  O  O215  1  0.75749362  0.50457121  0.86960147  1
  O  O216  1  0.24404323  0.49501187  0.13038462  1
  O  O217  1  0.24818454  0.49252517  0.63233428  1
  O  O218  1  0.24942022  0.99706828  0.13478737  1
  O  O219  1  0.24054155  0.99228825  0.62583491  1
  O  O220  1  0.74404954  0.49807711  0.13135820  1
  O  O221  1  0.74584848  0.49436832  0.63148082  1
  O  O222  1  0.74403529  0.99487265  0.12980374  1
  O  O223  1  0.74376710  0.99469447  0.63197041  1
  O  O224  1  0.00473561  0.37077046  0.25479562  1
  O  O225  1  0.00532495  0.37053796  0.75603696  1
  O  O226  1  0.00401987  0.86938770  0.25632967  1
  O  O227  1  0.00328928  0.86601352  0.75369495  1
  O  O228  1  0.50475245  0.36585316  0.25131412  1
  O  O229  1  0.50583723  0.37055900  0.75569883  1
  O  O230  1  0.50439280  0.86536872  0.24724768  1
  O  O231  1  0.50443586  0.86992900  0.75414308  1
  O  O232  1  0.49479711  0.13431903  0.24914832  1
  O  O233  1  0.49086706  0.13032431  0.75225835  1
  O  O234  1  0.49421913  0.63230758  0.24328256  1
  O  O235  1  0.49456129  0.62820672  0.74539946  1
  O  O236  1  0.99486557  0.13073024  0.24329477  1
  O  O237  1  0.99249350  0.13351269  0.74824916  1
  O  O238  1  0.99375560  0.63084870  0.24507179  1
  O  O239  1  0.99470930  0.62997853  0.74508044  1
  O  O240  1  0.37385584  0.25873137  0.00159909  1
  O  O241  1  0.37089644  0.25739016  0.50070141  1
  O  O242  1  0.37056611  0.75403372  0.00333779  1
  O  O243  1  0.37298561  0.75442146  0.50267271  1
  O  O244  1  0.86996583  0.25524352  0.00360983  1
  O  O245  1  0.86990094  0.25674026  0.50557046  1
  O  O246  1  0.87001542  0.75628132  0.00724826  1
  O  O247  1  0.87535020  0.76207262  0.50816160  1
  O  O248  1  0.13122463  0.24062996  0.50039367  1
  O  O249  1  0.12843801  0.24559313  0.99067727  1
  O  O250  1  0.12513356  0.74260436  0.49220977  1
  O  O251  1  0.13075048  0.74820708  0.99086308  1
  O  O252  1  0.62979237  0.24609032  0.49565138  1
  O  O253  1  0.62963553  0.24538272  0.99411855  1
  O  O254  1  0.62456251  0.74900221  0.49720231  1
  O  O255  1  0.63421267  0.74741805  0.99829778  1
  O  O256  1  0.49876385  0.24825485  0.13748595  1
  O  O257  1  0.49794937  0.24611905  0.63430484  1
  O  O258  1  0.49389981  0.74439723  0.13160550  1
  O  O259  1  0.49774506  0.74265553  0.63259188  1
  O  O260  1  0.99482455  0.24242248  0.13052485  1
  O  O261  1  0.99278160  0.25043008  0.63220965  1
  O  O262  1  0.99427828  0.74479784  0.13123514  1
  O  O263  1  0.99455421  0.74463721  0.63167965  1
  O  O264  1  0.00140068  0.25822691  0.36848620  1
  O  O265  1  0.00518724  0.25560396  0.86915573  1
  O  O266  1  0.00469492  0.75599080  0.36927777  1
  O  O267  1  0.00944698  0.74896483  0.87049631  1
  O  O268  1  0.50645670  0.25104262  0.36425296  1
  O  O269  1  0.50695199  0.25650428  0.87007615  1
  O  O270  1  0.49669386  0.75104243  0.35887240  1
  O  O271  1  0.50117957  0.75580720  0.86760849  1
  O  O272  1  0.24275463  0.12952806  0.49626595  1
  O  O273  1  0.25268788  0.12576322  0.98668485  1
  O  O274  1  0.24297045  0.62415833  0.49288488  1
  O  O275  1  0.24942159  0.63085726  0.99177829  1
  O  O276  1  0.74375200  0.13283838  0.49972296  1
  O  O277  1  0.74458397  0.13086902  0.99367247  1
  O  O278  1  0.74589167  0.62930692  0.49926971  1
  O  O279  1  0.75195614  0.63122253  0.99408353  1
  O  O280  1  0.25692216  0.37521265  0.00628371  1
  O  O281  1  0.25669522  0.37097883  0.50452160  1
  O  O282  1  0.25811865  0.86693914  -0.00009770  1
  O  O283  1  0.25115555  0.87355370  0.50993972  1
  O  O284  1  0.75779889  0.36843663  -0.00027284  1
  O  O285  1  0.75583513  0.37093118  0.50596651  1
  O  O286  1  0.75604746  0.86975986  0.00646172  1
  O  O287  1  0.75896194  0.87581811  0.50767742  1
  O  O288  1  0.12968356  0.49440467  0.24407200  1
  O  O289  1  0.13186954  0.49280379  0.75001587  1
  O  O290  1  0.13233589  0.99342449  0.25085379  1
  O  O291  1  0.12729462  1.00035094  0.73800854  1
  O  O292  1  0.62887448  0.49442013  0.24443630  1
  O  O293  1  0.63123394  0.49377276  0.74529640  1
  O  O294  1  0.62917422  0.99580298  0.24332661  1
  O  O295  1  0.62957266  0.99507219  0.74534623  1
  O  O296  1  0.37163046  0.00460796  0.25785781  1
  O  O297  1  0.37578608  0.00988083  0.75669373  1
  O  O298  1  0.36859386  0.50617729  0.25024826  1
  O  O299  1  0.37013461  0.50358532  0.75581538  1
  O  O300  1  0.86675951  0.00694845  0.25018569  1
  O  O301  1  0.86854717  0.00595850  0.75470041  1
  O  O302  1  0.87005489  0.50495820  0.25495069  1
  O  O303  1  0.87069243  0.50504056  0.75570727  1
  O  O304  1  0.11810472  0.37457794  0.36858285  1
  O  O305  1  0.12034905  0.36949696  0.86945709  1
  O  O306  1  0.11886342  0.86971137  0.37073236  1
  O  O307  1  0.12559429  0.86236334  0.87303209  1
  O  O308  1  0.62225985  0.36764335  0.36726305  1
  O  O309  1  0.62056505  0.37039133  0.86975434  1
  O  O310  1  0.62038766  0.87293237  0.36402685  1
  O  O311  1  0.61824149  0.87395383  0.86797231  1
  O  O312  1  0.37828415  0.12708907  0.13334455  1
  O  O313  1  0.37494857  0.12464874  0.63788372  1
  O  O314  1  0.38065808  0.62990608  0.12989107  1
  O  O315  1  0.38126066  0.62351675  0.63210789  1
  O  O316  1  0.88284966  0.13121841  0.13058856  1
  O  O317  1  0.87499990  0.13251366  0.63175438  1
  O  O318  1  0.88081051  0.63095329  0.13178125  1
  O  O319  1  0.88120944  0.63091852  0.63171452  1
  O  O320  1  0.25216230  0.25832001  0.12390413  1
  O  O321  1  0.25362328  0.25671790  0.61883166  1
  O  O322  1  0.25658306  0.74982035  0.11771104  1
  O  O323  1  0.24992385  0.76035856  0.62240012  1
  O  O324  1  0.75688889  0.25123828  0.11702001  1
  O  O325  1  0.75524854  0.25714296  0.61997158  1
  O  O326  1  0.75633030  0.75564711  0.12104874  1
  O  O327  1  0.75759172  0.75836680  0.62690696  1
  O  O328  1  0.24785623  0.24220670  0.38260000  1
  O  O329  1  0.24495564  0.24038823  0.87555360  1
  O  O330  1  0.24253482  0.74282696  0.37432638  1
  O  O331  1  0.24324413  0.74432334  0.87840232  1
  O  O332  1  0.74390175  0.24993808  0.38253821  1
  O  O333  1  0.74469877  0.24505905  0.87960496  1
  O  O334  1  0.74648383  0.74642960  0.37821741  1
  O  O335  1  0.75085136  0.74333605  0.88177422  1
  O  O336  1  -0.00013534  0.12454396  0.01228632  1
  O  O337  1  0.01132863  0.12571886  0.50269581  1
  O  O338  1  0.00031699  0.61779438  0.00794493  1
  O  O339  1  0.00404988  0.62045029  0.50519326  1
  O  O340  1  0.50668072  0.11757774  -0.00159401  1
  O  O341  1  0.50569592  0.11513778  0.50073760  1
  O  O342  1  0.50039430  0.61780120  0.00571479  1
  O  O343  1  0.49787165  0.61193757  0.50657042  1
  O  O344  1  0.49136476  0.38165942  0.50146972  1
  O  O345  1  0.49530020  0.38068785  0.99392514  1
  O  O346  1  0.49840224  0.88989001  0.49794461  1
  O  O347  1  0.49474998  0.87886781  0.99347900  1
  O  O348  1  0.99464835  0.38035898  0.49524257  1
  O  O349  1  0.99545305  0.37979235  0.99386715  1
  O  O350  1  0.99026481  0.87596140  0.49532029  1
  O  O351  1  0.99080316  0.87694317  0.99791587  1
  O  O352  1  0.49721438  0.49665776  0.38684506  1
  O  O353  1  0.49528400  0.49452369  0.87915070  1
  O  O354  1  0.49180374  1.00165423  0.38214130  1
  O  O355  1  0.49469070  0.99298250  0.88035377  1
  O  O356  1  0.99352386  0.49478904  0.38019525  1
  O  O357  1  0.99565868  0.49490765  0.87989169  1
  O  O358  1  0.99600173  0.99133822  0.37884593  1
  O  O359  1  0.99120651  0.99922418  0.87603241  1
  O  O360  1  0.00011439  0.01242916  0.12565294  1
  O  O361  1  0.01134012  0.00292440  0.62258228  1
  O  O362  1  0.00475149  0.50472979  0.12046078  1
  O  O363  1  0.00081195  0.50704665  0.61832704  1
  O  O364  1  0.50631413  0.00056896  0.11667164  1
  O  O365  1  0.50528806  0.00222455  0.61565663  1
  O  O366  1  0.50507776  0.50485617  0.11944705  1
  O  O367  1  0.50507155  0.50321576  0.61829322  1
  O  O368  1  0.24488537  0.38043932  0.24561608  1
  O  O369  1  0.24602912  0.37899407  0.74601312  1
  O  O370  1  0.24307350  0.88129536  0.24982761  1
  O  O371  1  0.24628213  0.87755772  0.73823909  1
  O  O372  1  0.74358987  0.38172391  0.24716060  1
  O  O373  1  0.74546604  0.38083062  0.74547217  1
  O  O374  1  0.74446135  0.88098778  0.24278784  1
  O  O375  1  0.74490087  0.88148926  0.74572138  1
  O  O376  1  0.25516801  0.11939741  0.25704551  1
  O  O377  1  0.26004575  0.12487146  0.75954174  1
  O  O378  1  0.25427351  0.61963342  0.25400660  1
  O  O379  1  0.25538993  0.61875295  0.75486030  1
  O  O380  1  0.75634598  0.11925040  0.24928737  1
  O  O381  1  0.75455820  0.12031758  0.75546499  1
  O  O382  1  0.75751386  0.61744389  0.24995765  1
  O  O383  1  0.75708369  0.61934139  0.75474539  1
  O  O384  1  0.37008295  0.11563184  0.36991107  1
  O  O385  1  0.36860267  0.11996157  0.86760844  1
  O  O386  1  0.36736549  0.62261382  0.36653158  1
  O  O387  1  0.37009497  0.61814023  0.86827970  1
  O  O388  1  0.87304457  0.12368791  0.36711773  1
  O  O389  1  0.86846794  0.12105334  0.86909996  1
  O  O390  1  0.87583039  0.61816691  0.36819619  1
  O  O391  1  0.87168400  0.61920107  0.86960211  1
  O  O392  1  0.12953684  0.38074812  0.13082733  1
  O  O393  1  0.13151141  0.37659039  0.63217416  1
  O  O394  1  0.12681381  0.87602108  0.13478548  1
  O  O395  1  0.13168952  0.88401623  0.62368353  1
  O  O396  1  0.62683061  0.38184609  0.13135292  1
  O  O397  1  0.63121698  0.37991381  0.63179690  1
  O  O398  1  0.63113062  0.88159417  0.12895847  1
  O  O399  1  0.63003569  0.88209908  0.63176952  1
  O  O400  1  0.11795776  0.25739194  0.25278329  1
  O  O401  1  0.11977391  0.25559663  0.75543936  1
  O  O402  1  0.11827391  0.75542036  0.25619244  1
  O  O403  1  0.11938364  0.74918169  0.76004126  1
  O  O404  1  0.61789094  0.25386902  0.25366500  1
  O  O405  1  0.62156439  0.25551498  0.75612638  1
  O  O406  1  0.61348347  0.75575268  0.24512350  1
  O  O407  1  0.61804562  0.75713533  0.75148868  1
  O  O408  1  0.38425041  0.24432769  0.25184070  1
  O  O409  1  0.38183437  0.24028014  0.75115005  1
  O  O410  1  0.38202017  0.74517127  0.24310653  1
  O  O411  1  0.38157323  0.74180590  0.74770643  1
  O  O412  1  0.88025603  0.24558992  0.24416483  1
  O  O413  1  0.87915333  0.24605327  0.74527899  1
  O  O414  1  0.88044553  0.74611908  0.24475494  1
  O  O415  1  0.88063412  0.74455974  0.74593797  1
  O  O416  1  0.38395464  0.48994590  0.50052401  1
  O  O417  1  0.38142088  0.49423398  0.99347352  1
  O  O418  1  0.38285480  1.00260874  0.49091351  1
  O  O419  1  0.38091306  0.99332421  0.99374668  1
  O  O420  1  0.88039317  0.49440177  0.49522443  1
  O  O421  1  0.88109502  0.49433539  0.99477034  1
  O  O422  1  0.87604413  0.98844670  0.50195064  1
  O  O423  1  0.87468427  0.99424936  0.99347938  1
  O  O424  1  0.12196965  0.00498321  0.00400546  1
  O  O425  1  0.12495813  0.01044294  0.50839121  1
  O  O426  1  0.11813512  0.50113907  0.00643305  1
  O  O427  1  0.11702873  0.50711689  0.50100639  1
  O  O428  1  0.62063243  0.00479760  0.00392671  1
  O  O429  1  0.61779730  0.00464201  0.50381322  1
  O  O430  1  0.61848792  0.50054603  0.00631831  1
  O  O431  1  0.61370857  0.49504159  0.50694400  1
  O  O432  1  0.36818115  0.37454361  0.11819051  1
  O  O433  1  0.36901115  0.37285108  0.61479973  1
  O  O434  1  0.37334527  0.86736536  0.11638740  1
  O  O435  1  0.36326770  0.87620119  0.62253007  1
  O  O436  1  0.87546326  0.36810716  0.11743843  1
  O  O437  1  0.86955003  0.37061415  0.62005312  1
  O  O438  1  0.86938046  0.87000410  0.12093830  1
  O  O439  1  0.87047733  0.87127807  0.61946320  1
  O  O440  1  0.13062987  0.12440819  0.38601155  1
  O  O441  1  0.13550415  0.12993695  0.87242240  1
  O  O442  1  0.12899123  0.63044488  0.37907317  1
  O  O443  1  0.13136785  0.63469522  0.87639474  1
  O  O444  1  0.62801089  0.13256958  0.38213578  1
  O  O445  1  0.63075393  0.13043935  0.87950016  1
  O  O446  1  0.62656155  0.62908448  0.37939588  1
  O  O447  1  0.63525860  0.62633849  0.87746922  1
