# generated using pymatgen
data_V3Zn3O8
_symmetry_space_group_name_H-M   'P 1'
_cell_length_a   17.08605869
_cell_length_b   17.08701549
_cell_length_c   17.08811277
_cell_angle_alpha   89.99975991
_cell_angle_beta   90.02017156
_cell_angle_gamma   89.99976166
_symmetry_Int_Tables_number   1
_chemical_formula_structural   V3Zn3O8
_chemical_formula_sum   'V96 Zn96 O256'
_cell_volume   4988.86993149
_cell_formula_units_Z   32
loop_
 _symmetry_equiv_pos_site_id
 _symmetry_equiv_pos_as_xyz
  1  'x, y, z'
loop_
 _atom_site_type_symbol
 _atom_site_label
 _atom_site_symmetry_multiplicity
 _atom_site_fract_x
 _atom_site_fract_y
 _atom_site_fract_z
 _atom_site_occupancy
  V  V0  1  0.12537491  0.49960997  0.12505877  1
  V  V1  1  0.25190346  0.37562670  0.12372596  1
  V  V2  1  0.74984069  0.62491486  0.37511649  1
  V  V3  1  0.24954336  0.62576994  0.37491584  1
  V  V4  1  0.37473809  0.75046261  0.62492488  1
  V  V5  1  0.62466828  0.12504204  -0.00080159  1
  V  V6  1  0.12450338  0.50101501  0.62476035  1
  V  V7  1  0.25055411  0.25037432  0.49991082  1
  V  V8  1  0.87507887  0.12442316  0.75064797  1
  V  V9  1  0.37675553  0.12714157  0.24949186  1
  V  V10  1  0.37511511  0.75061274  0.12484923  1
  V  V11  1  -0.00057878  0.87399356  0.87670089  1
  V  V12  1  0.49877474  0.75027066  0.74889251  1
  V  V13  1  0.75057795  0.24925841  -0.00011987  1
  V  V14  1  0.37566982  0.50043419  0.37543838  1
  V  V15  1  0.25005862  0.87546697  0.12570166  1
  V  V16  1  0.49954349  0.25039342  0.74898377  1
  V  V17  1  0.12416783  0.75033089  0.87601388  1
  V  V18  1  0.87545950  0.62419840  0.25006477  1
  V  V19  1  0.75019890  -0.00011562  0.25212007  1
  V  V20  1  0.00129062  0.12336201  0.62436209  1
  V  V21  1  0.12410166  0.37390391  0.75062728  1
  V  V22  1  0.24971070  0.50078365  0.75003983  1
  V  V23  1  0.62500067  0.00001234  0.12428644  1
  V  V24  1  0.12414672  0.74998539  0.37489927  1
  V  V25  1  0.00123243  0.25009664  0.75090430  1
  V  V26  1  0.49969199  0.75128739  0.25070175  1
  V  V27  1  0.00000602  0.74893017  0.25072870  1
  V  V28  1  0.12562082  0.12644762  0.00012290  1
  V  V29  1  0.12643506  -0.00018986  0.12472390  1
  V  V30  1  0.87534794  0.62498497  0.74992145  1
  V  V31  1  0.75009843  0.12409128  0.87430796  1
  V  V32  1  0.62452780  0.37483789  0.24958749  1
  V  V33  1  0.75109545  0.37496328  0.62478107  1
  V  V34  1  0.12647973  0.37401348  0.24975166  1
  V  V35  1  0.87377884  0.74944505  0.62532584  1
  V  V36  1  0.87602067  0.24816567  0.12477568  1
  V  V37  1  0.25020863  0.62481428  0.87481594  1
  V  V38  1  0.25035343  0.50053899  0.25000091  1
  V  V39  1  0.75003192  0.24997285  0.50138247  1
  V  V40  1  0.00059619  -0.00099932  0.00140272  1
  V  V41  1  -0.00010653  0.62475224  0.12652256  1
  V  V42  1  0.37483915  0.12565356  0.74956364  1
  V  V43  1  0.50278808  0.62412676  0.12274325  1
  V  V44  1  0.75026446  0.49916325  0.24962963  1
  V  V45  1  0.12408733  0.62451481  0.50081877  1
  V  V46  1  0.74992949  0.74972791  0.50008672  1
  V  V47  1  0.25038798  0.00079882  0.24943460  1
  V  V48  1  0.49990799  0.00047966  -0.00049081  1
  V  V49  1  -0.00065975  0.62480095  0.62533319  1
  V  V50  1  0.75022878  0.87395984  0.62487550  1
  V  V51  1  0.87470365  0.24978920  0.62496737  1
  V  V52  1  0.12538109  0.24993834  0.37398841  1
  V  V53  1  0.37532397  0.50071571  0.87360459  1
  V  V54  1  0.49972815  0.50021025  0.49969503  1
  V  V55  1  0.62564806  0.74879317  0.87563485  1
  V  V56  1  0.49959325  0.12586788  0.12506285  1
  V  V57  1  0.49931706  0.12543605  0.62506603  1
  V  V58  1  0.37442251  0.37573996  0.49944560  1
  V  V59  1  0.37368820  0.87676747  0.50023643  1
  V  V60  1  0.49961984  0.87603261  0.37543551  1
  V  V61  1  0.24945432  0.12616179  0.87436787  1
  V  V62  1  0.87495451  0.49835120  0.37551893  1
  V  V63  1  -0.00032377  0.49873267  -0.00058626  1
  V  V64  1  0.37583322  0.37563837  0.00025404  1
  V  V65  1  0.87638297  0.49898256  0.87605272  1
  V  V66  1  0.87427905  0.87406671  0.00064740  1
  V  V67  1  0.50021222  0.37681176  0.87456009  1
  V  V68  1  0.12462218  0.87692783  0.74963486  1
  V  V69  1  0.24988244  0.75014988  0.00045411  1
  V  V70  1  0.24954714  0.75066922  0.50049754  1
  V  V71  1  0.75000487  0.87294707  0.12510517  1
  V  V72  1  -0.00052555  0.37436959  0.37498001  1
  V  V73  1  0.25065954  0.12496256  0.37460015  1
  V  V74  1  0.49962748  0.62534698  0.62446070  1
  V  V75  1  0.62450356  0.87509451  0.74951079  1
  V  V76  1  0.12506778  0.62459793  0.00059478  1
  V  V77  1  0.74936413  0.62559899  0.87607751  1
  V  V78  1  0.62436481  0.00064180  0.62440980  1
  V  V79  1  0.62511946  0.37540915  0.75003516  1
  V  V80  1  0.37505232  0.00106506  0.87403947  1
  V  V81  1  0.62558814  0.25069088  0.87451648  1
  V  V82  1  0.74996607  0.00023259  0.75010172  1
  V  V83  1  0.37491163  0.87583343  -0.00052849  1
  V  V84  1  0.37469263  0.62563567  0.24994014  1
  V  V85  1  0.75051894  0.37389054  0.12493494  1
  V  V86  1  -0.00169097  0.87649828  0.37656230  1
  V  V87  1  0.75068148  0.49996022  0.75001586  1
  V  V88  1  0.62439192  0.12549059  0.50093766  1
  V  V89  1  0.49971532  0.87494099  0.87436144  1
  V  V90  1  0.62480387  0.50035303  0.62405780  1
  V  V91  1  0.87575684  0.12372703  0.25096845  1
  V  V92  1  0.12399673  0.12358856  0.50035561  1
  V  V93  1  0.24982966  0.37507406  0.62429847  1
  V  V94  1  0.62500237  0.74927461  0.37567795  1
  V  V95  1  0.62523106  0.24918083  0.37444005  1
  Zn  Zn96  1  0.75088969  0.12245130  0.37836818  1
  Zn  Zn97  1  0.62481583  0.62397298  0.49945547  1
  Zn  Zn98  1  0.49901476  0.00209850  0.49984696  1
  Zn  Zn99  1  -0.00114367  0.75033144  0.75065574  1
  Zn  Zn100  1  0.00193871  0.24707812  0.24845230  1
  Zn  Zn101  1  0.24916962  0.00040579  0.74635253  1
  Zn  Zn102  1  0.37686887  0.25208422  0.12409178  1
  Zn  Zn103  1  0.50429178  0.50160964  -0.00190021  1
  Zn  Zn104  1  0.12477518  -0.00215924  0.62252812  1
  Zn  Zn105  1  -0.00239314  -0.00004157  0.50106093  1
  Zn  Zn106  1  0.87670100  0.37346894  -0.00143879  1
  Zn  Zn107  1  0.87442501  -0.00072155  0.87511380  1
  Zn  Zn108  1  0.00061012  0.37276043  0.87702328  1
  Zn  Zn109  1  0.37373931  0.62613160  0.74969193  1
  Zn  Zn110  1  0.62684250  0.50057161  0.12230125  1
  Zn  Zn111  1  0.62769903  0.62390465  0.00033890  1
  Zn  Zn112  1  0.50050221  0.25135902  0.24818504  1
  Zn  Zn113  1  0.25012892  0.25134786  0.00087559  1
  Zn  Zn114  1  0.74881483  0.74774484  0.00111264  1
  Zn  Zn115  1  0.12511680  0.87572916  0.25008398  1
  Zn  Zn116  1  0.00169725  0.12383615  0.12549927  1
  Zn  Zn117  1  0.37540191  0.00182584  0.37609995  1
  Zn  Zn118  1  0.37468878  0.24991605  0.62418363  1
  Zn  Zn119  1  0.62455680  0.87591913  0.25025487  1
  Zn  Zn120  1  0.12411928  0.25194736  0.87600840  1
  Zn  Zn121  1  0.87462213  0.74811028  0.12571379  1
  Zn  Zn122  1  0.87510274  0.00012505  0.37796087  1
  Zn  Zn123  1  -0.00173679  0.49927126  0.50098191  1
  Zn  Zn124  1  0.49944522  0.37583253  0.37407259  1
  Zn  Zn125  1  0.24785604  0.87654292  0.62642557  1
  Zn  Zn126  1  0.87568158  0.37492363  0.50043724  1
  Zn  Zn127  1  0.87479190  0.87808747  0.50115179  1
  Zn  Zn128  1  0.19132381  0.18995926  0.18540818  1
  Zn  Zn129  1  0.18670515  0.18823077  0.68643900  1
  Zn  Zn130  1  0.18612007  0.68837806  0.18823868  1
  Zn  Zn131  1  0.18676652  0.69007737  0.68822730  1
  Zn  Zn132  1  0.68876481  0.18666909  0.18724009  1
  Zn  Zn133  1  0.68724792  0.18768566  0.68739901  1
  Zn  Zn134  1  0.68595628  0.68878316  0.19127736  1
  Zn  Zn135  1  0.68655037  0.68650640  0.68793783  1
  Zn  Zn136  1  0.31253923  0.31242771  0.31314357  1
  Zn  Zn137  1  0.31185116  0.31214751  0.81223909  1
  Zn  Zn138  1  0.31217295  0.81284516  0.31282019  1
  Zn  Zn139  1  0.31094364  0.81258833  0.81195320  1
  Zn  Zn140  1  0.81135060  0.31091906  0.31251956  1
  Zn  Zn141  1  0.81470079  0.31318755  0.81260411  1
  Zn  Zn142  1  0.81485733  0.81107991  0.31304327  1
  Zn  Zn143  1  0.81205443  0.81145508  0.81241661  1
  Zn  Zn144  1  0.18720852  0.43857524  0.43802570  1
  Zn  Zn145  1  0.18722855  0.43751554  0.93600374  1
  Zn  Zn146  1  0.18552856  0.93939908  0.43592283  1
  Zn  Zn147  1  0.18781578  0.93917878  0.93612042  1
  Zn  Zn148  1  0.68794501  0.43659918  0.43805460  1
  Zn  Zn149  1  0.68848556  0.43905165  0.93992481  1
  Zn  Zn150  1  0.68618505  0.93630915  0.43951976  1
  Zn  Zn151  1  0.68726803  0.93717610  0.93672611  1
  Zn  Zn152  1  0.31262732  0.06276050  0.06281049  1
  Zn  Zn153  1  0.30967974  0.06063360  0.56491899  1
  Zn  Zn154  1  0.31441175  0.56158798  0.06145872  1
  Zn  Zn155  1  0.31254419  0.56337783  0.56295546  1
  Zn  Zn156  1  0.81227323  0.06096669  0.06299511  1
  Zn  Zn157  1  0.81353309  0.06167840  0.56224602  1
  Zn  Zn158  1  0.81308513  0.56126981  0.06191932  1
  Zn  Zn159  1  0.81321648  0.56231895  0.56023461  1
  Zn  Zn160  1  0.43917764  0.43969764  0.18760395  1
  Zn  Zn161  1  0.43614617  0.43822472  0.68644752  1
  Zn  Zn162  1  0.43632812  0.93967691  0.18786530  1
  Zn  Zn163  1  0.43710237  0.93933741  0.68680899  1
  Zn  Zn164  1  0.93816193  0.43610357  0.18803819  1
  Zn  Zn165  1  0.93850643  0.43698860  0.68844184  1
  Zn  Zn166  1  0.93896068  0.93673429  0.18828041  1
  Zn  Zn167  1  0.93821252  0.93782203  0.68770637  1
  Zn  Zn168  1  0.06288613  0.06157157  0.31242028  1
  Zn  Zn169  1  0.06009489  0.06057546  0.81404389  1
  Zn  Zn170  1  0.06231524  0.56102450  0.31340023  1
  Zn  Zn171  1  0.06165887  0.56190953  0.81213035  1
  Zn  Zn172  1  0.56317235  0.06213394  0.31291481  1
  Zn  Zn173  1  0.56225340  0.06283722  0.81138860  1
  Zn  Zn174  1  0.56286043  0.56235788  0.31173357  1
  Zn  Zn175  1  0.56210217  0.56400353  0.81072870  1
  Zn  Zn176  1  0.43853368  0.18959634  0.43711252  1
  Zn  Zn177  1  0.43782317  0.18974716  0.93636300  1
  Zn  Zn178  1  0.43739911  0.68795473  0.43901469  1
  Zn  Zn179  1  0.43748015  0.68809905  0.93691437  1
  Zn  Zn180  1  0.93767575  0.18801385  0.43776054  1
  Zn  Zn181  1  0.93897574  0.18639952  0.93622825  1
  Zn  Zn182  1  0.93653009  0.68770588  0.43920833  1
  Zn  Zn183  1  0.93674648  0.68721453  0.93828004  1
  Zn  Zn184  1  0.06153405  0.31204447  0.06265551  1
  Zn  Zn185  1  0.06253121  0.31120071  0.56232735  1
  Zn  Zn186  1  0.06235549  0.81197298  0.06439706  1
  Zn  Zn187  1  0.06014005  0.81089049  0.56306280  1
  Zn  Zn188  1  0.56143042  0.31158226  0.06250386  1
  Zn  Zn189  1  0.56139238  0.31357661  0.56221858  1
  Zn  Zn190  1  0.56387921  0.81147661  0.06091617  1
  Zn  Zn191  1  0.56292921  0.81150747  0.56140972  1
  O  O192  1  0.12726849  0.11965354  0.11490576  1
  O  O193  1  0.11819285  0.12562583  0.61768995  1
  O  O194  1  0.12055586  0.61902410  0.12023104  1
  O  O195  1  0.11991693  0.62094481  0.62044769  1
  O  O196  1  0.62059893  0.11962096  0.11854166  1
  O  O197  1  0.61928039  0.12036717  0.62094215  1
  O  O198  1  0.61366869  0.62626920  0.12656047  1
  O  O199  1  0.61810517  0.61765122  0.62392820  1
  O  O200  1  0.37563817  0.38281531  0.38048809  1
  O  O201  1  0.37954867  0.38053505  0.88141508  1
  O  O202  1  0.38343229  0.87379651  0.38362648  1
  O  O203  1  0.38020622  0.88023795  0.88033786  1
  O  O204  1  0.88411662  0.37826241  0.37333434  1
  O  O205  1  0.87779918  0.38320515  0.87733366  1
  O  O206  1  0.88637881  0.87507665  0.37626783  1
  O  O207  1  0.87883267  0.87559794  0.88510235  1
  O  O208  1  0.25211191  0.00747507  0.36740884  1
  O  O209  1  0.25677071  0.01132864  0.87470589  1
  O  O210  1  0.25505487  0.50662188  0.36941360  1
  O  O211  1  0.25512341  0.50606423  0.86938815  1
  O  O212  1  0.74957598  -0.00118303  0.36245032  1
  O  O213  1  0.74958837  0.00648929  0.86802611  1
  O  O214  1  0.75500491  0.50434810  0.36912823  1
  O  O215  1  0.75570982  0.50511190  0.86869404  1
  O  O216  1  0.24495982  0.49628994  0.13075182  1
  O  O217  1  0.24417834  0.49562930  0.63025374  1
  O  O218  1  0.24619736  0.99411761  0.12913601  1
  O  O219  1  0.24355780  0.99441842  0.62916661  1
  O  O220  1  0.75020763  0.49223111  0.13288308  1
  O  O221  1  0.74525124  0.49497892  0.63047600  1
  O  O222  1  0.74508529  0.99194589  0.13239991  1
  O  O223  1  0.74345084  0.99441057  0.63122422  1
  O  O224  1  0.00741751  0.37291370  0.25924879  1
  O  O225  1  0.00718135  0.36783394  0.75014331  1
  O  O226  1  0.00176533  0.86787793  0.25835677  1
  O  O227  1  0.00712786  0.87285745  0.75845123  1
  O  O228  1  0.51158591  0.37376239  0.25118703  1
  O  O229  1  0.50545442  0.37038288  0.75450625  1
  O  O230  1  0.49796774  0.87032281  0.25956747  1
  O  O231  1  0.50505633  0.87055466  0.75521863  1
  O  O232  1  0.49212020  0.12411347  0.24423196  1
  O  O233  1  0.49510913  0.13112678  0.74570297  1
  O  O234  1  0.49391923  0.63127089  0.24290857  1
  O  O235  1  0.49708414  0.63280824  0.74280820  1
  O  O236  1  0.98867750  0.12544502  0.24693029  1
  O  O237  1  0.99477281  0.12977429  0.74543229  1
  O  O238  1  0.99533758  0.62827511  0.24608761  1
  O  O239  1  0.99330608  0.62661622  0.74361081  1
  O  O240  1  0.37448444  0.26473448  -0.00087931  1
  O  O241  1  0.36815837  0.25748465  0.49998444  1
  O  O242  1  0.36934513  0.75653610  0.00503493  1
  O  O243  1  0.36949747  0.75812184  0.50445912  1
  O  O244  1  0.86969868  0.24728582  0.00997687  1
  O  O245  1  0.86769719  0.25076986  0.50697092  1
  O  O246  1  0.87281200  0.76266623  0.00387594  1
  O  O247  1  0.86676438  0.75098779  0.50763285  1
  O  O248  1  0.13145564  0.24465202  0.49308986  1
  O  O249  1  0.12637639  0.23806419  0.99913573  1
  O  O250  1  0.13048598  0.74378124  0.49464182  1
  O  O251  1  0.13100745  0.74424340  0.99639333  1
  O  O252  1  0.62968441  0.24634099  0.49287985  1
  O  O253  1  0.63042956  0.24420345  0.99389537  1
  O  O254  1  0.63160278  0.74743155  0.49328853  1
  O  O255  1  0.62759541  0.74754212  0.99072504  1
  O  O256  1  0.49741256  0.24115746  0.12759131  1
  O  O257  1  0.49917474  0.24390744  0.63183991  1
  O  O258  1  0.49425574  0.74476750  0.13034235  1
  O  O259  1  0.49503546  0.74553271  0.62948809  1
  O  O260  1  0.98852979  0.24667564  0.12752191  1
  O  O261  1  0.99412453  0.24404391  0.63072494  1
  O  O262  1  0.99992266  0.74216947  0.13232098  1
  O  O263  1  0.99177357  0.74204190  0.62702499  1
  O  O264  1  0.00612715  0.25885248  0.37168044  1
  O  O265  1  0.00249276  0.25109221  0.86633419  1
  O  O266  1  0.00482056  0.75582174  0.37035527  1
  O  O267  1  0.00695355  0.75606504  0.87601534  1
  O  O268  1  0.51404111  0.25308280  0.37247732  1
  O  O269  1  0.50675276  0.25637506  0.86893750  1
  O  O270  1  0.50369058  0.75723558  0.37052994  1
  O  O271  1  0.50410458  0.75646867  0.86900996  1
  O  O272  1  0.24541608  0.13082512  0.49374466  1
  O  O273  1  0.24277186  0.12490331  0.99215320  1
  O  O274  1  0.24473778  0.63082336  0.49403220  1
  O  O275  1  0.24479723  0.63031276  0.99590403  1
  O  O276  1  0.74218975  0.13205862  0.50012278  1
  O  O277  1  0.74370923  0.12858731  0.99490001  1
  O  O278  1  0.74792194  0.63112373  0.49231927  1
  O  O279  1  0.74973096  0.62810642  0.99248764  1
  O  O280  1  0.25967515  0.37661752  0.00460349  1
  O  O281  1  0.25435415  0.37066318  0.50442319  1
  O  O282  1  0.25579676  0.87015113  0.00476556  1
  O  O283  1  0.25938750  0.86900779  0.49710186  1
  O  O284  1  0.75223652  0.36622987  0.00681268  1
  O  O285  1  0.75106907  0.36785185  0.50750845  1
  O  O286  1  0.75739125  0.87687096  0.00906278  1
  O  O287  1  0.75024417  0.86776070  0.50749922  1
  O  O288  1  0.13154676  0.49471719  0.24477234  1
  O  O289  1  0.13078015  0.49486285  0.74408768  1
  O  O290  1  0.13308479  1.00025581  0.24221493  1
  O  O291  1  0.12498242  0.98715181  0.75225286  1
  O  O292  1  0.63147426  0.48948126  0.24950886  1
  O  O293  1  0.63075465  0.49406775  0.74422169  1
  O  O294  1  0.63428280  0.99878680  0.24340652  1
  O  O295  1  0.62976458  0.99467524  0.74450303  1
  O  O296  1  0.36945730  0.01164395  0.25077485  1
  O  O297  1  0.37455254  0.00709580  0.75752658  1
  O  O298  1  0.36941280  0.50627778  0.25546643  1
  O  O299  1  0.36718338  0.50158534  0.75581529  1
  O  O300  1  0.86618204  0.00812395  0.24848598  1
  O  O301  1  0.86729042  0.00646389  0.75169703  1
  O  O302  1  0.86963957  0.50440414  0.25573379  1
  O  O303  1  0.86937967  0.50549092  0.75508610  1
  O  O304  1  0.11914552  0.37082760  0.36952564  1
  O  O305  1  0.12364170  0.37263684  0.86641615  1
  O  O306  1  0.11633825  0.86776373  0.37301072  1
  O  O307  1  0.11972516  0.86974521  0.87096415  1
  O  O308  1  0.62609963  0.36690385  0.36543614  1
  O  O309  1  0.62071163  0.36994182  0.86929717  1
  O  O310  1  0.61394482  0.86924563  0.37466679  1
  O  O311  1  0.61878888  0.87050117  0.86911342  1
  O  O312  1  0.38031284  0.12587081  0.13323963  1
  O  O313  1  0.38108318  0.12639358  0.63161190  1
  O  O314  1  0.38179640  0.63107537  0.13013807  1
  O  O315  1  0.38110799  0.63265852  0.62594249  1
  O  O316  1  0.87424415  0.13220951  0.13286859  1
  O  O317  1  0.88004941  0.13101876  0.63176524  1
  O  O318  1  0.88206838  0.62508431  0.13226358  1
  O  O319  1  0.87893888  0.62896639  0.63066315  1
  O  O320  1  0.25608881  0.26015730  0.12103506  1
  O  O321  1  0.25123973  0.25735342  0.61741949  1
  O  O322  1  0.25552968  0.75463696  0.11996225  1
  O  O323  1  0.25603710  0.75320534  0.61776892  1
  O  O324  1  0.75772231  0.25277367  0.11942836  1
  O  O325  1  0.75451197  0.25546996  0.62124393  1
  O  O326  1  0.75047355  0.76264745  0.12595877  1
  O  O327  1  0.75347836  0.75454971  0.62058067  1
  O  O328  1  0.24424333  0.24482132  0.37994249  1
  O  O329  1  0.24857614  0.23714294  0.87808804  1
  O  O330  1  0.24476622  0.74428230  0.37974475  1
  O  O331  1  0.24489465  0.74481396  0.88230028  1
  O  O332  1  0.73946406  0.24860333  0.38093205  1
  O  O333  1  0.74481103  0.24422129  0.87954494  1
  O  O334  1  0.74492011  0.74514380  0.37895299  1
  O  O335  1  0.74299446  0.74370064  0.87501003  1
  O  O336  1  0.01043045  0.11827284  0.00040351  1
  O  O337  1  0.00680313  0.12656072  0.50619570  1
  O  O338  1  0.00613611  0.61974911  0.00673949  1
  O  O339  1  0.00680974  0.62302721  0.50635235  1
  O  O340  1  0.50510320  0.11981380  0.00355158  1
  O  O341  1  0.50613271  0.12468496  0.50643271  1
  O  O342  1  0.49956756  0.62591265  0.01209093  1
  O  O343  1  0.50127483  0.61847795  0.50629390  1
  O  O344  1  0.49291504  0.38231765  0.49826809  1
  O  O345  1  0.49217965  0.37673054  0.99361351  1
  O  O346  1  0.49077984  0.87377158  0.49110450  1
  O  O347  1  0.49429716  0.88069324  0.99456910  1
  O  O348  1  0.99957180  0.37565888  0.48670620  1
  O  O349  1  0.99811340  0.38315490  0.99888845  1
  O  O350  1  0.99877473  0.87431746  0.48831401  1
  O  O351  1  0.99222122  0.87891853  0.99759007  1
  O  O352  1  0.49298253  0.50011475  0.38066691  1
  O  O353  1  0.49362710  0.49388993  0.87395067  1
  O  O354  1  0.49853256  0.98803216  0.37686513  1
  O  O355  1  0.49554524  0.99487598  0.88036001  1
  O  O356  1  0.99474570  0.48965781  0.37499352  1
  O  O357  1  0.99404133  0.50000755  0.88213705  1
  O  O358  1  0.99896711  0.98767602  0.37362854  1
  O  O359  1  0.99669974  0.99198726  0.88422823  1
  O  O360  1  0.00783698  0.00089704  0.11887972  1
  O  O361  1  0.00278942  0.00890841  0.62361807  1
  O  O362  1  0.00638655  0.50490781  0.12113109  1
  O  O363  1  0.00679433  0.50626561  0.62377291  1
  O  O364  1  0.50530761  0.00483403  0.11852134  1
  O  O365  1  0.50739900  0.00713057  0.62384528  1
  O  O366  1  0.50148201  0.51379505  0.12511130  1
  O  O367  1  0.50491505  0.50528398  0.61997030  1
  O  O368  1  0.24614547  0.38167873  0.24472964  1
  O  O369  1  0.24472752  0.38045973  0.74422422  1
  O  O370  1  0.25044460  0.88169676  0.24329034  1
  O  O371  1  0.23794717  0.87677341  0.75134856  1
  O  O372  1  0.74236936  0.37870055  0.24537889  1
  O  O373  1  0.74434568  0.38010465  0.74477263  1
  O  O374  1  0.75147639  0.88335089  0.24123475  1
  O  O375  1  0.74342593  0.88029880  0.74502381  1
  O  O376  1  0.25879842  0.12126528  0.25387719  1
  O  O377  1  0.25483502  0.12465855  0.75943265  1
  O  O378  1  0.25515735  0.62038843  0.25475590  1
  O  O379  1  0.25008680  0.61946604  0.75703373  1
  O  O380  1  0.75745548  0.11450678  0.24927204  1
  O  O381  1  0.75445197  0.12015450  0.75482768  1
  O  O382  1  0.75533652  0.61940304  0.25533080  1
  O  O383  1  0.75543614  0.61841951  0.75512322  1
  O  O384  1  0.37054012  0.12463259  0.36614924  1
  O  O385  1  0.36851596  0.12086718  0.87109113  1
  O  O386  1  0.36900850  0.62128670  0.36942605  1
  O  O387  1  0.36801420  0.61939724  0.87426914  1
  O  O388  1  0.87161396  0.12519026  0.36268227  1
  O  O389  1  0.86738922  0.12278393  0.86909145  1
  O  O390  1  0.86981395  0.61883728  0.36928020  1
  O  O391  1  0.86966582  0.61970151  0.86957327  1
  O  O392  1  0.13100912  0.38061955  0.12997335  1
  O  O393  1  0.13051094  0.38098647  0.62956920  1
  O  O394  1  0.13296071  0.88123489  0.12567800  1
  O  O395  1  0.12352604  0.87315926  0.63743630  1
  O  O396  1  0.63130675  0.37233505  0.13541965  1
  O  O397  1  0.63070098  0.38029016  0.63116854  1
  O  O398  1  0.63370341  0.88129181  0.12522846  1
  O  O399  1  0.62951730  0.87989680  0.63053364  1
  O  O400  1  0.12551093  0.25613552  0.25539139  1
  O  O401  1  0.11859069  0.25614830  0.75084007  1
  O  O402  1  0.11868618  0.75074120  0.25738263  1
  O  O403  1  0.12296763  0.75921661  0.75835054  1
  O  O404  1  0.62759812  0.25718170  0.25792679  1
  O  O405  1  0.62008336  0.25576853  0.75558345  1
  O  O406  1  0.61746114  0.75501957  0.25779780  1
  O  O407  1  0.61868396  0.75670567  0.75471710  1
  O  O408  1  0.37720620  0.23840490  0.24968133  1
  O  O409  1  0.38211834  0.24404817  0.74889058  1
  O  O410  1  0.37926499  0.74472231  0.24432521  1
  O  O411  1  0.38117577  0.75079034  0.74331006  1
  O  O412  1  0.87157715  0.23957139  0.24060869  1
  O  O413  1  0.87987098  0.24355879  0.74434347  1
  O  O414  1  0.88181533  0.74114729  0.24848310  1
  O  O415  1  0.87528062  0.74250754  0.74360120  1
  O  O416  1  0.37909129  0.49557464  0.49423863  1
  O  O417  1  0.37742835  0.49022277  0.99315459  1
  O  O418  1  0.37671432  0.98850694  0.49792557  1
  O  O419  1  0.38097190  0.99524077  0.99444478  1
  O  O420  1  0.87734008  0.49558055  0.49123569  1
  O  O421  1  0.88223040  0.49791139  0.99422436  1
  O  O422  1  0.87790756  0.99694091  0.49514778  1
  O  O423  1  0.88003236  0.98922633  1.00054888  1
  O  O424  1  0.12138971  0.00771348  0.00490013  1
  O  O425  1  0.12090310  0.00947736  0.50008205  1
  O  O426  1  0.12092032  0.50594088  0.00604478  1
  O  O427  1  0.12449594  0.50728146  0.50685210  1
  O  O428  1  0.61921879  0.00558743  0.00405941  1
  O  O429  1  0.62355250  0.00704679  0.50691920  1
  O  O430  1  0.62178826  0.50447858  0.00489733  1
  O  O431  1  0.61855299  0.50027406  0.50639640  1
  O  O432  1  0.37141815  0.37789321  0.11583765  1
  O  O433  1  0.36723896  0.37454853  0.61764977  1
  O  O434  1  0.37068181  0.87028710  0.11878037  1
  O  O435  1  0.37613462  0.86952978  0.61436901  1
  O  O436  1  0.86940884  0.36280534  0.12689805  1
  O  O437  1  0.86866032  0.36790249  0.62494354  1
  O  O438  1  0.86634813  0.87474005  0.11770429  1
  O  O439  1  0.86746962  0.86765739  0.62605314  1
  O  O440  1  0.13067958  0.13118694  0.37886880  1
  O  O441  1  0.13356759  0.12297403  0.88399245  1
  O  O442  1  0.13042918  0.62928180  0.38015475  1
  O  O443  1  0.13034760  0.62989899  0.88150892  1
  O  O444  1  0.62686946  0.13352629  0.38024955  1
  O  O445  1  0.62954596  0.13100139  0.87970315  1
  O  O446  1  0.63200730  0.63124847  0.37476045  1
  O  O447  1  0.63129392  0.63168406  0.87360498  1
