# generated using pymatgen
data_V3Zn3O8
_symmetry_space_group_name_H-M   'P 1'
_cell_length_a   17.08696012
_cell_length_b   17.08696198
_cell_length_c   17.08760838
_cell_angle_alpha   89.99918346
_cell_angle_beta   89.99425108
_cell_angle_gamma   89.99728254
_symmetry_Int_Tables_number   1
_chemical_formula_structural   V3Zn3O8
_chemical_formula_sum   'V96 Zn96 O256'
_cell_volume   4988.97052604
_cell_formula_units_Z   32
loop_
 _symmetry_equiv_pos_site_id
 _symmetry_equiv_pos_as_xyz
  1  'x, y, z'
loop_
 _atom_site_type_symbol
 _atom_site_label
 _atom_site_symmetry_multiplicity
 _atom_site_fract_x
 _atom_site_fract_y
 _atom_site_fract_z
 _atom_site_occupancy
  V  V0  1  0.49947257  0.37364906  0.87482033  1
  V  V1  1  -0.00032490  0.37513953  0.37532957  1
  V  V2  1  0.37477390  0.87451223  0.00010722  1
  V  V3  1  0.12474919  0.37569755  0.75050095  1
  V  V4  1  0.24863876  0.50088573  0.25090091  1
  V  V5  1  0.75036897  0.24928385  0.49990658  1
  V  V6  1  0.75043776  0.49888132  0.75038093  1
  V  V7  1  0.49897207  0.37556271  0.37506768  1
  V  V8  1  0.50008693  0.12508402  0.62328463  1
  V  V9  1  0.12610268  0.00082673  0.62533047  1
  V  V10  1  0.49922901  0.87423670  0.37424600  1
  V  V11  1  0.75083521  0.75064570  0.49975778  1
  V  V12  1  0.62534001  0.87490577  0.24767582  1
  V  V13  1  0.87406857  0.75138468  0.12561770  1
  V  V14  1  0.62523289  0.37375731  0.24943431  1
  V  V15  1  0.87400597  0.62432458  0.25066331  1
  V  V16  1  0.74980982  0.49954551  0.25047547  1
  V  V17  1  0.37558892  0.12475973  0.74928582  1
  V  V18  1  0.37473395  0.49949045  0.87639861  1
  V  V19  1  0.87597319  0.00025016  0.87549071  1
  V  V20  1  0.62644817  0.87465344  0.74931892  1
  V  V21  1  0.75030099  0.12423200  0.37314941  1
  V  V22  1  0.87603504  0.25118803  0.12476892  1
  V  V23  1  0.25020695  0.37543167  0.62504162  1
  V  V24  1  0.37502582  0.87446495  0.50086117  1
  V  V25  1  0.37557633  0.50033966  0.37594173  1
  V  V26  1  0.12618227  0.12570263  0.50038200  1
  V  V27  1  0.62629411  -0.00133837  0.62407361  1
  V  V28  1  0.87621951  -0.00187944  0.37555212  1
  V  V29  1  0.62394206  0.62313026  0.00033289  1
  V  V30  1  0.25121484  0.37483224  0.12433518  1
  V  V31  1  0.25032219  0.12621808  0.87584348  1
  V  V32  1  0.62588629  0.12439857  -0.00103571  1
  V  V33  1  0.87407723  0.37426522  0.50031047  1
  V  V34  1  0.62478614  0.12400220  0.49768959  1
  V  V35  1  0.12419384  0.87582565  0.25076867  1
  V  V36  1  0.25079187  0.00066760  0.74979187  1
  V  V37  1  0.50062197  -0.00038244  0.49865130  1
  V  V38  1  0.00022289  -0.00076489  -0.00065692  1
  V  V39  1  0.87633112  0.37584335  0.00026960  1
  V  V40  1  0.50127812  -0.00011942  -0.00105119  1
  V  V41  1  -0.00003417  0.00013346  0.49978381  1
  V  V42  1  0.12454945  0.50062929  0.62582630  1
  V  V43  1  0.12592044  0.25110526  0.87533912  1
  V  V44  1  0.74985871  0.12554024  0.87477568  1
  V  V45  1  0.00058080  0.25089652  0.25044582  1
  V  V46  1  0.49861468  0.74931735  0.25015924  1
  V  V47  1  0.50093893  0.24969228  0.74954083  1
  V  V48  1  0.62404510  0.49940333  0.62435105  1
  V  V49  1  0.74975293  0.74936202  0.00077010  1
  V  V50  1  0.62388477  0.49846946  0.12397966  1
  V  V51  1  0.12431337  0.62464136  0.50140142  1
  V  V52  1  0.37561069  0.75030882  0.62625628  1
  V  V53  1  0.75039817  -0.00100665  0.74913527  1
  V  V54  1  0.75081434  0.37402995  0.12414592  1
  V  V55  1  0.37594589  -0.00005403  0.87434433  1
  V  V56  1  0.87538597  0.12527096  0.75021021  1
  V  V57  1  -0.00009311  0.62665365  0.12546792  1
  V  V58  1  -0.00077607  0.50043625  -0.00069511  1
  V  V59  1  0.37574370  0.12499791  0.24773761  1
  V  V60  1  0.87580367  0.62702017  0.74835910  1
  V  V61  1  0.24997225  0.62485562  0.87603752  1
  V  V62  1  0.24883252  -0.00035612  0.24997527  1
  V  V63  1  0.12417539  0.87526679  0.75059093  1
  V  V64  1  0.24923796  0.62508478  0.37648763  1
  V  V65  1  0.00052667  0.25106952  0.75074490  1
  V  V66  1  0.62449337  0.74814315  0.37446294  1
  V  V67  1  0.00168668  0.12560054  0.12498111  1
  V  V68  1  0.87583739  0.12502977  0.25007140  1
  V  V69  1  0.49924973  0.12526914  0.12462630  1
  V  V70  1  0.87339437  0.50000082  0.37511770  1
  V  V71  1  0.25145717  0.87549673  0.62532220  1
  V  V72  1  0.62644134  -0.00110639  0.12474737  1
  V  V73  1  0.37519783  0.25085068  0.62381669  1
  V  V74  1  0.37493200  0.62437384  0.75192054  1
  V  V75  1  0.87457302  0.24989946  0.62442131  1
  V  V76  1  0.62469781  0.24861071  0.87372124  1
  V  V77  1  0.12445395  0.62708067  0.00026494  1
  V  V78  1  0.12310189  0.75051937  0.37680031  1
  V  V79  1  0.62526868  0.74840549  0.87596466  1
  V  V80  1  0.37489647  -0.00032285  0.37450308  1
  V  V81  1  0.00113141  0.12546004  0.62563678  1
  V  V82  1  0.12603926  0.12618228  0.00012163  1
  V  V83  1  0.12529173  0.37714962  0.25101678  1
  V  V84  1  0.12243213  0.75134065  0.87362140  1
  V  V85  1  0.25082872  0.12570168  0.37435374  1
  V  V86  1  0.50122975  0.74954852  0.75091545  1
  V  V87  1  0.37319894  0.75094086  0.12414098  1
  V  V88  1  0.50045981  0.87449772  0.87469827  1
  V  V89  1  0.37395756  0.62665864  0.25057603  1
  V  V90  1  0.12549361  0.25056282  0.37559651  1
  V  V91  1  0.25132927  0.25119462  0.50005020  1
  V  V92  1  0.62434864  0.24928525  0.37326114  1
  V  V93  1  -0.00078868  0.50045291  0.50126825  1
  V  V94  1  0.49963813  0.49786145  -0.00008963  1
  V  V95  1  0.50043026  0.62415809  0.62565441  1
  Zn  Zn96  1  0.24805683  0.87713480  0.12253961  1
  Zn  Zn97  1  0.87705385  0.75304160  0.62349966  1
  Zn  Zn98  1  -0.00195698  0.87440009  0.87385522  1
  Zn  Zn99  1  0.74831615  0.37355492  0.62476208  1
  Zn  Zn100  1  0.24995359  0.74943344  0.50251022  1
  Zn  Zn101  1  0.37391928  0.37234086  0.00032985  1
  Zn  Zn102  1  -0.00207434  0.75126518  0.25111408  1
  Zn  Zn103  1  0.75141773  0.25064569  -0.00156041  1
  Zn  Zn104  1  0.75253223  0.87402269  0.62425940  1
  Zn  Zn105  1  0.49881872  0.24922474  0.24698756  1
  Zn  Zn106  1  0.62425539  0.62450170  0.49822935  1
  Zn  Zn107  1  0.87681764  0.87402922  0.50297858  1
  Zn  Zn108  1  0.87509324  0.87509725  -0.00046665  1
  Zn  Zn109  1  0.37585626  0.24954398  0.12313048  1
  Zn  Zn110  1  0.12561356  0.50334929  0.12631087  1
  Zn  Zn111  1  0.49835101  0.62212471  0.12544675  1
  Zn  Zn112  1  -0.00120353  0.87393878  0.37716911  1
  Zn  Zn113  1  0.75150196  -0.00148947  0.24749477  1
  Zn  Zn114  1  -0.00027778  0.37567249  0.87499888  1
  Zn  Zn115  1  0.49957440  0.50168593  0.50058109  1
  Zn  Zn116  1  -0.00011890  0.62828950  0.62544044  1
  Zn  Zn117  1  0.24903421  0.50012247  0.75077042  1
  Zn  Zn118  1  0.74734934  0.62379709  0.37557675  1
  Zn  Zn119  1  0.75088280  0.87729912  0.12549270  1
  Zn  Zn120  1  0.24841737  0.75273128  0.00009252  1
  Zn  Zn121  1  0.37587708  0.37744044  0.50099149  1
  Zn  Zn122  1  0.87415748  0.49900287  0.87368326  1
  Zn  Zn123  1  0.25126876  0.25049908  0.00109205  1
  Zn  Zn124  1  0.62660723  0.37288881  0.74919843  1
  Zn  Zn125  1  0.12599374  -0.00031954  0.12486854  1
  Zn  Zn126  1  0.75091785  0.62300658  0.87513526  1
  Zn  Zn127  1  -0.00357847  0.75281552  0.74649507  1
  Zn  Zn128  1  0.18769463  0.18876789  0.18728624  1
  Zn  Zn129  1  0.18836590  0.18939316  0.68838670  1
  Zn  Zn130  1  0.18753086  0.68967953  0.18827828  1
  Zn  Zn131  1  0.18836483  0.68712973  0.68882336  1
  Zn  Zn132  1  0.68821186  0.18704611  0.18636577  1
  Zn  Zn133  1  0.68769186  0.18539292  0.68677830  1
  Zn  Zn134  1  0.68664731  0.68497770  0.18711438  1
  Zn  Zn135  1  0.68962380  0.68571152  0.68530416  1
  Zn  Zn136  1  0.31431774  0.31174095  0.30938847  1
  Zn  Zn137  1  0.31216366  0.31327213  0.81190327  1
  Zn  Zn138  1  0.30936588  0.81240505  0.31315317  1
  Zn  Zn139  1  0.31103518  0.81150661  0.81292411  1
  Zn  Zn140  1  0.81228164  0.31251364  0.31246275  1
  Zn  Zn141  1  0.81311093  0.31464345  0.81384726  1
  Zn  Zn142  1  0.80908810  0.81299030  0.31271865  1
  Zn  Zn143  1  0.81264927  0.81316863  0.81470429  1
  Zn  Zn144  1  0.18794088  0.43806441  0.43920812  1
  Zn  Zn145  1  0.18613127  0.43922884  0.93835710  1
  Zn  Zn146  1  0.18851463  0.93721252  0.43825583  1
  Zn  Zn147  1  0.18789509  0.93780693  0.93738140  1
  Zn  Zn148  1  0.68695364  0.43660653  0.43851729  1
  Zn  Zn149  1  0.68724008  0.43479480  0.93604944  1
  Zn  Zn150  1  0.68914330  0.93481250  0.43495646  1
  Zn  Zn151  1  0.68908255  0.93583766  0.93724093  1
  Zn  Zn152  1  0.31160412  0.06079119  0.06319373  1
  Zn  Zn153  1  0.31316733  0.06271924  0.56149950  1
  Zn  Zn154  1  0.31138172  0.56227451  0.06176128  1
  Zn  Zn155  1  0.31206832  0.56188730  0.56237977  1
  Zn  Zn156  1  0.81266327  0.06406912  0.06239019  1
  Zn  Zn157  1  0.81244887  0.06259930  0.56201107  1
  Zn  Zn158  1  0.81218775  0.56316108  0.06388145  1
  Zn  Zn159  1  0.81056409  0.56571174  0.56331146  1
  Zn  Zn160  1  0.43635065  0.43807792  0.18893620  1
  Zn  Zn161  1  0.43738755  0.43686204  0.69038267  1
  Zn  Zn162  1  0.43819087  0.93752700  0.18655829  1
  Zn  Zn163  1  0.43954513  0.93720524  0.68731812  1
  Zn  Zn164  1  0.93801467  0.43905842  0.18646537  1
  Zn  Zn165  1  0.93736538  0.43766917  0.68624751  1
  Zn  Zn166  1  0.93975482  0.93703643  0.18776943  1
  Zn  Zn167  1  0.93741952  0.93524446  0.68652397  1
  Zn  Zn168  1  0.06232476  0.06303225  0.31305427  1
  Zn  Zn169  1  0.06346398  0.06385181  0.81347070  1
  Zn  Zn170  1  0.06026439  0.56370104  0.31301392  1
  Zn  Zn171  1  0.06121911  0.56342190  0.81249469  1
  Zn  Zn172  1  0.56200667  0.06106900  0.30951830  1
  Zn  Zn173  1  0.56336130  0.06243756  0.81100523  1
  Zn  Zn174  1  0.56194669  0.56273337  0.31118211  1
  Zn  Zn175  1  0.56324884  0.56127559  0.81314127  1
  Zn  Zn176  1  0.43743205  0.18893615  0.43593695  1
  Zn  Zn177  1  0.43592692  0.18947113  0.93975831  1
  Zn  Zn178  1  0.43817551  0.68671660  0.44026202  1
  Zn  Zn179  1  0.43828905  0.68578394  0.93944443  1
  Zn  Zn180  1  0.93779035  0.18623341  0.43763928  1
  Zn  Zn181  1  0.93879309  0.18821432  0.93749167  1
  Zn  Zn182  1  0.93633617  0.68560063  0.43800872  1
  Zn  Zn183  1  0.93593081  0.68442702  0.93460750  1
  Zn  Zn184  1  0.06529476  0.31407712  0.06336991  1
  Zn  Zn185  1  0.06268509  0.31376040  0.56342821  1
  Zn  Zn186  1  0.06164398  0.81330458  0.06303574  1
  Zn  Zn187  1  0.05996519  0.81296068  0.56382823  1
  Zn  Zn188  1  0.56215784  0.31043516  0.06046294  1
  Zn  Zn189  1  0.56330085  0.31375319  0.56097888  1
  Zn  Zn190  1  0.56106268  0.81178672  0.06357043  1
  Zn  Zn191  1  0.56427586  0.81160925  0.56205108  1
  O  O192  1  0.11843557  0.12416964  0.11935628  1
  O  O193  1  0.12136988  0.12057556  0.62014817  1
  O  O194  1  0.11840142  0.62761108  0.11908771  1
  O  O195  1  0.12558990  0.61841319  0.61916118  1
  O  O196  1  0.62014174  0.11902802  0.11876253  1
  O  O197  1  0.61896052  0.11885005  0.61737317  1
  O  O198  1  0.62210429  0.61630997  0.11873571  1
  O  O199  1  0.61786689  0.61489300  0.62580158  1
  O  O200  1  0.38389981  0.38035058  0.37350019  1
  O  O201  1  0.38101519  0.38144922  0.87533567  1
  O  O202  1  0.37937236  0.87987919  0.38015922  1
  O  O203  1  0.38107779  0.88027101  0.87871962  1
  O  O204  1  0.88077392  0.37949605  0.38031366  1
  O  O205  1  0.87943416  0.37822826  0.88402198  1
  O  O206  1  0.87649075  0.88830602  0.37435062  1
  O  O207  1  0.87815243  0.88397876  0.87913949  1
  O  O208  1  0.25577386  0.00666196  0.37096073  1
  O  O209  1  0.25647213  0.00581933  0.86847632  1
  O  O210  1  0.25507906  0.50522045  0.37023312  1
  O  O211  1  0.25597971  0.50714331  0.87424536  1
  O  O212  1  0.76007268  0.00659157  0.37393030  1
  O  O213  1  0.75537437  0.00572982  0.86940104  1
  O  O214  1  0.75568386  0.49888485  0.36819434  1
  O  O215  1  0.74930756  0.50083878  0.86269270  1
  O  O216  1  0.24788729  0.49314328  0.13309255  1
  O  O217  1  0.24305291  0.49303330  0.62662084  1
  O  O218  1  0.24628320  0.99690318  0.13424111  1
  O  O219  1  0.24588824  0.99625085  0.63052962  1
  O  O220  1  0.74433595  0.49327050  0.13044050  1
  O  O221  1  0.74074505  0.49927734  0.63294382  1
  O  O222  1  0.74294813  0.99804997  0.12590580  1
  O  O223  1  0.74273180  1.00119415  0.63123743  1
  O  O224  1  0.00466723  0.37065666  0.25584819  1
  O  O225  1  0.00632022  0.36830554  0.75077828  1
  O  O226  1  0.01164964  0.87347895  0.25472539  1
  O  O227  1  0.00985443  0.87519214  0.75364703  1
  O  O228  1  0.50615173  0.37391664  0.25963221  1
  O  O229  1  0.50175670  0.36612251  0.75677296  1
  O  O230  1  0.50434145  0.86898780  0.25603912  1
  O  O231  1  0.50605109  0.86955936  0.75576242  1
  O  O232  1  0.49336629  0.12415817  0.24269933  1
  O  O233  1  0.49461154  0.12893500  0.74288091  1
  O  O234  1  0.49118999  0.63160829  0.24839943  1
  O  O235  1  0.49469114  0.63116915  0.74619006  1
  O  O236  1  0.99608766  0.13180552  0.24534238  1
  O  O237  1  0.99550167  0.13049794  0.74430356  1
  O  O238  1  0.99227351  0.62684103  0.24326955  1
  O  O239  1  0.98758499  0.62499860  0.74888282  1
  O  O240  1  0.36912344  0.25397044  0.00449504  1
  O  O241  1  0.36879624  0.25091577  0.50613102  1
  O  O242  1  0.37576322  0.75521054  0.00903053  1
  O  O243  1  0.37401223  0.75737511  0.50794804  1
  O  O244  1  0.87636024  0.25683599  0.00748513  1
  O  O245  1  0.87033344  0.25350123  0.50441780  1
  O  O246  1  0.86666363  0.74785493  0.00794094  1
  O  O247  1  0.86376157  0.75182804  0.49700172  1
  O  O248  1  0.13063402  0.24482820  0.49504653  1
  O  O249  1  0.12645579  0.24356224  0.99348848  1
  O  O250  1  0.12659839  0.74526542  0.49123129  1
  O  O251  1  0.12508663  0.74619797  0.99087562  1
  O  O252  1  0.62995691  0.24321746  0.49349837  1
  O  O253  1  0.62703164  0.24152451  0.99164929  1
  O  O254  1  0.63223104  0.74971941  0.49243845  1
  O  O255  1  0.63108073  0.74415439  0.99699567  1
  O  O256  1  0.49876254  0.24072723  0.12663324  1
  O  O257  1  0.49568203  0.24388614  0.62828432  1
  O  O258  1  0.48831702  0.74840223  0.13085985  1
  O  O259  1  0.49554421  0.74539526  0.63210441  1
  O  O260  1  0.99588997  0.24609700  0.13170195  1
  O  O261  1  0.99510134  0.24408353  0.63007436  1
  O  O262  1  0.98868613  0.74482741  0.12498838  1
  O  O263  1  0.99646495  0.74595218  0.62884437  1
  O  O264  1  0.00552921  0.25526470  0.37064451  1
  O  O265  1  0.00768281  0.25031375  0.86767853  1
  O  O266  1  0.01214919  0.75057938  0.37373036  1
  O  O267  1  0.01202844  0.75109662  0.87352690  1
  O  O268  1  0.50608553  0.25850736  0.37267851  1
  O  O269  1  0.50471739  0.25277252  0.86853586  1
  O  O270  1  0.50326848  0.75581203  0.36981448  1
  O  O271  1  0.50510993  0.75530804  0.87037725  1
  O  O272  1  0.24531272  0.13046324  0.49427226  1
  O  O273  1  0.24342734  0.12370595  0.99285279  1
  O  O274  1  0.24242755  0.62670134  0.49346457  1
  O  O275  1  0.24211804  0.62787919  0.99381299  1
  O  O276  1  0.74394667  0.12983751  0.49295263  1
  O  O277  1  0.74377067  0.12665550  0.99223018  1
  O  O278  1  0.74637679  0.63599650  0.49633692  1
  O  O279  1  0.74379872  0.63401556  0.99989183  1
  O  O280  1  0.24874272  0.37626828  0.01320067  1
  O  O281  1  0.25116496  0.36760487  0.50633678  1
  O  O282  1  0.25896910  0.87362113  0.00192408  1
  O  O283  1  0.25773717  0.87519954  0.50778048  1
  O  O284  1  0.75754898  0.37403874  0.00686922  1
  O  O285  1  0.75655979  0.36649952  0.50057978  1
  O  O286  1  0.75099624  0.86114140  0.00323963  1
  O  O287  1  0.75136778  0.86411578  0.49993042  1
  O  O288  1  0.13074302  0.49479634  0.25092389  1
  O  O289  1  0.12511089  0.49376565  0.74419873  1
  O  O290  1  0.12962782  0.99131924  0.25203644  1
  O  O291  1  0.13172719  0.99682678  0.74482963  1
  O  O292  1  0.62998907  0.49321238  0.24408785  1
  O  O293  1  0.63335265  0.49956874  0.74155181  1
  O  O294  1  0.62570766  0.99287585  0.24280647  1
  O  O295  1  0.63019838  0.99497550  0.74422732  1
  O  O296  1  0.36962173  0.00390799  0.25633596  1
  O  O297  1  0.37108442  0.00508963  0.75450041  1
  O  O298  1  0.36868307  0.50739344  0.25665097  1
  O  O299  1  0.37416550  0.50754590  0.75821975  1
  O  O300  1  0.87677455  0.00669063  0.25878790  1
  O  O301  1  0.87066271  0.00694154  0.75527925  1
  O  O302  1  0.86930065  0.50363396  0.25497612  1
  O  O303  1  0.86590161  0.50641421  0.74855947  1
  O  O304  1  0.11937275  0.36966537  0.37093206  1
  O  O305  1  0.12368409  0.36897881  0.86884976  1
  O  O306  1  0.12537489  0.86687467  0.36890306  1
  O  O307  1  0.12562292  0.86652201  0.86935746  1
  O  O308  1  0.61799163  0.36994034  0.36939504  1
  O  O309  1  0.61785030  0.36633901  0.87225408  1
  O  O310  1  0.61736454  0.86944197  0.36784911  1
  O  O311  1  0.61910074  0.86881300  0.86975657  1
  O  O312  1  0.38187444  0.12254007  0.13098063  1
  O  O313  1  0.38070914  0.12977387  0.62947198  1
  O  O314  1  0.37434698  0.63491776  0.13126100  1
  O  O315  1  0.37979787  0.63038698  0.63180094  1
  O  O316  1  0.88195383  0.13141133  0.13040541  1
  O  O317  1  0.88145886  0.12991237  0.63048168  1
  O  O318  1  0.87933613  0.63372970  0.13038444  1
  O  O319  1  0.87602586  0.62727352  0.63633313  1
  O  O320  1  0.25019141  0.26279599  0.12554177  1
  O  O321  1  0.25568265  0.25470761  0.61954690  1
  O  O322  1  0.26267671  0.75317041  0.12464269  1
  O  O323  1  0.25780637  0.75778503  0.62570293  1
  O  O324  1  0.75810837  0.25648303  0.12343271  1
  O  O325  1  0.75643251  0.24835354  0.61783847  1
  O  O326  1  0.75826344  0.74866987  0.11686098  1
  O  O327  1  0.74988964  0.75165316  0.61244556  1
  O  O328  1  0.24493031  0.24522343  0.37958497  1
  O  O329  1  0.24366028  0.24287788  0.87483874  1
  O  O330  1  0.23924984  0.74404701  0.37733957  1
  O  O331  1  0.23979139  0.74435347  0.87650463  1
  O  O332  1  0.74476489  0.24407543  0.38013377  1
  O  O333  1  0.74371738  0.24281819  0.87467528  1
  O  O334  1  0.74211638  0.74849781  0.38194731  1
  O  O335  1  0.74340419  0.74828532  0.88606102  1
  O  O336  1  0.00572844  0.11781232  0.00517697  1
  O  O337  1  0.00728676  0.12118508  0.50620973  1
  O  O338  1  0.00352261  0.61839823  0.00543501  1
  O  O339  1  0.00669831  0.61662738  0.50024505  1
  O  O340  1  0.50603493  0.11777513  0.00342562  1
  O  O341  1  0.50506801  0.11917817  0.50325503  1
  O  O342  1  0.50666903  0.61636242  0.00225574  1
  O  O343  1  0.50286296  0.62258294  0.51017112  1
  O  O344  1  0.49936427  0.37667218  0.48603807  1
  O  O345  1  0.49898774  0.38089204  0.99264575  1
  O  O346  1  0.49468840  0.88053087  0.49430961  1
  O  O347  1  0.49517872  0.88042507  0.99317461  1
  O  O348  1  0.99452281  0.37935028  0.49389441  1
  O  O349  1  0.99575714  0.38577915  1.00252571  1
  O  O350  1  0.99897283  0.88575749  0.49654512  1
  O  O351  1  0.99950678  0.88873470  0.99875258  1
  O  O352  1  0.49500894  0.49077725  0.37433506  1
  O  O353  1  0.49532509  0.49354719  0.88002222  1
  O  O354  1  0.49439315  0.99405917  0.37978502  1
  O  O355  1  0.49549566  0.99445735  0.87874716  1
  O  O356  1  0.99369265  0.49349112  0.38078878  1
  O  O357  1  0.99875519  0.49942344  0.88932628  1
  O  O358  1  0.99073000  1.00317948  0.38160034  1
  O  O359  1  0.99475452  1.00295487  0.88488569  1
  O  O360  1  0.00096623  0.00695492  0.11564513  1
  O  O361  1  0.00703888  0.00733958  0.62034470  1
  O  O362  1  0.00134049  0.50768875  0.11571116  1
  O  O363  1  0.00711903  0.50063747  0.61719827  1
  O  O364  1  0.50591790  0.00476151  0.11754635  1
  O  O365  1  0.50547328  0.00564136  0.61842799  1
  O  O366  1  0.50631197  0.49883185  0.11908135  1
  O  O367  1  0.50864622  0.50473051  0.62712244  1
  O  O368  1  0.24439494  0.38122971  0.24489963  1
  O  O369  1  0.24257009  0.37583432  0.74241220  1
  O  O370  1  0.23947749  0.88166763  0.25152704  1
  O  O371  1  0.24570361  0.88217446  0.74486994  1
  O  O372  1  0.74509742  0.37997490  0.24424723  1
  O  O373  1  0.74921489  0.38536826  0.74617873  1
  O  O374  1  0.74021448  0.87745822  0.24635251  1
  O  O375  1  0.74253595  0.88205023  0.75077887  1
  O  O376  1  0.25409583  0.11959606  0.25617047  1
  O  O377  1  0.25624615  0.11981920  0.75463221  1
  O  O378  1  0.25414472  0.62079118  0.25690309  1
  O  O379  1  0.25768021  0.62374755  0.75806689  1
  O  O380  1  0.75814746  0.12380154  0.25615754  1
  O  O381  1  0.75605481  0.11858052  0.75509487  1
  O  O382  1  0.75625857  0.61657831  0.25063183  1
  O  O383  1  0.75732504  0.61536728  0.75065961  1
  O  O384  1  0.37007810  0.11886308  0.36953743  1
  O  O385  1  0.37102990  0.11890753  0.86857065  1
  O  O386  1  0.36902399  0.62147433  0.37039910  1
  O  O387  1  0.37034830  0.62031758  0.87127082  1
  O  O388  1  0.87093181  0.11826693  0.36970913  1
  O  O389  1  0.86996514  0.12083899  0.86907278  1
  O  O390  1  0.87351588  0.61645473  0.36751724  1
  O  O391  1  0.87089865  0.62011672  0.86406447  1
  O  O392  1  0.13362834  0.37829474  0.13367313  1
  O  O393  1  0.13043138  0.37996947  0.63038613  1
  O  O394  1  0.12624280  0.87493000  0.13778992  1
  O  O395  1  0.13203801  0.88217121  0.63015002  1
  O  O396  1  0.63084711  0.37870066  0.12956908  1
  O  O397  1  0.62610175  0.38498775  0.62760601  1
  O  O398  1  0.62398443  0.88108967  0.13068609  1
  O  O399  1  0.62541476  0.88209490  0.63216343  1
  O  O400  1  0.11950127  0.25602451  0.25747480  1
  O  O401  1  0.11946616  0.25510632  0.75457416  1
  O  O402  1  0.12447334  0.75825465  0.26009872  1
  O  O403  1  0.12523159  0.75596700  0.75959477  1
  O  O404  1  0.62452073  0.25619660  0.25631863  1
  O  O405  1  0.61813031  0.24793637  0.75505669  1
  O  O406  1  0.61809711  0.75431925  0.25348997  1
  O  O407  1  0.62070365  0.75409473  0.75572403  1
  O  O408  1  0.37733429  0.23959544  0.24657093  1
  O  O409  1  0.38068240  0.24317197  0.74352464  1
  O  O410  1  0.37846449  0.74698657  0.24342406  1
  O  O411  1  0.38209620  0.74536458  0.74611351  1
  O  O412  1  0.88192385  0.24550397  0.24548531  1
  O  O413  1  0.88030311  0.24447399  0.74456695  1
  O  O414  1  0.87414840  0.74471148  0.24131026  1
  O  O415  1  0.87308487  0.73894580  0.75063347  1
  O  O416  1  0.37796073  0.49737078  0.49154617  1
  O  O417  1  0.38198649  0.49836659  0.99372760  1
  O  O418  1  0.38118607  0.99507779  0.49431343  1
  O  O419  1  0.38184218  0.99497902  0.99307756  1
  O  O420  1  0.87851665  0.49430003  0.49525007  1
  O  O421  1  0.88398454  0.49580262  1.00131834  1
  O  O422  1  0.88105268  1.00316881  0.48979532  1
  O  O423  1  0.88492619  1.00170867  0.99472072  1
  O  O424  1  0.11583343  0.00661228  -0.00026830  1
  O  O425  1  0.12154319  0.00702761  0.50550566  1
  O  O426  1  0.11474105  0.50807815  0.00248312  1
  O  O427  1  0.11887420  0.50477408  0.50486008  1
  O  O428  1  0.61994958  0.00437842  0.00340044  1
  O  O429  1  0.61957528  0.00449553  0.50270986  1
  O  O430  1  0.62015921  0.50350083  0.00477820  1
  O  O431  1  0.62433281  0.50127730  0.51220965  1
  O  O432  1  0.36235390  0.37500369  0.12658596  1
  O  O433  1  0.36957798  0.36825186  0.62426945  1
  O  O434  1  0.37544159  0.86614656  0.11957337  1
  O  O435  1  0.37145809  0.87060133  0.62095966  1
  O  O436  1  0.87052587  0.37013095  0.12075255  1
  O  O437  1  0.87399435  0.36680842  0.61712294  1
  O  O438  1  0.87428406  0.86303426  0.12332855  1
  O  O439  1  0.86968766  0.87284150  0.62125571  1
  O  O440  1  0.13091106  0.13121582  0.38047094  1
  O  O441  1  0.13151068  0.13103689  0.87958081  1
  O  O442  1  0.12908188  0.63254509  0.37981854  1
  O  O443  1  0.12929742  0.63355848  0.87929029  1
  O  O444  1  0.62952250  0.12876983  0.37875893  1
  O  O445  1  0.63016114  0.12843415  0.87918175  1
  O  O446  1  0.62547745  0.63287324  0.37600101  1
  O  O447  1  0.62620923  0.63162654  0.88214053  1
