# generated using pymatgen
data_V3Zn3O8
_symmetry_space_group_name_H-M   'P 1'
_cell_length_a   17.09010432
_cell_length_b   17.08916134
_cell_length_c   17.09007905
_cell_angle_alpha   90.01595586
_cell_angle_beta   90.00814593
_cell_angle_gamma   90.01131601
_symmetry_Int_Tables_number   1
_chemical_formula_structural   V3Zn3O8
_chemical_formula_sum   'V96 Zn96 O256'
_cell_volume   4991.25209463
_cell_formula_units_Z   32
loop_
 _symmetry_equiv_pos_site_id
 _symmetry_equiv_pos_as_xyz
  1  'x, y, z'
loop_
 _atom_site_type_symbol
 _atom_site_label
 _atom_site_symmetry_multiplicity
 _atom_site_fract_x
 _atom_site_fract_y
 _atom_site_fract_z
 _atom_site_occupancy
  V  V0  1  0.37399327  0.62577662  0.75061176  1
  V  V1  1  0.12464523  0.12410230  -0.00082215  1
  V  V2  1  0.25073759  0.74977937  0.00110638  1
  V  V3  1  0.62464744  0.62447584  0.50217781  1
  V  V4  1  0.50185701  0.87474524  0.37661516  1
  V  V5  1  0.25009316  0.62585946  0.37479070  1
  V  V6  1  0.24948363  0.00069566  0.74919679  1
  V  V7  1  0.49961824  0.25066313  0.74822031  1
  V  V8  1  -0.00122103  0.62653370  0.62594807  1
  V  V9  1  0.75041211  0.75010016  0.00078015  1
  V  V10  1  -0.00092363  0.37556230  0.37453503  1
  V  V11  1  0.37453388  0.49986703  0.37500399  1
  V  V12  1  0.49981471  0.62550298  0.62541760  1
  V  V13  1  0.50100367  0.00096774  0.50087388  1
  V  V14  1  0.00102730  0.12468463  0.12442783  1
  V  V15  1  0.50107577  0.62455552  0.12543423  1
  V  V16  1  0.50082260  0.12373571  0.12425842  1
  V  V17  1  0.74955345  0.62393449  0.37646911  1
  V  V18  1  0.12433443  0.12416571  0.49980010  1
  V  V19  1  0.24921134  0.49947615  0.24978113  1
  V  V20  1  0.25068820  0.12445979  0.37353530  1
  V  V21  1  0.62403383  0.37381671  0.25021836  1
  V  V22  1  0.75135841  0.75022812  0.50273260  1
  V  V23  1  0.87591541  0.62537998  0.75131599  1
  V  V24  1  0.12382306  0.00071824  0.62259104  1
  V  V25  1  0.87320296  0.37552412  0.50014472  1
  V  V26  1  0.12451574  0.87496825  0.24886115  1
  V  V27  1  0.12465327  0.24971100  0.37484481  1
  V  V28  1  0.00025054  0.25017137  0.24982817  1
  V  V29  1  0.87516455  0.62572402  0.24964185  1
  V  V30  1  0.62591622  -0.00029683  0.12571951  1
  V  V31  1  0.87572752  0.12441863  0.25077076  1
  V  V32  1  0.00047912  0.50018733  0.00056254  1
  V  V33  1  0.75003823  0.37440412  0.12521165  1
  V  V34  1  0.87557007  0.74898325  0.12630840  1
  V  V35  1  0.49881462  0.37466922  0.37385558  1
  V  V36  1  0.74962107  0.49913986  0.25082153  1
  V  V37  1  0.24915745  0.37495564  0.12523336  1
  V  V38  1  0.37520220  0.12618630  0.74844269  1
  V  V39  1  0.24947401  0.25014619  0.49912961  1
  V  V40  1  0.74831471  0.49984318  0.75121893  1
  V  V41  1  0.37699755  -0.00143696  0.87605812  1
  V  V42  1  0.75045508  0.12381251  0.37391803  1
  V  V43  1  0.25216378  0.87448872  0.12472324  1
  V  V44  1  0.49995581  0.24968926  0.24985071  1
  V  V45  1  0.49867977  0.37543236  0.87616322  1
  V  V46  1  0.74726309  0.25041578  0.49944369  1
  V  V47  1  0.62414603  0.50115679  0.62653231  1
  V  V48  1  0.37508347  0.37488597  0.00002926  1
  V  V49  1  0.37541878  0.62535072  0.25041309  1
  V  V50  1  0.37588808  0.75030280  0.12475066  1
  V  V51  1  0.37454163  0.24858507  0.12429052  1
  V  V52  1  0.25171726  -0.00021053  0.24933094  1
  V  V53  1  0.24964450  0.24982264  -0.00087355  1
  V  V54  1  0.25010387  0.49917529  0.75003735  1
  V  V55  1  0.87407867  0.50031758  0.37526627  1
  V  V56  1  0.12490579  0.37594651  0.24951926  1
  V  V57  1  0.24950560  0.12594583  0.87420886  1
  V  V58  1  0.87537023  0.24855843  0.62631931  1
  V  V59  1  0.12514535  0.74998682  0.87465207  1
  V  V60  1  -0.00108199  0.50128579  0.50026324  1
  V  V61  1  0.37440722  0.75038440  0.62473025  1
  V  V62  1  0.62470449  0.62461132  0.00123189  1
  V  V63  1  0.87578036  -0.00017601  0.87457829  1
  V  V64  1  0.24883180  0.37588004  0.62342947  1
  V  V65  1  0.87464948  0.49955360  0.87584599  1
  V  V66  1  0.37435407  0.25048314  0.62438133  1
  V  V67  1  0.74994034  0.87538099  0.12620716  1
  V  V68  1  0.87574987  0.24996125  0.12492874  1
  V  V69  1  0.62452427  0.49994831  0.12480905  1
  V  V70  1  0.25125001  0.75087282  0.49918035  1
  V  V71  1  0.62446020  0.87439255  0.75283899  1
  V  V72  1  0.75001944  0.24883346  -0.00042103  1
  V  V73  1  0.12385720  0.25115167  0.87290399  1
  V  V74  1  0.12429628  0.50040169  0.62379878  1
  V  V75  1  0.50096550  0.74970497  0.25122353  1
  V  V76  1  0.00047508  0.37346726  0.87357329  1
  V  V77  1  0.37436301  0.37583033  0.49827878  1
  V  V78  1  0.75056778  0.12499318  0.87512612  1
  V  V79  1  0.87621885  0.87593959  0.49944585  1
  V  V80  1  0.75127256  0.00100774  0.75102844  1
  V  V81  1  0.62392018  0.37528933  0.74989010  1
  V  V82  1  0.62543584  0.12413561  0.00049476  1
  V  V83  1  0.87494165  0.37463380  -0.00022503  1
  V  V84  1  0.62411813  0.75058488  0.87537611  1
  V  V85  1  0.87600644  0.87525357  0.00020710  1
  V  V86  1  0.37498563  0.12387842  0.24976856  1
  V  V87  1  0.74988119  0.62493571  0.87636361  1
  V  V88  1  0.62634503  0.00100897  0.62544895  1
  V  V89  1  0.12422886  0.75143316  0.37425810  1
  V  V90  1  0.62658353  0.87488947  0.25025088  1
  V  V91  1  0.00062905  0.00002555  -0.00077366  1
  V  V92  1  0.37670123  0.87463300  0.50103700  1
  V  V93  1  0.62552306  0.74906097  0.37697119  1
  V  V94  1  0.12494606  0.62354433  0.00166402  1
  V  V95  1  0.12424271  0.87444064  0.74924850  1
  Zn  Zn96  1  0.12639080  -0.00047318  0.12326089  1
  Zn  Zn97  1  0.62557931  0.24860142  0.87395784  1
  Zn  Zn98  1  0.25103697  0.62288011  0.87647652  1
  Zn  Zn99  1  0.49824211  0.87321707  0.87768047  1
  Zn  Zn100  1  -0.00122727  0.12578738  0.62451159  1
  Zn  Zn101  1  -0.00092040  0.74992045  0.75092677  1
  Zn  Zn102  1  0.00091779  0.24932756  0.74798110  1
  Zn  Zn103  1  -0.00123648  0.74963062  0.24906488  1
  Zn  Zn104  1  0.62397946  0.12589240  0.49851209  1
  Zn  Zn105  1  0.74826676  0.37540692  0.62598599  1
  Zn  Zn106  1  0.37668085  -0.00015714  0.37563920  1
  Zn  Zn107  1  0.50019572  0.12730780  0.62343658  1
  Zn  Zn108  1  -0.00034796  0.62455782  0.12728757  1
  Zn  Zn109  1  0.62304044  0.24923584  0.37510428  1
  Zn  Zn110  1  0.12444486  0.62675952  0.49941255  1
  Zn  Zn111  1  0.87879127  -0.00070032  0.37412517  1
  Zn  Zn112  1  0.50026020  -0.00231065  0.00022329  1
  Zn  Zn113  1  0.25044926  0.87477682  0.62327774  1
  Zn  Zn114  1  0.75317595  0.87379757  0.62672025  1
  Zn  Zn115  1  0.37689773  0.87398851  -0.00097248  1
  Zn  Zn116  1  0.49963692  0.49967726  0.50003799  1
  Zn  Zn117  1  -0.00045158  0.87514731  0.87533980  1
  Zn  Zn118  1  0.12243495  0.37365474  0.74811911  1
  Zn  Zn119  1  0.37385660  0.50199637  0.87864009  1
  Zn  Zn120  1  -0.00100145  0.00088601  0.49697198  1
  Zn  Zn121  1  0.75287685  -0.00108639  0.25122507  1
  Zn  Zn122  1  0.49825033  0.75141285  0.75174985  1
  Zn  Zn123  1  0.49804029  0.49999007  0.00071264  1
  Zn  Zn124  1  0.87727020  0.12432371  0.74895254  1
  Zn  Zn125  1  0.12323657  0.50022020  0.12581546  1
  Zn  Zn126  1  -0.00177888  0.87710226  0.37395821  1
  Zn  Zn127  1  0.87510238  0.75250685  0.62856187  1
  Zn  Zn128  1  0.18675340  0.18720906  0.18675908  1
  Zn  Zn129  1  0.18695798  0.18758144  0.68757964  1
  Zn  Zn130  1  0.18867520  0.68774656  0.18683712  1
  Zn  Zn131  1  0.18769756  0.68709202  0.68533692  1
  Zn  Zn132  1  0.68745452  0.18743963  0.18779075  1
  Zn  Zn133  1  0.68795345  0.18689116  0.68833420  1
  Zn  Zn134  1  0.68859668  0.68778189  0.18836819  1
  Zn  Zn135  1  0.68888923  0.68819213  0.68844487  1
  Zn  Zn136  1  0.31242064  0.31150395  0.31155018  1
  Zn  Zn137  1  0.31257871  0.31346241  0.81185285  1
  Zn  Zn138  1  0.31360190  0.81401831  0.31342675  1
  Zn  Zn139  1  0.30883457  0.81290445  0.81211978  1
  Zn  Zn140  1  0.81239549  0.31110475  0.31283966  1
  Zn  Zn141  1  0.81108706  0.31259597  0.81218204  1
  Zn  Zn142  1  0.81191879  0.81132886  0.31424637  1
  Zn  Zn143  1  0.81216641  0.81262229  0.81328240  1
  Zn  Zn144  1  0.18591043  0.43896935  0.43723751  1
  Zn  Zn145  1  0.18735525  0.43664456  0.93606153  1
  Zn  Zn146  1  0.19041593  0.93760111  0.43646973  1
  Zn  Zn147  1  0.18914191  0.93686900  0.93726191  1
  Zn  Zn148  1  0.68474337  0.43684963  0.43834811  1
  Zn  Zn149  1  0.68587103  0.43699697  0.93764306  1
  Zn  Zn150  1  0.69034737  0.93733506  0.43824916  1
  Zn  Zn151  1  0.68865790  0.93881639  0.93845026  1
  Zn  Zn152  1  0.31162321  0.06151907  0.06178545  1
  Zn  Zn153  1  0.31167256  0.06269998  0.56246783  1
  Zn  Zn154  1  0.31213086  0.56167546  0.06396614  1
  Zn  Zn155  1  0.31195419  0.56383755  0.56178563  1
  Zn  Zn156  1  0.81272814  0.06147669  0.06267830  1
  Zn  Zn157  1  0.81177557  0.06226557  0.56131467  1
  Zn  Zn158  1  0.81232217  0.56226010  0.06336598  1
  Zn  Zn159  1  0.81159824  0.56289146  0.56502195  1
  Zn  Zn160  1  0.43694603  0.43748807  0.18703355  1
  Zn  Zn161  1  0.43718214  0.43826718  0.68627518  1
  Zn  Zn162  1  0.43891122  0.93741297  0.18788492  1
  Zn  Zn163  1  0.43904293  0.93719498  0.68792658  1
  Zn  Zn164  1  0.93782372  0.43935200  0.18641723  1
  Zn  Zn165  1  0.93601511  0.43615273  0.68815636  1
  Zn  Zn166  1  0.93824910  0.93906713  0.18683669  1
  Zn  Zn167  1  0.93867633  0.93742191  0.68565090  1
  Zn  Zn168  1  0.06227029  0.05984881  0.31324793  1
  Zn  Zn169  1  0.05880797  0.06524343  0.81004532  1
  Zn  Zn170  1  0.06141600  0.56391809  0.31222795  1
  Zn  Zn171  1  0.06310053  0.56101369  0.81318283  1
  Zn  Zn172  1  0.56507016  0.06237864  0.31207571  1
  Zn  Zn173  1  0.56201933  0.06466905  0.81219607  1
  Zn  Zn174  1  0.56227598  0.56097927  0.31336327  1
  Zn  Zn175  1  0.56057157  0.56220386  0.81381496  1
  Zn  Zn176  1  0.43660044  0.18714461  0.43671308  1
  Zn  Zn177  1  0.43858173  0.18666968  0.93674753  1
  Zn  Zn178  1  0.43831880  0.68670790  0.43886368  1
  Zn  Zn179  1  0.43896915  0.68790690  0.93710852  1
  Zn  Zn180  1  0.93735919  0.18661651  0.43953654  1
  Zn  Zn181  1  0.93770624  0.18666226  0.93600747  1
  Zn  Zn182  1  0.93763493  0.68984336  0.43782992  1
  Zn  Zn183  1  0.93929240  0.68762011  0.93887940  1
  Zn  Zn184  1  0.06319463  0.31250589  0.06115776  1
  Zn  Zn185  1  0.06128482  0.31341805  0.56134994  1
  Zn  Zn186  1  0.06079704  0.81159606  0.06396481  1
  Zn  Zn187  1  0.06137124  0.81297236  0.56147223  1
  Zn  Zn188  1  0.56288715  0.31043923  0.06220090  1
  Zn  Zn189  1  0.56150814  0.31526908  0.56238424  1
  Zn  Zn190  1  0.56083142  0.81438446  0.06116036  1
  Zn  Zn191  1  0.56284600  0.81257565  0.56597045  1
  O  O192  1  0.11878251  0.12465090  0.11756063  1
  O  O193  1  0.12721389  0.11580021  0.61828393  1
  O  O194  1  0.12440719  0.62482581  0.11289267  1
  O  O195  1  0.11505203  0.61934580  0.62330933  1
  O  O196  1  0.62059147  0.11967242  0.12092911  1
  O  O197  1  0.62259523  0.11193369  0.62372947  1
  O  O198  1  0.62093767  0.61996967  0.12131647  1
  O  O199  1  0.61936210  0.62080610  0.62197704  1
  O  O200  1  0.37862592  0.38008527  0.37848058  1
  O  O201  1  0.38382957  0.37524704  0.88062430  1
  O  O202  1  0.38447624  0.87655296  0.38193791  1
  O  O203  1  0.37383479  0.88669835  0.87314454  1
  O  O204  1  0.87978523  0.38057092  0.37942301  1
  O  O205  1  0.87915969  0.38023059  0.88137291  1
  O  O206  1  0.87518648  0.87560169  0.38525534  1
  O  O207  1  0.87658125  0.88095236  0.88234389  1
  O  O208  1  0.25331211  0.00699628  0.36783179  1
  O  O209  1  0.25719968  0.00629482  0.86888502  1
  O  O210  1  0.25478741  0.50557725  0.36919993  1
  O  O211  1  0.25234630  0.50061758  0.86244121  1
  O  O212  1  0.75217513  0.01295620  0.37427650  1
  O  O213  1  0.75635068  0.00558950  0.87074451  1
  O  O214  1  0.75452432  0.50430897  0.37033968  1
  O  O215  1  0.75492395  0.50555835  0.87156882  1
  O  O216  1  0.24788478  0.49259890  0.13264353  1
  O  O217  1  0.24475551  0.49595073  0.63061702  1
  O  O218  1  0.24872256  0.99321174  0.13121173  1
  O  O219  1  0.24007214  0.99836367  0.63064897  1
  O  O220  1  0.74485598  0.49357417  0.13119946  1
  O  O221  1  0.74263273  0.49978620  0.63361848  1
  O  O222  1  0.74422075  0.99296327  0.12716148  1
  O  O223  1  0.74004095  0.99877156  0.63088683  1
  O  O224  1  0.00417142  0.37011703  0.25525289  1
  O  O225  1  0.00169357  0.37304573  0.75842225  1
  O  O226  1  0.01368226  0.87312016  0.24967985  1
  O  O227  1  0.01371505  0.87304919  0.75161775  1
  O  O228  1  0.50392871  0.36885566  0.25366772  1
  O  O229  1  0.50277813  0.37075224  0.75766443  1
  O  O230  1  0.50665876  0.86867055  0.25650458  1
  O  O231  1  0.51319506  0.87446453  0.75334481  1
  O  O232  1  0.49505589  0.12994919  0.24470432  1
  O  O233  1  0.49304249  0.13301769  0.74777259  1
  O  O234  1  0.49541001  0.63057552  0.24588631  1
  O  O235  1  0.48852549  0.62492804  0.74496408  1
  O  O236  1  0.99671642  0.13173029  0.24462352  1
  O  O237  1  0.99490599  0.13101214  0.74320986  1
  O  O238  1  0.99088909  0.62705688  0.24821425  1
  O  O239  1  0.99488691  0.62293135  0.74145955  1
  O  O240  1  0.36873249  0.25386795  0.00509514  1
  O  O241  1  0.36836788  0.25562727  0.50425170  1
  O  O242  1  0.36814272  0.74868297  0.00660517  1
  O  O243  1  0.37117744  0.75524836  0.50483377  1
  O  O244  1  0.87008641  0.25538161  0.00593450  1
  O  O245  1  0.86598688  0.25560938  0.50593150  1
  O  O246  1  0.86930410  0.75488934  0.00469641  1
  O  O247  1  0.86847948  0.75775137  0.50124374  1
  O  O248  1  0.13068258  0.24578622  0.49378637  1
  O  O249  1  0.13098710  0.24412122  0.99360959  1
  O  O250  1  0.13147628  0.75103627  0.48914402  1
  O  O251  1  0.12957691  0.74296026  0.99349876  1
  O  O252  1  0.63541232  0.24929948  0.49960065  1
  O  O253  1  0.63294409  0.24265538  0.99979933  1
  O  O254  1  0.63032941  0.74470980  0.49618816  1
  O  O255  1  0.63144287  0.74436411  0.99613927  1
  O  O256  1  0.49370359  0.24402426  0.13029157  1
  O  O257  1  0.49209428  0.25039435  0.63011301  1
  O  O258  1  0.49616191  0.74413212  0.13213098  1
  O  O259  1  0.49323906  0.74355495  0.62901583  1
  O  O260  1  0.99486882  0.24540536  0.12993780  1
  O  O261  1  0.98696162  0.25117228  0.62303090  1
  O  O262  1  0.99078005  0.74625110  0.12750719  1
  O  O263  1  1.00018934  0.73674754  0.62696918  1
  O  O264  1  0.00476462  0.25603076  0.36977833  1
  O  O265  1  0.00583066  0.25661881  0.87506157  1
  O  O266  1  0.01345793  0.75224919  0.37236957  1
  O  O267  1  0.01405583  0.75153296  0.87405083  1
  O  O268  1  0.50003748  0.25624856  0.36771691  1
  O  O269  1  0.50042301  0.26025233  0.86836791  1
  O  O270  1  0.50656497  0.75443917  0.37088922  1
  O  O271  1  0.50868219  0.75191378  0.87124362  1
  O  O272  1  0.24522744  0.13106028  0.49327870  1
  O  O273  1  0.24471314  0.13085473  0.99408737  1
  O  O274  1  0.24822680  0.63227713  0.49240242  1
  O  O275  1  0.24100920  0.62986275  0.99908574  1
  O  O276  1  0.74920922  0.13434913  0.49089736  1
  O  O277  1  0.74554051  0.13014131  0.99559896  1
  O  O278  1  0.74467172  0.62945888  0.49526075  1
  O  O279  1  0.74474552  0.63022885  0.99541017  1
  O  O280  1  0.25481983  0.36892814  0.00496698  1
  O  O281  1  0.25441916  0.36949400  0.50317100  1
  O  O282  1  0.25171459  0.86753146  0.00689043  1
  O  O283  1  0.25910230  0.86880927  0.50015982  1
  O  O284  1  0.75527176  0.36978150  0.00554294  1
  O  O285  1  0.75446943  0.36552703  0.49935886  1
  O  O286  1  0.75578157  0.86913152  0.00628591  1
  O  O287  1  0.75815747  0.86791880  0.50173873  1
  O  O288  1  0.13116531  0.49369330  0.25020353  1
  O  O289  1  0.13602073  0.49992026  0.74383915  1
  O  O290  1  0.13258907  0.98979075  0.24834946  1
  O  O291  1  0.12945577  0.99350894  0.74342349  1
  O  O292  1  0.63075160  0.49422645  0.24472907  1
  O  O293  1  0.62920262  0.49594671  0.74629342  1
  O  O294  1  0.62796224  0.99228534  0.24387070  1
  O  O295  1  0.62935125  0.99354776  0.74425481  1
  O  O296  1  0.37017730  0.00641877  0.25211233  1
  O  O297  1  0.36952230  0.00550717  0.75542764  1
  O  O298  1  0.36896122  0.50566981  0.25496449  1
  O  O299  1  0.36530129  0.50925169  0.74751882  1
  O  O300  1  0.87284938  0.00901766  0.25177827  1
  O  O301  1  0.86865353  -0.00121862  0.75562686  1
  O  O302  1  0.86827934  0.50410435  0.25592615  1
  O  O303  1  0.86846985  0.50497245  0.75725312  1
  O  O304  1  0.11875648  0.36952001  0.36967341  1
  O  O305  1  0.11834756  0.36859781  0.87418991  1
  O  O306  1  0.12908019  0.86598124  0.36506489  1
  O  O307  1  0.12522405  0.86708086  0.86661112  1
  O  O308  1  0.61748695  0.37385920  0.36752114  1
  O  O309  1  0.61442245  0.37353418  0.86989027  1
  O  O310  1  0.62139458  0.86840560  0.37107088  1
  O  O311  1  0.62620536  0.87065265  0.86684559  1
  O  O312  1  0.37977691  0.12990573  0.12972869  1
  O  O313  1  0.37505810  0.13252987  0.63079082  1
  O  O314  1  0.38066690  0.63036347  0.13171289  1
  O  O315  1  0.37930677  0.63013852  0.63182462  1
  O  O316  1  0.88094382  0.13139173  0.12972732  1
  O  O317  1  0.87492002  0.13649235  0.62376118  1
  O  O318  1  0.87309384  0.63117009  0.13178623  1
  O  O319  1  0.88475252  0.62385628  0.63220009  1
  O  O320  1  0.25523525  0.25477819  0.11917648  1
  O  O321  1  0.25445696  0.25609714  0.61841163  1
  O  O322  1  0.25714407  0.75459752  0.12086485  1
  O  O323  1  0.25604328  0.75105353  0.61690382  1
  O  O324  1  0.75653906  0.25539126  0.12011762  1
  O  O325  1  0.75622242  0.25073095  0.61456039  1
  O  O326  1  0.75481136  0.75549555  0.11956641  1
  O  O327  1  0.75296064  0.75107843  0.61702138  1
  O  O328  1  0.24418654  0.24495846  0.37929458  1
  O  O329  1  0.24543635  0.24536806  0.88008097  1
  O  O330  1  0.24348959  0.74539194  0.37882563  1
  O  O331  1  0.23866308  0.74807934  0.88078341  1
  O  O332  1  0.74953248  0.24294754  0.38383132  1
  O  O333  1  0.74904061  0.24382777  0.88213494  1
  O  O334  1  0.74350110  0.74249381  0.38216352  1
  O  O335  1  0.74446210  0.74381471  0.88203045  1
  O  O336  1  0.00530600  0.12019042  0.00524858  1
  O  O337  1  0.00959994  0.12330647  0.50286160  1
  O  O338  1  0.00971861  0.61877978  0.00035006  1
  O  O339  1  -0.00058223  0.61937109  0.50917087  1
  O  O340  1  0.50672453  0.12410279  0.00709470  1
  O  O341  1  0.50235378  0.11434235  0.50093828  1
  O  O342  1  0.50687807  0.62364350  0.00769897  1
  O  O343  1  0.50689013  0.62317674  0.50681978  1
  O  O344  1  0.49193846  0.37679857  0.49237936  1
  O  O345  1  0.49464272  0.37375027  0.99184308  1
  O  O346  1  0.49723784  0.88223937  0.49627339  1
  O  O347  1  0.49497475  0.87978482  0.99560943  1
  O  O348  1  0.99344992  0.38138373  0.49300661  1
  O  O349  1  0.99392675  0.38002777  0.99467683  1
  O  O350  1  0.98855366  0.87492110  0.49795834  1
  O  O351  1  0.99398765  0.88174615  0.99948948  1
  O  O352  1  0.49180681  0.49321225  0.37519425  1
  O  O353  1  0.49667272  0.48732998  0.87702663  1
  O  O354  1  0.50257650  0.99396472  0.38568426  1
  O  O355  1  0.48669034  1.00138247  0.87477737  1
  O  O356  1  0.99346041  0.49516308  0.38001824  1
  O  O357  1  0.99390346  0.49431991  0.88092066  1
  O  O358  1  0.99758152  0.99513583  0.37920975  1
  O  O359  1  0.99370761  0.99915788  0.88163499  1
  O  O360  1  0.00294117  0.00744658  0.11747358  1
  O  O361  1  0.01467460  0.00099813  0.62232074  1
  O  O362  1  0.00301334  0.50264854  0.11648400  1
  O  O363  1  0.00367796  0.50703190  0.62008826  1
  O  O364  1  0.50721977  0.00689041  0.12485788  1
  O  O365  1  0.50888194  0.00007171  0.61670803  1
  O  O366  1  0.50676404  0.50654648  0.12525475  1
  O  O367  1  0.50598457  0.50740374  0.62360910  1
  O  O368  1  0.24444336  0.37932020  0.24536349  1
  O  O369  1  0.25104179  0.38518816  0.74225493  1
  O  O370  1  0.24398291  0.87926816  0.24510930  1
  O  O371  1  0.23798004  0.88100399  0.74769274  1
  O  O372  1  0.74525578  0.37937819  0.24494047  1
  O  O373  1  0.74170340  0.38258044  0.75058235  1
  O  O374  1  0.74342363  0.87467841  0.24442487  1
  O  O375  1  0.73973687  0.88148269  0.74998813  1
  O  O376  1  0.25494130  0.12037755  0.25368706  1
  O  O377  1  0.25549164  0.12024254  0.75547007  1
  O  O378  1  0.25619797  0.62008258  0.25483559  1
  O  O379  1  0.25820134  0.61603970  0.74812497  1
  O  O380  1  0.75690148  0.12734552  0.25889740  1
  O  O381  1  0.75169386  0.11802654  0.75713136  1
  O  O382  1  0.75386584  0.61841473  0.25718090  1
  O  O383  1  0.75513990  0.61948985  0.75776544  1
  O  O384  1  0.36836170  0.12372304  0.36755948  1
  O  O385  1  0.36880931  0.11905038  0.86868804  1
  O  O386  1  0.37019192  0.62064806  0.36928352  1
  O  O387  1  0.37240460  0.62362241  0.86364135  1
  O  O388  1  0.86588396  0.12705319  0.36940018  1
  O  O389  1  0.86768629  0.11772091  0.87463375  1
  O  O390  1  0.86867968  0.61951082  0.37086679  1
  O  O391  1  0.86981924  0.61917229  0.87217969  1
  O  O392  1  0.13157249  0.37504998  0.13151870  1
  O  O393  1  0.13131512  0.38211778  0.62474366  1
  O  O394  1  0.13283395  0.87336426  0.13448229  1
  O  O395  1  0.12700079  0.88197060  0.63230979  1
  O  O396  1  0.63057974  0.37964537  0.13012241  1
  O  O397  1  0.62527137  0.38298610  0.63227518  1
  O  O398  1  0.63046616  0.87886236  0.13084208  1
  O  O399  1  0.62662634  0.88432988  0.63494347  1
  O  O400  1  0.11973201  0.25573809  0.25561453  1
  O  O401  1  0.12470910  0.25355599  0.75746249  1
  O  O402  1  0.12785286  0.75867085  0.25796237  1
  O  O403  1  0.12658166  0.75701326  0.75755698  1
  O  O404  1  0.61781124  0.25702937  0.24955910  1
  O  O405  1  0.61816254  0.25682561  0.75023941  1
  O  O406  1  0.62034192  0.75418014  0.25697477  1
  O  O407  1  0.62621732  0.75942251  0.75625834  1
  O  O408  1  0.37951153  0.24391786  0.24322861  1
  O  O409  1  0.37882665  0.24594766  0.74359508  1
  O  O410  1  0.38143357  0.74458551  0.24591639  1
  O  O411  1  0.37198546  0.74022553  0.74465344  1
  O  O412  1  0.88165666  0.24577451  0.24423721  1
  O  O413  1  0.87210659  0.25044930  0.73622628  1
  O  O414  1  0.87415786  0.74322486  0.24468910  1
  O  O415  1  0.87875820  0.74207257  0.75017056  1
  O  O416  1  0.37437488  0.49366635  0.49266524  1
  O  O417  1  0.37684042  0.49158987  0.99888185  1
  O  O418  1  0.38595615  0.99470904  0.50102220  1
  O  O419  1  0.37426160  0.99978645  0.98697944  1
  O  O420  1  0.87836783  0.49549316  0.49436302  1
  O  O421  1  0.87888643  0.49417678  0.99481355  1
  O  O422  1  0.87511858  0.98869966  0.49918160  1
  O  O423  1  0.88037825  0.99428487  0.99500485  1
  O  O424  1  0.11996474  0.00647000  -0.00001403  1
  O  O425  1  0.12818800  0.00423022  0.50881777  1
  O  O426  1  0.12084160  0.50924860  -0.00097126  1
  O  O427  1  0.11712381  0.50327693  0.50487283  1
  O  O428  1  0.62494713  0.00685916  0.00764708  1
  O  O429  1  0.61792464  -0.00201980  0.50944306  1
  O  O430  1  0.62425444  0.50657890  0.00755106  1
  O  O431  1  0.62392252  0.50698811  0.50747797  1
  O  O432  1  0.36929334  0.36789051  0.12058354  1
  O  O433  1  0.36869852  0.37047598  0.61814608  1
  O  O434  1  0.36980911  0.86728968  0.12552264  1
  O  O435  1  0.37431352  0.86850670  0.61985802  1
  O  O436  1  0.86948350  0.36975018  0.11991912  1
  O  O437  1  0.87058995  0.36776490  0.61773367  1
  O  O438  1  0.86936444  0.86947329  0.12017147  1
  O  O439  1  0.87347840  0.87233257  0.61568060  1
  O  O440  1  0.13135289  0.13128060  0.37890521  1
  O  O441  1  0.13074790  0.13022956  0.87978672  1
  O  O442  1  0.13142900  0.63575609  0.37397080  1
  O  O443  1  0.12684404  0.63253675  0.88362492  1
  O  O444  1  0.63631793  0.12878517  0.37602637  1
  O  O445  1  0.63204433  0.12589224  0.88175857  1
  O  O446  1  0.62999228  0.62908245  0.38120979  1
  O  O447  1  0.63032169  0.62957940  0.88080099  1
