# generated using pymatgen
data_V3Zn3O8
_symmetry_space_group_name_H-M   'P 1'
_cell_length_a   17.08753217
_cell_length_b   17.08742384
_cell_length_c   17.08736100
_cell_angle_alpha   89.99124498
_cell_angle_beta   90.01119133
_cell_angle_gamma   90.00143018
_symmetry_Int_Tables_number   1
_chemical_formula_structural   V3Zn3O8
_chemical_formula_sum   'V96 Zn96 O256'
_cell_volume   4989.20005389
_cell_formula_units_Z   32
loop_
 _symmetry_equiv_pos_site_id
 _symmetry_equiv_pos_as_xyz
  1  'x, y, z'
loop_
 _atom_site_type_symbol
 _atom_site_label
 _atom_site_symmetry_multiplicity
 _atom_site_fract_x
 _atom_site_fract_y
 _atom_site_fract_z
 _atom_site_occupancy
  V  V0  1  0.74977394  0.25153816  -0.00026851  1
  V  V1  1  0.74855834  0.87747975  0.62650518  1
  V  V2  1  0.74961918  0.12481905  0.37554329  1
  V  V3  1  0.12363781  0.87677045  0.75019561  1
  V  V4  1  0.87691309  0.74946985  0.12561293  1
  V  V5  1  0.87333604  0.87532707  0.00024762  1
  V  V6  1  0.87417716  -0.00084632  0.37601767  1
  V  V7  1  0.50214273  0.62568055  0.62490987  1
  V  V8  1  0.62505392  0.37633195  0.74849457  1
  V  V9  1  0.37662388  0.50050688  0.37418327  1
  V  V10  1  0.25045251  0.62583709  0.37538250  1
  V  V11  1  0.37596451  0.37547880  0.50023848  1
  V  V12  1  0.49989115  0.00090749  0.50331046  1
  V  V13  1  0.24936019  0.74977160  0.49921420  1
  V  V14  1  0.25177888  0.25182790  0.49978091  1
  V  V15  1  0.74851431  0.00013419  0.25068347  1
  V  V16  1  0.87471036  0.37482550  -0.00050535  1
  V  V17  1  0.37447468  0.24983426  0.12400968  1
  V  V18  1  0.25046300  -0.00148079  0.25060602  1
  V  V19  1  0.50046490  0.62388177  0.12363371  1
  V  V20  1  0.49924269  0.49983186  -0.00126528  1
  V  V21  1  0.25196043  0.37674689  0.62419099  1
  V  V22  1  0.74957153  0.87481034  0.12503961  1
  V  V23  1  0.25073992  0.12481004  0.37531229  1
  V  V24  1  -0.00031580  0.87312818  0.37416068  1
  V  V25  1  0.50266365  0.50116583  0.49983636  1
  V  V26  1  0.24991679  0.50038064  0.75041386  1
  V  V27  1  0.37384612  -0.00010445  0.87445681  1
  V  V28  1  0.00044719  0.37473450  0.87460201  1
  V  V29  1  0.62489807  0.12474318  0.50061602  1
  V  V30  1  0.75022179  0.62466175  0.37515286  1
  V  V31  1  0.12453599  0.12370254  0.00107451  1
  V  V32  1  0.12628042  0.37438207  0.24961359  1
  V  V33  1  0.00098649  0.25034181  0.75009309  1
  V  V34  1  0.62601516  0.24933807  0.37526276  1
  V  V35  1  0.62313970  0.25146431  0.87421949  1
  V  V36  1  0.50007186  -0.00019738  -0.00020594  1
  V  V37  1  0.75137596  0.49911057  0.24858624  1
  V  V38  1  0.87465158  0.75016759  0.62534994  1
  V  V39  1  0.49904172  0.74993726  0.74947403  1
  V  V40  1  0.00127047  0.37464863  0.37425751  1
  V  V41  1  0.24809976  0.12543064  0.87610588  1
  V  V42  1  0.75064635  0.37477804  0.12360327  1
  V  V43  1  0.37354710  0.87506200  0.50118199  1
  V  V44  1  0.87536626  0.12488288  0.25045130  1
  V  V45  1  0.37509339  -0.00056306  0.37687613  1
  V  V46  1  0.12318098  0.12389751  0.50236704  1
  V  V47  1  0.00055711  0.24820416  0.24964514  1
  V  V48  1  0.87571821  0.50056934  0.87483569  1
  V  V49  1  0.62502510  0.75016040  0.87589907  1
  V  V50  1  0.12488162  0.37507714  0.75036912  1
  V  V51  1  0.87547746  0.12595260  0.75035204  1
  V  V52  1  0.37414113  0.12629172  0.74713614  1
  V  V53  1  0.87350450  0.87517689  0.50017730  1
  V  V54  1  0.50129173  0.37546082  0.37485679  1
  V  V55  1  0.62455695  0.12611674  -0.00051414  1
  V  V56  1  0.87692531  0.62476923  0.24853025  1
  V  V57  1  0.87324443  0.00113466  0.87498274  1
  V  V58  1  0.37554390  0.12428410  0.25084968  1
  V  V59  1  0.12561802  0.62505886  0.49937522  1
  V  V60  1  0.37541057  0.74970824  0.12489994  1
  V  V61  1  0.49923721  0.37622520  0.87372003  1
  V  V62  1  0.50090945  0.74971416  0.25035604  1
  V  V63  1  -0.00021836  0.12364760  0.12612000  1
  V  V64  1  0.12533981  0.50156665  0.62443141  1
  V  V65  1  0.24737370  0.87430862  0.62557830  1
  V  V66  1  0.24932596  0.87517460  0.12663382  1
  V  V67  1  0.37558628  0.62456521  0.24936414  1
  V  V68  1  0.75065263  0.37557419  0.62441334  1
  V  V69  1  0.25065518  0.50001062  0.24901176  1
  V  V70  1  0.62371597  0.87422724  0.25056865  1
  V  V71  1  0.12460456  0.75011641  0.87777645  1
  V  V72  1  0.87591498  0.49922822  0.37344473  1
  V  V73  1  0.62448542  -0.00010254  0.12565115  1
  V  V74  1  0.49922653  0.87449199  0.87448156  1
  V  V75  1  0.87749887  0.25006861  0.62502233  1
  V  V76  1  0.37465068  0.49963439  0.87432453  1
  V  V77  1  0.87610236  0.37418394  0.49979060  1
  V  V78  1  0.62579224  0.37480923  0.24924304  1
  V  V79  1  0.24938417  0.62503719  0.87582985  1
  V  V80  1  0.12656105  0.25012122  0.37438480  1
  V  V81  1  0.62618082  0.74833070  0.37469786  1
  V  V82  1  0.50072622  0.24957135  0.24987613  1
  V  V83  1  -0.00107659  0.87558889  0.87584545  1
  V  V84  1  0.25146318  0.37324615  0.12389475  1
  V  V85  1  0.37471946  0.87441137  0.00003799  1
  V  V86  1  0.00149504  0.50055726  0.49960578  1
  V  V87  1  0.62443495  0.87716154  0.75007899  1
  V  V88  1  0.74958915  0.12594888  0.87464802  1
  V  V89  1  0.62450227  0.50020714  0.12321924  1
  V  V90  1  -0.00119853  0.00104561  0.00182988  1
  V  V91  1  0.87677596  0.62556104  0.75004108  1
  V  V92  1  0.12467868  0.49996302  0.12404432  1
  V  V93  1  0.00131746  0.50022315  0.00137943  1
  V  V94  1  0.49994312  0.12478281  0.12531590  1
  V  V95  1  0.74957362  0.62601466  0.87691455  1
  Zn  Zn96  1  0.75087136  0.50024387  0.74896482  1
  Zn  Zn97  1  0.49714660  0.25178635  0.74743942  1
  Zn  Zn98  1  0.12486129  0.25013674  0.87650961  1
  Zn  Zn99  1  0.25034402  0.74927600  0.00148490  1
  Zn  Zn100  1  0.62747524  0.50116090  0.62248047  1
  Zn  Zn101  1  0.87505432  0.24944741  0.12476567  1
  Zn  Zn102  1  0.74820561  0.75084453  0.00050913  1
  Zn  Zn103  1  -0.00010418  0.12300068  0.62565995  1
  Zn  Zn104  1  0.24951413  0.24962863  0.00111663  1
  Zn  Zn105  1  0.37558175  0.74971556  0.62592853  1
  Zn  Zn106  1  -0.00166608  0.00052974  0.50206325  1
  Zn  Zn107  1  0.00010211  0.62545716  0.62389442  1
  Zn  Zn108  1  -0.00079192  0.75065093  0.75019980  1
  Zn  Zn109  1  0.12389932  -0.00145812  0.12811747  1
  Zn  Zn110  1  0.12033159  -0.00043192  0.62444271  1
  Zn  Zn111  1  0.62453550  0.62633249  -0.00040190  1
  Zn  Zn112  1  0.74803723  0.74821364  0.49938451  1
  Zn  Zn113  1  0.37701508  0.25007631  0.62422678  1
  Zn  Zn114  1  0.75100972  0.24892037  0.49929088  1
  Zn  Zn115  1  0.37348918  0.37179015  -0.00229331  1
  Zn  Zn116  1  0.62484913  0.00281909  0.62767777  1
  Zn  Zn117  1  0.50389907  0.12802326  0.62843592  1
  Zn  Zn118  1  0.62798087  0.62468648  0.50035469  1
  Zn  Zn119  1  0.12375896  0.87341795  0.25150755  1
  Zn  Zn120  1  0.12383640  0.74975205  0.37306765  1
  Zn  Zn121  1  0.00336119  0.74851946  0.25026498  1
  Zn  Zn122  1  0.12410367  0.62509603  0.00260835  1
  Zn  Zn123  1  0.74759085  0.00275449  0.75110416  1
  Zn  Zn124  1  0.37534969  0.62671021  0.74916619  1
  Zn  Zn125  1  0.50047004  0.87291935  0.37750531  1
  Zn  Zn126  1  0.24805569  0.00085631  0.74858529  1
  Zn  Zn127  1  0.00332440  0.62578123  0.12553829  1
  Zn  Zn128  1  0.18772741  0.18561808  0.18654235  1
  Zn  Zn129  1  0.18931293  0.19067114  0.68683293  1
  Zn  Zn130  1  0.18552377  0.68880175  0.18936675  1
  Zn  Zn131  1  0.18628528  0.68865467  0.68829162  1
  Zn  Zn132  1  0.68815325  0.18793594  0.18722731  1
  Zn  Zn133  1  0.68861150  0.18974509  0.68689476  1
  Zn  Zn134  1  0.68871944  0.68644098  0.18780335  1
  Zn  Zn135  1  0.68673835  0.68964673  0.68978932  1
  Zn  Zn136  1  0.31405905  0.31231428  0.31178701  1
  Zn  Zn137  1  0.31182612  0.31123468  0.81220610  1
  Zn  Zn138  1  0.31414331  0.81174973  0.31379034  1
  Zn  Zn139  1  0.31213273  0.81057773  0.81098030  1
  Zn  Zn140  1  0.81309606  0.31115198  0.31202083  1
  Zn  Zn141  1  0.81257347  0.31180078  0.81170943  1
  Zn  Zn142  1  0.81246822  0.81115254  0.31122397  1
  Zn  Zn143  1  0.81063056  0.81266210  0.81166474  1
  Zn  Zn144  1  0.18894086  0.43916394  0.43688763  1
  Zn  Zn145  1  0.18725723  0.43606118  0.93912727  1
  Zn  Zn146  1  0.18543362  0.93768137  0.43742535  1
  Zn  Zn147  1  0.18749025  0.93950001  0.93983107  1
  Zn  Zn148  1  0.68826930  0.43800221  0.43794333  1
  Zn  Zn149  1  0.68715441  0.43963569  0.93654808  1
  Zn  Zn150  1  0.68625122  0.93645516  0.43883530  1
  Zn  Zn151  1  0.68746262  0.93800733  0.93753543  1
  Zn  Zn152  1  0.31266796  0.06125088  0.06259520  1
  Zn  Zn153  1  0.30859778  0.06038141  0.56371337  1
  Zn  Zn154  1  0.31256353  0.56042793  0.06039503  1
  Zn  Zn155  1  0.31563171  0.56355750  0.56273587  1
  Zn  Zn156  1  0.81209936  0.06340636  0.06285736  1
  Zn  Zn157  1  0.81298131  0.06293088  0.56237508  1
  Zn  Zn158  1  0.81442528  0.56284001  0.06174433  1
  Zn  Zn159  1  0.81276330  0.56170079  0.56042410  1
  Zn  Zn160  1  0.43747714  0.43638053  0.18607446  1
  Zn  Zn161  1  0.43750211  0.44111731  0.68738409  1
  Zn  Zn162  1  0.43732083  0.93647469  0.18868800  1
  Zn  Zn163  1  0.43497041  0.93892194  0.68749619  1
  Zn  Zn164  1  0.93878160  0.43609190  0.18577365  1
  Zn  Zn165  1  0.93874241  0.43867509  0.68726287  1
  Zn  Zn166  1  0.93634607  0.93763871  0.18903332  1
  Zn  Zn167  1  0.93790913  0.94083714  0.68767050  1
  Zn  Zn168  1  0.06330736  0.05869923  0.31373225  1
  Zn  Zn169  1  0.06033505  0.06248857  0.81362246  1
  Zn  Zn170  1  0.06327058  0.56353860  0.31146962  1
  Zn  Zn171  1  0.06216849  0.56230351  0.81304023  1
  Zn  Zn172  1  0.56168384  0.06131905  0.31563806  1
  Zn  Zn173  1  0.56062095  0.06251068  0.81212062  1
  Zn  Zn174  1  0.56414688  0.56284141  0.31097118  1
  Zn  Zn175  1  0.56356038  0.56185967  0.81047113  1
  Zn  Zn176  1  0.43863128  0.18748057  0.43861881  1
  Zn  Zn177  1  0.43653558  0.18898338  0.93614520  1
  Zn  Zn178  1  0.43783267  0.68832994  0.43929318  1
  Zn  Zn179  1  0.43671210  0.68703977  0.93744235  1
  Zn  Zn180  1  0.93815200  0.18841040  0.43693305  1
  Zn  Zn181  1  0.93762712  0.18860431  0.93737790  1
  Zn  Zn182  1  0.93588925  0.68767306  0.43821746  1
  Zn  Zn183  1  0.93918009  0.68800802  0.94070294  1
  Zn  Zn184  1  0.06329367  0.31030588  0.06228327  1
  Zn  Zn185  1  0.06382660  0.31250450  0.56333673  1
  Zn  Zn186  1  0.06236591  0.81440863  0.06202587  1
  Zn  Zn187  1  0.06052394  0.81059108  0.55959274  1
  Zn  Zn188  1  0.56099251  0.31390550  0.06108594  1
  Zn  Zn189  1  0.56131105  0.30904691  0.56291315  1
  Zn  Zn190  1  0.56256964  0.81124618  0.06168487  1
  Zn  Zn191  1  0.56401285  0.81168969  0.56154088  1
  O  O192  1  0.11838441  0.12089700  0.11958731  1
  O  O193  1  0.12643231  0.12562088  0.61318137  1
  O  O194  1  0.12466298  0.61673184  0.12273980  1
  O  O195  1  0.12328305  0.61952287  0.61899932  1
  O  O196  1  0.61955186  0.11963881  0.11980890  1
  O  O197  1  0.62547501  0.12284800  0.61709157  1
  O  O198  1  0.61887454  0.61798089  0.12426549  1
  O  O199  1  0.61579916  0.62382391  0.62481652  1
  O  O200  1  0.38183381  0.38105667  0.37900651  1
  O  O201  1  0.38084958  0.38164131  0.87396553  1
  O  O202  1  0.37637122  0.88198514  0.38330084  1
  O  O203  1  0.37935264  0.87961921  0.87964906  1
  O  O204  1  0.88132213  0.37975763  0.37891278  1
  O  O205  1  0.87975721  0.38088110  0.87962134  1
  O  O206  1  0.87874327  0.87949725  0.38009270  1
  O  O207  1  0.87879773  0.87997975  0.88000070  1
  O  O208  1  0.25640077  0.00525465  0.37121738  1
  O  O209  1  0.25549249  0.00918596  0.87438259  1
  O  O210  1  0.25722400  0.50530108  0.36868439  1
  O  O211  1  0.25297590  0.50723394  0.87016123  1
  O  O212  1  0.75372286  0.00477725  0.36926850  1
  O  O213  1  0.75560188  0.00829925  0.87538593  1
  O  O214  1  0.75685144  0.50286936  0.36761138  1
  O  O215  1  0.75693739  0.50958493  0.87318930  1
  O  O216  1  0.24579946  0.49373529  0.13067871  1
  O  O217  1  0.24534554  0.49654130  0.63005249  1
  O  O218  1  0.25252400  0.98955360  0.13150580  1
  O  O219  1  0.24298367  0.98561911  0.62632433  1
  O  O220  1  0.74517979  0.49437104  0.12904086  1
  O  O221  1  0.75041255  0.48748900  0.62662550  1
  O  O222  1  0.74368959  0.99542297  0.13090705  1
  O  O223  1  0.75021378  0.98738957  0.62800953  1
  O  O224  1  0.00653502  0.36903488  0.25534065  1
  O  O225  1  0.00524974  0.37105176  0.75516508  1
  O  O226  1  -0.00146009  0.87414351  0.26217899  1
  O  O227  1  0.00786545  0.87337853  0.75732230  1
  O  O228  1  0.50617513  0.36962672  0.25487982  1
  O  O229  1  0.50971476  0.37610758  0.75447821  1
  O  O230  1  0.50604869  0.86796999  0.25149075  1
  O  O231  1  0.50389779  0.87072252  0.75533400  1
  O  O232  1  0.49551910  0.12944567  0.24536033  1
  O  O233  1  0.48709627  0.12659978  0.75044316  1
  O  O234  1  0.49441067  0.62925858  0.24327435  1
  O  O235  1  0.50068039  0.63077885  0.74137135  1
  O  O236  1  0.99527150  0.12843636  0.24680664  1
  O  O237  1  0.99376960  0.13229441  0.74983741  1
  O  O238  1  0.99160626  0.62660604  0.24709563  1
  O  O239  1  0.98782291  0.62754230  0.74902747  1
  O  O240  1  0.37268793  0.25041779  0.00905580  1
  O  O241  1  0.36882037  0.25766194  0.49848004  1
  O  O242  1  0.37413485  0.75693196  0.00674197  1
  O  O243  1  0.36771940  0.75724103  0.50260695  1
  O  O244  1  0.86750186  0.25710445  0.00051890  1
  O  O245  1  0.87469501  0.25725907  0.50549263  1
  O  O246  1  0.87299318  0.75678541  0.00915605  1
  O  O247  1  0.87097799  0.75498299  0.51093604  1
  O  O248  1  0.13160094  0.24445579  0.49348673  1
  O  O249  1  0.12759749  0.23908949  0.99698724  1
  O  O250  1  0.13155022  0.74241330  0.49751838  1
  O  O251  1  0.12721741  0.75050950  0.98783835  1
  O  O252  1  0.62649108  0.24328432  0.49176002  1
  O  O253  1  0.62952636  0.24532750  0.99443160  1
  O  O254  1  0.62776011  0.74695957  0.49000415  1
  O  O255  1  0.62744882  0.74672811  0.99217042  1
  O  O256  1  0.49615538  0.24416797  0.13082701  1
  O  O257  1  0.49408850  0.24533768  0.62873014  1
  O  O258  1  0.49521461  0.74439849  0.13065785  1
  O  O259  1  0.50031924  0.74193716  0.63056590  1
  O  O260  1  0.99847103  0.24256558  0.13269514  1
  O  O261  1  0.99436574  0.25008391  0.63227617  1
  O  O262  1  0.98745726  0.75133732  0.12547178  1
  O  O263  1  0.98597568  0.74828947  0.62711914  1
  O  O264  1  0.00692008  0.25566689  0.36894994  1
  O  O265  1  0.00063395  0.25760513  0.86806605  1
  O  O266  1  -0.00255750  0.76135116  0.37407802  1
  O  O267  1  0.00869136  0.75658594  0.87499336  1
  O  O268  1  0.50578385  0.25550148  0.36888989  1
  O  O269  1  0.50636499  0.25774615  0.87280281  1
  O  O270  1  0.50673712  0.75015427  0.36778202  1
  O  O271  1  0.50473569  0.75533209  0.86988153  1
  O  O272  1  0.24345768  0.13097578  0.49417091  1
  O  O273  1  0.24434949  0.12301313  0.99149527  1
  O  O274  1  0.24620648  0.62933496  0.49492949  1
  O  O275  1  0.24700363  0.62628945  0.98758620  1
  O  O276  1  0.74369262  0.12578997  0.49257990  1
  O  O277  1  0.74362562  0.13108588  0.99520951  1
  O  O278  1  0.74911880  0.62596443  0.49080287  1
  O  O279  1  0.75011308  0.62619072  0.98721558  1
  O  O280  1  0.25248296  0.37128598  0.00808569  1
  O  O281  1  0.25617920  0.37197679  0.50373134  1
  O  O282  1  0.25666758  0.87539414  0.01001340  1
  O  O283  1  0.25211018  0.87016407  0.50769118  1
  O  O284  1  0.75438757  0.37114913  0.00396880  1
  O  O285  1  0.75695296  0.37369479  0.50814565  1
  O  O286  1  0.75575020  0.87511591  0.00749692  1
  O  O287  1  0.75466345  0.87295325  0.51039587  1
  O  O288  1  0.13144635  0.49345169  0.24498789  1
  O  O289  1  0.12970359  0.49491932  0.74429072  1
  O  O290  1  0.13516641  0.99538704  0.24875122  1
  O  O291  1  0.12555469  0.98643789  0.75049636  1
  O  O292  1  0.63126244  0.49338552  0.24368827  1
  O  O293  1  0.62888409  0.48710945  0.74742622  1
  O  O294  1  0.62862445  0.99524106  0.24505860  1
  O  O295  1  0.62640586  0.99297347  0.74787495  1
  O  O296  1  0.37147069  0.00570412  0.25680626  1
  O  O297  1  0.37117644  0.00817551  0.75693668  1
  O  O298  1  0.37076437  0.50503851  0.25470709  1
  O  O299  1  0.36715350  0.50312807  0.75659767  1
  O  O300  1  0.86726175  0.00544023  0.25589974  1
  O  O301  1  0.87303856  0.00762238  0.75840543  1
  O  O302  1  0.87047420  0.50348129  0.25410807  1
  O  O303  1  0.87492743  0.50976933  0.75552149  1
  O  O304  1  0.12145255  0.37018642  0.36925168  1
  O  O305  1  0.11866697  0.37439895  0.86792982  1
  O  O306  1  0.11217436  0.87350626  0.37632370  1
  O  O307  1  0.12132544  0.86869981  0.86922656  1
  O  O308  1  0.62068980  0.36987566  0.36836930  1
  O  O309  1  0.62118906  0.37165774  0.86652232  1
  O  O310  1  0.62379087  0.86747620  0.36787803  1
  O  O311  1  0.61867934  0.87070461  0.87072263  1
  O  O312  1  0.38134849  0.12834929  0.13148800  1
  O  O313  1  0.37013662  0.12397956  0.63780072  1
  O  O314  1  0.37988061  0.62928973  0.13006765  1
  O  O315  1  0.38822284  0.62718435  0.62708030  1
  O  O316  1  0.88074498  0.12604760  0.13258426  1
  O  O317  1  0.87464858  0.13285940  0.63142707  1
  O  O318  1  0.87544127  0.63416260  0.12948970  1
  O  O319  1  0.87255646  0.63280576  0.63347953  1
  O  O320  1  0.25725944  0.25518544  0.12657959  1
  O  O321  1  0.25265974  0.25975200  0.61712589  1
  O  O322  1  0.25711111  0.75880670  0.12443188  1
  O  O323  1  0.25003150  0.75978322  0.61979161  1
  O  O324  1  0.75032974  0.25684099  0.11791541  1
  O  O325  1  0.75778153  0.26176264  0.62333943  1
  O  O326  1  0.75950857  0.75564836  0.12423839  1
  O  O327  1  0.75877883  0.75971528  0.62635965  1
  O  O328  1  0.24566512  0.24511121  0.37918288  1
  O  O329  1  0.24873896  0.23635588  0.87728353  1
  O  O330  1  0.25030193  0.74279064  0.38162013  1
  O  O331  1  0.24156066  0.74273781  0.87579381  1
  O  O332  1  0.74357984  0.24310935  0.37502947  1
  O  O333  1  0.74339948  0.24586322  0.88092332  1
  O  O334  1  0.74406018  0.74247841  0.37370306  1
  O  O335  1  0.74450104  0.74158478  0.87557257  1
  O  O336  1  0.00387118  0.11984112  0.00546740  1
  O  O337  1  0.01243907  0.12679803  0.49995946  1
  O  O338  1  0.00292673  0.61563541  0.00253575  1
  O  O339  1  0.00587611  0.61760693  0.50002115  1
  O  O340  1  0.50512808  0.11942298  0.00505894  1
  O  O341  1  0.50516025  0.11558436  0.50068563  1
  O  O342  1  0.50055253  0.61808157  0.00627959  1
  O  O343  1  0.50179897  0.61983252  0.50882059  1
  O  O344  1  0.49597854  0.38046791  0.49343436  1
  O  O345  1  0.49860350  0.38218067  0.99183027  1
  O  O346  1  0.49351778  0.88464722  0.50108450  1
  O  O347  1  0.49477130  0.88070221  0.99473067  1
  O  O348  1  0.99656510  0.38026888  0.49344992  1
  O  O349  1  0.99432045  0.37960048  0.99450142  1
  O  O350  1  0.99180579  0.87591136  0.49118197  1
  O  O351  1  0.99327582  0.88152760  0.99513294  1
  O  O352  1  0.49572683  0.49492752  0.37823570  1
  O  O353  1  0.49484241  0.49602389  0.87850550  1
  O  O354  1  0.49369553  0.99853332  0.38682793  1
  O  O355  1  0.49448440  0.99381290  0.88124377  1
  O  O356  1  0.99560302  0.49308842  0.37921473  1
  O  O357  1  0.99496196  0.49419570  0.88049865  1
  O  O358  1  0.99183631  0.99080967  0.37725144  1
  O  O359  1  0.99267131  0.99496264  0.88199432  1
  O  O360  1  -0.00043216  0.00523807  0.11956582  1
  O  O361  1  0.00334034  0.00466045  0.61968105  1
  O  O362  1  0.00720738  0.49921275  0.11884882  1
  O  O363  1  0.00690534  0.50126500  0.61739476  1
  O  O364  1  0.50497679  0.00520033  0.12004159  1
  O  O365  1  0.49970136  0.00345645  0.61331910  1
  O  O366  1  0.50485477  0.50449670  0.11999211  1
  O  O367  1  0.50256283  0.50942935  0.61905028  1
  O  O368  1  0.24547639  0.38060188  0.24556693  1
  O  O369  1  0.24475052  0.38124444  0.74480251  1
  O  O370  1  0.25397970  0.87999604  0.24068923  1
  O  O371  1  0.24049321  0.87444574  0.74288064  1
  O  O372  1  0.74531712  0.37962436  0.24419766  1
  O  O373  1  0.74345161  0.37539984  0.74163790  1
  O  O374  1  0.74398318  0.88130760  0.24430200  1
  O  O375  1  0.74361727  0.87663160  0.74206624  1
  O  O376  1  0.25634764  0.11931016  0.25578142  1
  O  O377  1  0.25462990  0.12277113  0.75899261  1
  O  O378  1  0.25688960  0.61912506  0.25490726  1
  O  O379  1  0.24917529  0.61997669  0.76049545  1
  O  O380  1  0.75432772  0.11914632  0.25531707  1
  O  O381  1  0.75649288  0.12630591  0.75769486  1
  O  O382  1  0.75712159  0.61712609  0.25413012  1
  O  O383  1  0.75965825  0.62492300  0.75919074  1
  O  O384  1  0.36981118  0.12004263  0.37020758  1
  O  O385  1  0.36710928  0.11989369  0.86837488  1
  O  O386  1  0.37090243  0.61933568  0.36902014  1
  O  O387  1  0.36473989  0.61989815  0.87300449  1
  O  O388  1  0.86965387  0.11957029  0.37004345  1
  O  O389  1  0.86902542  0.12104800  0.87079234  1
  O  O390  1  0.87015887  0.61815950  0.36901619  1
  O  O391  1  0.86874243  0.62235252  0.86818283  1
  O  O392  1  0.13091599  0.37897674  0.13166825  1
  O  O393  1  0.13203606  0.38215448  0.62964343  1
  O  O394  1  0.13807185  0.87600929  0.12565130  1
  O  O395  1  0.13016873  0.87126990  0.63398057  1
  O  O396  1  0.63017677  0.38018969  0.13016470  1
  O  O397  1  0.63433224  0.37361182  0.63194994  1
  O  O398  1  0.62916440  0.88054197  0.13026683  1
  O  O399  1  0.63451722  0.87504128  0.63055248  1
  O  O400  1  0.12074152  0.25436779  0.25569995  1
  O  O401  1  0.11920825  0.25792510  0.75156643  1
  O  O402  1  0.12113168  0.75515375  0.25513953  1
  O  O403  1  0.12269770  0.75927274  0.76020909  1
  O  O404  1  0.61967754  0.25502978  0.25471033  1
  O  O405  1  0.62473408  0.26170782  0.75597331  1
  O  O406  1  0.62020808  0.75482470  0.25438855  1
  O  O407  1  0.61866627  0.75795070  0.75684154  1
  O  O408  1  0.38201808  0.24344202  0.24563113  1
  O  O409  1  0.37436795  0.23860242  0.74856325  1
  O  O410  1  0.38114947  0.74358965  0.24471946  1
  O  O411  1  0.38363159  0.74771530  0.74729076  1
  O  O412  1  0.88256959  0.24289005  0.24949096  1
  O  O413  1  0.88154620  0.24572142  0.74516300  1
  O  O414  1  0.87496138  0.74416517  0.23926729  1
  O  O415  1  0.87552570  0.74245438  0.74256039  1
  O  O416  1  0.38198388  0.49500589  0.49274778  1
  O  O417  1  0.38167640  0.49709481  0.99203250  1
  O  O418  1  0.38064087  0.99604167  0.49632017  1
  O  O419  1  0.38169414  0.99466440  0.99457097  1
  O  O420  1  0.88179734  0.49368306  0.49305368  1
  O  O421  1  0.88090804  0.49404626  0.99432268  1
  O  O422  1  0.87448217  0.99328681  0.49273845  1
  O  O423  1  0.87931367  0.99534258  0.99503943  1
  O  O424  1  0.11626155  0.00581798  0.00277702  1
  O  O425  1  0.12376602  0.01365306  0.49941844  1
  O  O426  1  0.11831668  0.49927113  0.00687712  1
  O  O427  1  0.12123894  0.50516857  0.50488048  1
  O  O428  1  0.61919232  0.00594954  0.00577821  1
  O  O429  1  0.61481979  0.00525171  0.50062757  1
  O  O430  1  0.61798290  0.50202295  0.00602389  1
  O  O431  1  0.61766603  0.50236598  0.50144076  1
  O  O432  1  0.36922453  0.36759005  0.12509415  1
  O  O433  1  0.36894539  0.37718792  0.61745151  1
  O  O434  1  0.36853092  0.86978124  0.12039183  1
  O  O435  1  0.36279812  0.87452115  0.62047738  1
  O  O436  1  0.86802095  0.37339194  0.11780007  1
  O  O437  1  0.86882454  0.37100463  0.62058497  1
  O  O438  1  0.86890032  0.86842188  0.12091816  1
  O  O439  1  0.86766056  0.86795534  0.62303166  1
  O  O440  1  0.13127030  0.13073305  0.38180876  1
  O  O441  1  0.13372204  0.12353952  0.88100247  1
  O  O442  1  0.13337814  0.62397131  0.38155774  1
  O  O443  1  0.13160250  0.63405009  0.87476185  1
  O  O444  1  0.63017787  0.12973243  0.38002085  1
  O  O445  1  0.62883584  0.13093845  0.88058693  1
  O  O446  1  0.63297727  0.63127390  0.37235930  1
  O  O447  1  0.63505697  0.62998732  0.87326475  1
