# generated using pymatgen
data_V3Zn3O8
_symmetry_space_group_name_H-M   'P 1'
_cell_length_a   17.08925861
_cell_length_b   17.08835625
_cell_length_c   17.08807133
_cell_angle_alpha   89.99570590
_cell_angle_beta   89.99012871
_cell_angle_gamma   89.99692555
_symmetry_Int_Tables_number   1
_chemical_formula_structural   V3Zn3O8
_chemical_formula_sum   'V96 Zn96 O256'
_cell_volume   4990.18390980
_cell_formula_units_Z   32
loop_
 _symmetry_equiv_pos_site_id
 _symmetry_equiv_pos_as_xyz
  1  'x, y, z'
loop_
 _atom_site_type_symbol
 _atom_site_label
 _atom_site_symmetry_multiplicity
 _atom_site_fract_x
 _atom_site_fract_y
 _atom_site_fract_z
 _atom_site_occupancy
  V  V0  1  -0.00002138  -0.00063284  -0.00123902  1
  V  V1  1  0.50032422  0.25176848  0.25115712  1
  V  V2  1  0.12482484  0.24911778  0.37401442  1
  V  V3  1  0.62500538  0.62625109  0.50147986  1
  V  V4  1  0.87479464  0.87482085  0.49901052  1
  V  V5  1  0.87528870  0.12601650  0.74762143  1
  V  V6  1  0.37511041  0.75101841  0.12465533  1
  V  V7  1  0.62570300  0.50049014  0.12687767  1
  V  V8  1  0.62388038  0.12493053  -0.00010483  1
  V  V9  1  -0.00030076  0.62380809  0.12528852  1
  V  V10  1  0.37514459  0.87496367  0.00001588  1
  V  V11  1  0.74979100  0.12456008  0.37414563  1
  V  V12  1  0.12474592  0.00062132  0.62423691  1
  V  V13  1  0.00066215  0.49827303  -0.00035320  1
  V  V14  1  0.62430848  0.75145369  0.37508113  1
  V  V15  1  0.24985132  0.24990100  0.00000346  1
  V  V16  1  0.75060501  0.62446895  0.87471641  1
  V  V17  1  0.37515361  0.62497684  0.75004363  1
  V  V18  1  0.00087710  0.24895020  0.24921733  1
  V  V19  1  0.87374455  0.62290093  0.24997522  1
  V  V20  1  0.12592307  0.37473346  0.75089829  1
  V  V21  1  0.74919454  0.74982503  0.49971099  1
  V  V22  1  0.12404880  0.87506142  0.24955885  1
  V  V23  1  0.74990458  0.24983417  0.00054729  1
  V  V24  1  0.74901314  0.87549022  0.62471829  1
  V  V25  1  -0.00100300  0.74923703  0.74972569  1
  V  V26  1  0.87454468  0.12409310  0.24929362  1
  V  V27  1  0.24858258  0.49954475  0.75084015  1
  V  V28  1  0.50071135  0.37618398  0.87588891  1
  V  V29  1  0.50025728  0.25078092  0.74927895  1
  V  V30  1  0.49997268  0.50041308  0.00055026  1
  V  V31  1  0.24986944  0.75034593  0.00059654  1
  V  V32  1  0.87423240  0.24924171  0.12392973  1
  V  V33  1  0.49898685  0.00035356  0.49926975  1
  V  V34  1  0.12411443  0.62410558  0.50086259  1
  V  V35  1  -0.00016084  0.49764311  0.50007225  1
  V  V36  1  0.12596132  0.24970557  0.87531162  1
  V  V37  1  0.62505582  0.87514973  0.74968297  1
  V  V38  1  0.00114546  0.24938976  0.74914070  1
  V  V39  1  0.74978791  0.12608955  0.87437989  1
  V  V40  1  0.24885376  0.75012255  0.50020440  1
  V  V41  1  0.24994288  0.87503877  0.62515384  1
  V  V42  1  0.75136174  0.25020548  0.49943713  1
  V  V43  1  0.49972028  0.12512683  0.12413015  1
  V  V44  1  0.87531353  0.74971844  0.62493471  1
  V  V45  1  0.37513291  0.49987190  0.37682203  1
  V  V46  1  0.24852427  0.62462861  0.37559524  1
  V  V47  1  0.37464459  0.00066812  0.37493502  1
  V  V48  1  0.25112250  0.00067043  0.75025335  1
  V  V49  1  0.37544463  0.00022376  0.87416621  1
  V  V50  1  0.37603303  0.37616186  0.00030333  1
  V  V51  1  0.62489991  0.12537683  0.49946173  1
  V  V52  1  0.37537512  0.25057716  0.12566505  1
  V  V53  1  0.12456605  0.37370745  0.25001983  1
  V  V54  1  0.49941813  0.75194087  0.25082449  1
  V  V55  1  0.62596693  0.50103724  0.62511381  1
  V  V56  1  0.62533471  0.00008059  0.62490522  1
  V  V57  1  0.49969553  0.50040826  0.50106724  1
  V  V58  1  -0.00107374  0.87394104  0.37529499  1
  V  V59  1  0.75315348  0.37461727  0.62415232  1
  V  V60  1  0.25004250  0.50085024  0.25088674  1
  V  V61  1  0.62518728  0.62554346  0.00007445  1
  V  V62  1  0.75077407  0.75001668  0.00018937  1
  V  V63  1  0.12509707  0.50033549  0.12509368  1
  V  V64  1  0.74910469  -0.00089590  0.24871634  1
  V  V65  1  0.37613888  0.12558702  0.74961410  1
  V  V66  1  0.62422735  0.25126115  0.37341621  1
  V  V67  1  0.50048670  0.62664234  0.12488735  1
  V  V68  1  0.50035778  0.00105012  -0.00011225  1
  V  V69  1  0.74972008  0.87537346  0.12484590  1
  V  V70  1  0.87426615  0.49795222  0.37500477  1
  V  V71  1  0.12580124  0.12495332  -0.00043893  1
  V  V72  1  0.74873268  0.37551565  0.12691462  1
  V  V73  1  0.12528097  0.87499216  0.75043709  1
  V  V74  1  0.37431362  0.74942640  0.62565054  1
  V  V75  1  0.50048021  0.12694594  0.62508247  1
  V  V76  1  0.87482384  -0.00154653  0.37511519  1
  V  V77  1  0.87473210  0.74795594  0.12442337  1
  V  V78  1  0.12502245  -0.00158871  0.12528576  1
  V  V79  1  0.12333434  0.75033844  0.37489924  1
  V  V80  1  0.25070710  0.37576620  0.12517219  1
  V  V81  1  0.50131276  0.87465396  0.87435001  1
  V  V82  1  0.37458718  0.87567360  0.49956644  1
  V  V83  1  0.25015777  0.12458890  0.37381658  1
  V  V84  1  0.12453298  0.12369157  0.50027547  1
  V  V85  1  0.24907133  0.62549979  0.87568493  1
  V  V86  1  0.62545893  0.75067785  0.87432376  1
  V  V87  1  -0.00049856  0.12417948  0.12414417  1
  V  V88  1  0.37430789  0.12486085  0.25000400  1
  V  V89  1  0.12483813  0.75049677  0.87553169  1
  V  V90  1  0.12498005  0.49906582  0.62576894  1
  V  V91  1  0.25199295  0.25244160  0.50200014  1
  V  V92  1  0.87569030  -0.00134600  0.87513220  1
  V  V93  1  0.87469703  0.49966457  0.87438995  1
  V  V94  1  0.62532290  0.25083110  0.87519730  1
  V  V95  1  0.62626474  0.37637365  0.75030468  1
  Zn  Zn96  1  0.75007250  0.00073509  0.74910203  1
  Zn  Zn97  1  0.49885431  0.87648215  0.37478708  1
  Zn  Zn98  1  0.87632813  0.87336521  -0.00117371  1
  Zn  Zn99  1  0.37366894  0.62686671  0.25026533  1
  Zn  Zn100  1  -0.00084373  0.37192326  0.37448765  1
  Zn  Zn101  1  -0.00014797  0.00057474  0.50105018  1
  Zn  Zn102  1  0.50048272  0.74906791  0.74916713  1
  Zn  Zn103  1  0.87708714  0.37150587  0.49871564  1
  Zn  Zn104  1  0.25102606  0.12480700  0.87474670  1
  Zn  Zn105  1  0.37656144  0.37471964  0.50353758  1
  Zn  Zn106  1  0.50110313  0.62631034  0.62755766  1
  Zn  Zn107  1  0.87398012  0.62450066  0.74787293  1
  Zn  Zn108  1  0.25042157  -0.00113589  0.24825829  1
  Zn  Zn109  1  0.37446355  0.50032800  0.87566215  1
  Zn  Zn110  1  -0.00015249  0.87392071  0.87672266  1
  Zn  Zn111  1  0.12599461  0.62628199  0.00125841  1
  Zn  Zn112  1  0.74961444  0.62392564  0.37478421  1
  Zn  Zn113  1  0.37632408  0.25300797  0.62532007  1
  Zn  Zn114  1  0.62257402  0.37814548  0.25254613  1
  Zn  Zn115  1  0.50169280  0.37603589  0.37460550  1
  Zn  Zn116  1  -0.00041790  0.74889193  0.24932399  1
  Zn  Zn117  1  0.74709371  0.49888367  0.25272046  1
  Zn  Zn118  1  0.87509918  0.37297448  -0.00080878  1
  Zn  Zn119  1  0.00003135  0.12314630  0.62266110  1
  Zn  Zn120  1  -0.00204242  0.62385654  0.62561786  1
  Zn  Zn121  1  0.87798736  0.24940070  0.62156228  1
  Zn  Zn122  1  0.25317206  0.37481220  0.62680716  1
  Zn  Zn123  1  -0.00107482  0.37439425  0.87578365  1
  Zn  Zn124  1  0.62414761  0.87765662  0.25056144  1
  Zn  Zn125  1  0.75161477  0.50151293  0.74928703  1
  Zn  Zn126  1  0.24945917  0.87550555  0.12580898  1
  Zn  Zn127  1  0.62449328  -0.00017531  0.12574389  1
  Zn  Zn128  1  0.18785136  0.18594439  0.18655565  1
  Zn  Zn129  1  0.18840073  0.18572406  0.68637325  1
  Zn  Zn130  1  0.18735355  0.68818618  0.18793561  1
  Zn  Zn131  1  0.18635111  0.68590224  0.68719262  1
  Zn  Zn132  1  0.68539977  0.18741731  0.18787980  1
  Zn  Zn133  1  0.68791280  0.18927965  0.68685242  1
  Zn  Zn134  1  0.68794352  0.68739609  0.18872241  1
  Zn  Zn135  1  0.68911944  0.68734935  0.68907578  1
  Zn  Zn136  1  0.31288100  0.31398639  0.31419793  1
  Zn  Zn137  1  0.31342320  0.31255941  0.81369515  1
  Zn  Zn138  1  0.31057697  0.81449979  0.31254273  1
  Zn  Zn139  1  0.31240312  0.81222757  0.81342738  1
  Zn  Zn140  1  0.81239216  0.31182874  0.31142541  1
  Zn  Zn141  1  0.81345293  0.31385095  0.81205930  1
  Zn  Zn142  1  0.81203655  0.81110751  0.31101229  1
  Zn  Zn143  1  0.81134425  0.81315624  0.81087373  1
  Zn  Zn144  1  0.18628293  0.43538159  0.43674756  1
  Zn  Zn145  1  0.18735257  0.43695029  0.93592647  1
  Zn  Zn146  1  0.18748762  0.93814585  0.43630822  1
  Zn  Zn147  1  0.18842163  0.93650372  0.93710225  1
  Zn  Zn148  1  0.68762151  0.43681510  0.43831287  1
  Zn  Zn149  1  0.68809226  0.43805735  0.93999927  1
  Zn  Zn150  1  0.68707191  0.93680495  0.43733280  1
  Zn  Zn151  1  0.68847522  0.93831414  0.93756187  1
  Zn  Zn152  1  0.31128640  0.06160102  0.06284081  1
  Zn  Zn153  1  0.31236228  0.06471987  0.56324351  1
  Zn  Zn154  1  0.31397680  0.56471030  0.06282168  1
  Zn  Zn155  1  0.31076916  0.56236244  0.56454848  1
  Zn  Zn156  1  0.81203040  0.06201903  0.06106067  1
  Zn  Zn157  1  0.81181037  0.06149273  0.56153068  1
  Zn  Zn158  1  0.81251820  0.56080891  0.06128828  1
  Zn  Zn159  1  0.81272781  0.56393990  0.56178022  1
  Zn  Zn160  1  0.43794290  0.43842248  0.18932867  1
  Zn  Zn161  1  0.43640193  0.43738730  0.68649455  1
  Zn  Zn162  1  0.43675801  0.93779463  0.18699608  1
  Zn  Zn163  1  0.43876384  0.93756517  0.68712400  1
  Zn  Zn164  1  0.93692963  0.43529070  0.18706444  1
  Zn  Zn165  1  0.93862641  0.43612927  0.68845722  1
  Zn  Zn166  1  0.93756606  0.93619959  0.18761706  1
  Zn  Zn167  1  0.93884723  0.93647975  0.68649521  1
  Zn  Zn168  1  0.06224691  0.06067321  0.31304988  1
  Zn  Zn169  1  0.06312296  0.06327547  0.81269004  1
  Zn  Zn170  1  0.06114609  0.56127223  0.31300620  1
  Zn  Zn171  1  0.06270548  0.56462069  0.81345611  1
  Zn  Zn172  1  0.56209634  0.06337142  0.31108967  1
  Zn  Zn173  1  0.56238994  0.06189649  0.81162724  1
  Zn  Zn174  1  0.56185537  0.56544055  0.31261983  1
  Zn  Zn175  1  0.56278033  0.56176545  0.81272057  1
  Zn  Zn176  1  0.43733458  0.18757380  0.43637623  1
  Zn  Zn177  1  0.43704262  0.18854060  0.93626738  1
  Zn  Zn178  1  0.43707735  0.68608507  0.43864455  1
  Zn  Zn179  1  0.43750540  0.68853220  0.93635061  1
  Zn  Zn180  1  0.93825097  0.18568931  0.43710743  1
  Zn  Zn181  1  0.93802414  0.18644193  0.93639600  1
  Zn  Zn182  1  0.93783281  0.68611064  0.43731890  1
  Zn  Zn183  1  0.93753862  0.68539330  0.93741380  1
  Zn  Zn184  1  0.06283692  0.31283574  0.06279407  1
  Zn  Zn185  1  0.06539571  0.31280230  0.56400910  1
  Zn  Zn186  1  0.06074691  0.81277778  0.06231224  1
  Zn  Zn187  1  0.06122397  0.81394121  0.56297011  1
  Zn  Zn188  1  0.56310109  0.31290710  0.06382142  1
  Zn  Zn189  1  0.56491309  0.31423319  0.56193967  1
  Zn  Zn190  1  0.56349142  0.81360130  0.06186817  1
  Zn  Zn191  1  0.55939532  0.81285719  0.56405107  1
  O  O192  1  0.11841011  0.11967497  0.11940165  1
  O  O193  1  0.12486375  0.11728143  0.61855312  1
  O  O194  1  0.11822996  0.61740074  0.12481635  1
  O  O195  1  0.12237715  0.61758349  0.61799394  1
  O  O196  1  0.61789136  0.12426975  0.11735044  1
  O  O197  1  0.62076943  0.12028739  0.61920556  1
  O  O198  1  0.62048258  0.62130900  0.11909659  1
  O  O199  1  0.62465621  0.61910862  0.61936119  1
  O  O200  1  0.37573222  0.38965841  0.37912593  1
  O  O201  1  0.38296791  0.37670542  0.88249994  1
  O  O202  1  0.37523947  0.88178723  0.38247902  1
  O  O203  1  0.38141480  0.88027303  0.87989743  1
  O  O204  1  0.87725686  0.38537807  0.37519606  1
  O  O205  1  0.87664231  0.38569338  0.87839252  1
  O  O206  1  0.87834270  0.87858686  0.37931302  1
  O  O207  1  0.87459111  0.88829395  0.87475821  1
  O  O208  1  0.25688295  0.00759877  0.37378047  1
  O  O209  1  0.25771999  0.00084219  0.86805606  1
  O  O210  1  0.25618882  0.50488948  0.37161870  1
  O  O211  1  0.25128226  0.50700483  0.86911580  1
  O  O212  1  0.75477996  0.00474239  0.36928498  1
  O  O213  1  0.75936234  0.00743478  0.87351817  1
  O  O214  1  0.76132284  0.50204414  0.37471861  1
  O  O215  1  0.75940441  0.50473953  0.87680298  1
  O  O216  1  0.24568912  0.49545383  0.13042919  1
  O  O217  1  0.24180236  0.49874203  0.63244718  1
  O  O218  1  0.24106957  0.99730521  0.12680146  1
  O  O219  1  0.24559549  0.99397995  0.63065689  1
  O  O220  1  0.74489913  0.49045641  0.12447700  1
  O  O221  1  0.74538582  0.49041219  0.62424548  1
  O  O222  1  0.75072335  0.99100467  0.12918248  1
  O  O223  1  0.74279394  0.99345893  0.62556316  1
  O  O224  1  0.00697642  0.36661110  0.24888706  1
  O  O225  1  0.00573031  0.36440663  0.75207780  1
  O  O226  1  0.00571678  0.87190266  0.25667311  1
  O  O227  1  0.00608720  0.86425311  0.75149783  1
  O  O228  1  0.50154460  0.36724809  0.25273458  1
  O  O229  1  0.50662448  0.37091975  0.75576467  1
  O  O230  1  0.50240820  0.86342369  0.25090837  1
  O  O231  1  0.50658664  0.87374074  0.75670247  1
  O  O232  1  0.49346149  0.13136921  0.24382995  1
  O  O233  1  0.49662076  0.13111556  0.74461819  1
  O  O234  1  0.49839652  0.63727965  0.24429160  1
  O  O235  1  0.48773870  0.62578380  0.75007833  1
  O  O236  1  0.99428968  0.12920632  0.24349526  1
  O  O237  1  0.99186714  0.13340713  0.74974763  1
  O  O238  1  0.98911923  0.62392766  0.24423392  1
  O  O239  1  0.99909697  0.63837936  0.74819822  1
  O  O240  1  0.37052711  0.25615376  0.00615759  1
  O  O241  1  0.36417615  0.25122131  0.49945335  1
  O  O242  1  0.37081739  0.75592140  0.00457527  1
  O  O243  1  0.36813630  0.75454822  0.50481322  1
  O  O244  1  0.86858618  0.24959642  0.00564551  1
  O  O245  1  0.86831673  0.25127879  0.50172268  1
  O  O246  1  0.86812557  0.74947187  0.00604137  1
  O  O247  1  0.86922212  0.75488588  0.50411732  1
  O  O248  1  0.13237152  0.24448861  0.49417767  1
  O  O249  1  0.12985965  0.24517370  0.99603812  1
  O  O250  1  0.12967093  0.74496672  0.49540069  1
  O  O251  1  0.13071931  0.74894911  0.99379421  1
  O  O252  1  0.63073525  0.24409917  0.49385415  1
  O  O253  1  0.62961711  0.24461109  0.99419143  1
  O  O254  1  0.62785766  0.74653867  0.49321962  1
  O  O255  1  0.63094559  0.74454358  0.99437280  1
  O  O256  1  0.49389359  0.24486359  0.12965867  1
  O  O257  1  0.50222947  0.24440151  0.63116584  1
  O  O258  1  0.49675417  0.74631054  0.13189088  1
  O  O259  1  0.49036336  0.74645211  0.62791944  1
  O  O260  1  0.99459603  0.24353187  0.12904745  1
  O  O261  1  0.99947537  0.24745751  0.63762899  1
  O  O262  1  0.99241459  0.74165792  0.12562179  1
  O  O263  1  0.99454742  0.74976901  0.63377498  1
  O  O264  1  0.00652040  0.24966838  0.36689211  1
  O  O265  1  0.00573669  0.25023069  0.86527127  1
  O  O266  1  0.00607986  0.75548341  0.37410149  1
  O  O267  1  0.00454659  0.75064266  0.86650428  1
  O  O268  1  0.50594416  0.25123842  0.36953690  1
  O  O269  1  0.50666711  0.25648327  0.86997159  1
  O  O270  1  0.50663339  0.75017155  0.36788324  1
  O  O271  1  0.50796350  0.75715514  0.87435787  1
  O  O272  1  0.24522780  0.13362162  0.49390805  1
  O  O273  1  0.24373074  0.13241007  0.99935139  1
  O  O274  1  0.24344050  0.63045013  0.49518077  1
  O  O275  1  0.24944798  0.63188816  0.99373176  1
  O  O276  1  0.74430599  0.12981394  0.49386249  1
  O  O277  1  0.74407539  0.13083527  0.99437722  1
  O  O278  1  0.74296135  0.63265861  0.49775421  1
  O  O279  1  0.74401210  0.63022367  0.99557245  1
  O  O280  1  0.25547242  0.37034665  0.00612699  1
  O  O281  1  0.24943114  0.36266704  0.50040604  1
  O  O282  1  0.25783215  0.86808697  0.00101461  1
  O  O283  1  0.25478847  0.86927016  0.50562421  1
  O  O284  1  0.74984051  0.36822142  0.01122416  1
  O  O285  1  0.75095773  0.36921548  0.50979116  1
  O  O286  1  0.75220571  0.86939588  0.00876099  1
  O  O287  1  0.75492644  0.86889436  0.50515603  1
  O  O288  1  0.13017220  0.49407257  0.24521346  1
  O  O289  1  0.12824789  0.49522583  0.74616838  1
  O  O290  1  0.12490228  0.99281920  0.24369559  1
  O  O291  1  0.13098873  0.99496436  0.74552392  1
  O  O292  1  0.62712660  0.50023417  0.24326149  1
  O  O293  1  0.62739774  0.49347116  0.74376164  1
  O  O294  1  0.63246266  0.99778906  0.24715902  1
  O  O295  1  0.62710125  0.99431100  0.74305235  1
  O  O296  1  0.37454285  0.00700709  0.25623690  1
  O  O297  1  0.37102883  0.00506686  0.75459726  1
  O  O298  1  0.36956022  0.50288015  0.25985652  1
  O  O299  1  0.36880421  0.51014780  0.75137599  1
  O  O300  1  0.86923349  0.00536454  0.25511130  1
  O  O301  1  0.87554742  0.00935042  0.75782146  1
  O  O302  1  0.87546265  0.50660588  0.25811505  1
  O  O303  1  0.87594387  0.50187697  0.76219449  1
  O  O304  1  0.12334187  0.36738870  0.36662917  1
  O  O305  1  0.12195767  0.36765539  0.86872832  1
  O  O306  1  0.11909800  0.86972743  0.37012143  1
  O  O307  1  0.12359295  0.86872813  0.86723450  1
  O  O308  1  0.62433856  0.36709218  0.37257737  1
  O  O309  1  0.62108665  0.37013203  0.87107693  1
  O  O310  1  0.62194840  0.86276901  0.37413811  1
  O  O311  1  0.62145597  0.87040872  0.87012945  1
  O  O312  1  0.37997646  0.13140138  0.12953466  1
  O  O313  1  0.38336566  0.12712924  0.63172775  1
  O  O314  1  0.38316031  0.63297573  0.12697927  1
  O  O315  1  0.37291946  0.63059168  0.63573866  1
  O  O316  1  0.87951883  0.12948598  0.12980486  1
  O  O317  1  0.87549716  0.12568265  0.63688228  1
  O  O318  1  0.87896360  0.62688916  0.13234670  1
  O  O319  1  0.87737548  0.63350511  0.62723320  1
  O  O320  1  0.25563161  0.25621309  0.12005471  1
  O  O321  1  0.25120569  0.25002655  0.61284289  1
  O  O322  1  0.25722616  0.75069072  0.11880268  1
  O  O323  1  0.25372471  0.75568181  0.61939056  1
  O  O324  1  0.75410758  0.25606643  0.12035334  1
  O  O325  1  0.75036783  0.25963876  0.61870438  1
  O  O326  1  0.75443990  0.75640081  0.12020365  1
  O  O327  1  0.75479216  0.75633880  0.61906567  1
  O  O328  1  0.24488108  0.24463053  0.38182070  1
  O  O329  1  0.24418240  0.24831146  0.88276260  1
  O  O330  1  0.24383226  0.74449935  0.38133276  1
  O  O331  1  0.24443390  0.74531220  0.88048328  1
  O  O332  1  0.74547396  0.24337688  0.37892225  1
  O  O333  1  0.74494466  0.24604977  0.88044826  1
  O  O334  1  0.74013196  0.74907768  0.38022680  1
  O  O335  1  0.74545489  0.74539293  0.88083782  1
  O  O336  1  0.00580871  0.11978325  0.00534437  1
  O  O337  1  0.00844615  0.12221665  0.50214593  1
  O  O338  1  0.00137962  0.61315632  0.00618635  1
  O  O339  1  0.00560217  0.61328317  0.50021845  1
  O  O340  1  0.50425721  0.12103595  0.00446746  1
  O  O341  1  0.50582401  0.12031916  0.50514394  1
  O  O342  1  0.50587901  0.62099342  0.00494224  1
  O  O343  1  0.50531189  0.61521328  0.50251858  1
  O  O344  1  0.50085411  0.38925894  0.49760878  1
  O  O345  1  0.49577040  0.38034200  0.99606354  1
  O  O346  1  0.49201928  0.88263189  0.49939804  1
  O  O347  1  0.49561408  0.88087231  0.99415003  1
  O  O348  1  0.99964787  0.38567775  0.49815461  1
  O  O349  1  0.99800738  0.38660877  0.99951926  1
  O  O350  1  0.99223649  0.87608522  0.49308249  1
  O  O351  1  0.99531575  0.88313858  0.99673964  1
  O  O352  1  0.49159146  0.50278323  0.38342826  1
  O  O353  1  0.49955845  0.49367830  0.88317927  1
  O  O354  1  0.49339912  0.99989592  0.38143774  1
  O  O355  1  0.49511174  0.99450315  0.88036386  1
  O  O356  1  0.99203445  0.49740607  0.38327956  1
  O  O357  1  0.99287761  0.50064222  0.88366031  1
  O  O358  1  0.99164451  0.99268477  0.37628917  1
  O  O359  1  0.99044058  1.00040012  0.87937707  1
  O  O360  1  0.00363333  0.00581588  0.11896763  1
  O  O361  1  0.00909511  0.00113012  0.62277891  1
  O  O362  1  0.00415625  0.50323749  0.11765026  1
  O  O363  1  0.00462773  0.50040167  0.61584186  1
  O  O364  1  0.50076300  0.00702826  0.11774974  1
  O  O365  1  0.50597676  0.00650311  0.61892722  1
  O  O366  1  0.50512570  0.50671206  0.12037836  1
  O  O367  1  0.50645258  0.50220680  0.61624423  1
  O  O368  1  0.24504842  0.38065699  0.24439405  1
  O  O369  1  0.24345067  0.38133143  0.75114103  1
  O  O370  1  0.23952440  0.87732783  0.24789612  1
  O  O371  1  0.24567373  0.88031638  0.74422861  1
  O  O372  1  0.74802399  0.37524437  0.23687970  1
  O  O373  1  0.74471656  0.37541395  0.74041539  1
  O  O374  1  0.74954249  0.87950579  0.24025348  1
  O  O375  1  0.74305195  0.87732840  0.74240790  1
  O  O376  1  0.25683655  0.12450143  0.25587169  1
  O  O377  1  0.25768148  0.11818351  0.75130712  1
  O  O378  1  0.25092574  0.61847181  0.25771287  1
  O  O379  1  0.25656910  0.62023289  0.75544400  1
  O  O380  1  0.75554839  0.11975892  0.25427603  1
  O  O381  1  0.75952717  0.12614566  0.75567406  1
  O  O382  1  0.76234875  0.62157477  0.25089139  1
  O  O383  1  0.75325564  0.62191209  0.75920023  1
  O  O384  1  0.36976923  0.12005223  0.36904062  1
  O  O385  1  0.37539911  0.11799779  0.86802964  1
  O  O386  1  0.36769590  0.61506546  0.37557768  1
  O  O387  1  0.36868614  0.62516584  0.86551765  1
  O  O388  1  0.86877716  0.11877477  0.36849652  1
  O  O389  1  0.87035612  0.11806930  0.86661490  1
  O  O390  1  0.87527568  0.61571778  0.36650732  1
  O  O391  1  0.86900904  0.61469699  0.87506400  1
  O  O392  1  0.13167962  0.38021395  0.13038479  1
  O  O393  1  0.12794081  0.38174920  0.63354951  1
  O  O394  1  0.12375776  0.88050799  0.13240211  1
  O  O395  1  0.13162378  0.87973822  0.63043898  1
  O  O396  1  0.63361264  0.38081763  0.12620502  1
  O  O397  1  0.63448773  0.38061929  0.62989252  1
  O  O398  1  0.63823052  0.87571742  0.12602176  1
  O  O399  1  0.62936802  0.88028324  0.62911896  1
  O  O400  1  0.12042725  0.25363476  0.25363576  1
  O  O401  1  0.11865367  0.25281493  0.75483178  1
  O  O402  1  0.12226084  0.75616130  0.25704120  1
  O  O403  1  0.11809381  0.75521166  0.75400256  1
  O  O404  1  0.61771574  0.24969642  0.25650069  1
  O  O405  1  0.62019553  0.25607628  0.75619044  1
  O  O406  1  0.61707907  0.75004128  0.25839340  1
  O  O407  1  0.62386096  0.75684815  0.75680720  1
  O  O408  1  0.37934366  0.24542542  0.24496940  1
  O  O409  1  0.38313448  0.24386451  0.75027390  1
  O  O410  1  0.38392996  0.74997923  0.24588175  1
  O  O411  1  0.37351748  0.74028802  0.74503060  1
  O  O412  1  0.88043239  0.24288471  0.24393099  1
  O  O413  1  0.88360799  0.24122131  0.75136695  1
  O  O414  1  0.87581366  0.73820788  0.24465631  1
  O  O415  1  0.88413850  0.75105880  0.74473930  1
  O  O416  1  0.38251087  0.50194942  0.49359577  1
  O  O417  1  0.38207041  0.49395372  0.99990584  1
  O  O418  1  0.37950707  0.99602139  0.49531037  1
  O  O419  1  0.38088031  0.99543392  0.99426068  1
  O  O420  1  0.88353048  0.50001036  0.49132245  1
  O  O421  1  0.88422319  0.49843295  0.99219935  1
  O  O422  1  0.87452789  0.99272621  0.49250428  1
  O  O423  1  0.88076150  1.00234252  0.98880966  1
  O  O424  1  0.11953717  0.00497266  0.00414383  1
  O  O425  1  0.12577628  0.00600847  0.50612798  1
  O  O426  1  0.11636122  0.50052428  0.00583806  1
  O  O427  1  0.11755683  0.50361754  0.50363085  1
  O  O428  1  0.61828595  0.00751666  0.00004954  1
  O  O429  1  0.61967182  0.00596565  0.50439584  1
  O  O430  1  0.61929853  0.50649468  0.00651141  1
  O  O431  1  0.61785026  0.50620283  0.50375929  1
  O  O432  1  0.36984062  0.37038473  0.12015939  1
  O  O433  1  0.37089318  0.37097509  0.62114966  1
  O  O434  1  0.37471992  0.86849202  0.11737439  1
  O  O435  1  0.36865663  0.87032586  0.61992868  1
  O  O436  1  0.86527176  0.36819016  0.12336258  1
  O  O437  1  0.86390478  0.37346756  0.62407502  1
  O  O438  1  0.86471832  0.86829289  0.12427886  1
  O  O439  1  0.86885195  0.86999858  0.61914610  1
  O  O440  1  0.13048257  0.12993101  0.37932753  1
  O  O441  1  0.12715722  0.13134262  0.88212526  1
  O  O442  1  0.12913095  0.62940784  0.38085117  1
  O  O443  1  0.13198532  0.63278447  0.87672458  1
  O  O444  1  0.63092400  0.13028462  0.38049010  1
  O  O445  1  0.62985605  0.13127314  0.87923396  1
  O  O446  1  0.62597210  0.63649971  0.38109897  1
  O  O447  1  0.63042826  0.63021369  0.88092419  1
