# generated using pymatgen
data_V3Zn3O8
_symmetry_space_group_name_H-M   'P 1'
_cell_length_a   17.08874080
_cell_length_b   17.08863880
_cell_length_c   17.08815747
_cell_angle_alpha   90.00789276
_cell_angle_beta   89.99488039
_cell_angle_gamma   90.00258019
_symmetry_Int_Tables_number   1
_chemical_formula_structural   V3Zn3O8
_chemical_formula_sum   'V96 Zn96 O256'
_cell_volume   4990.14038874
_cell_formula_units_Z   32
loop_
 _symmetry_equiv_pos_site_id
 _symmetry_equiv_pos_as_xyz
  1  'x, y, z'
loop_
 _atom_site_type_symbol
 _atom_site_label
 _atom_site_symmetry_multiplicity
 _atom_site_fract_x
 _atom_site_fract_y
 _atom_site_fract_z
 _atom_site_occupancy
  V  V0  1  0.12507766  -0.00021205  0.62506955  1
  V  V1  1  0.49830324  0.87492130  0.87444838  1
  V  V2  1  0.62540427  0.74934358  0.37446509  1
  V  V3  1  0.12580514  0.37446220  0.25014327  1
  V  V4  1  0.12575575  0.50027578  0.62538505  1
  V  V5  1  0.74980902  0.12553949  0.37652358  1
  V  V6  1  0.12650068  0.24941932  0.37622999  1
  V  V7  1  0.62518636  0.37483746  0.75090475  1
  V  V8  1  0.87406470  0.87439114  0.50022294  1
  V  V9  1  0.87422729  0.50003606  0.87500161  1
  V  V10  1  0.12559653  0.37443312  0.75060003  1
  V  V11  1  0.37448157  0.62527031  0.74997907  1
  V  V12  1  0.75120456  0.49831671  0.25085834  1
  V  V13  1  0.62504839  0.50072313  0.12404924  1
  V  V14  1  0.87545231  0.37343886  0.00010122  1
  V  V15  1  0.24950341  0.24943300  0.00040658  1
  V  V16  1  0.37519025  0.87637118  0.49916491  1
  V  V17  1  0.62492514  0.12499246  0.00041307  1
  V  V18  1  0.37616336  0.50074112  0.37453989  1
  V  V19  1  0.74930777  0.00009522  0.25058035  1
  V  V20  1  0.75049565  0.25018011  0.50103648  1
  V  V21  1  0.87465929  0.12370731  0.75003729  1
  V  V22  1  0.37786537  0.37656079  0.49998418  1
  V  V23  1  0.37370013  0.75048965  0.12427013  1
  V  V24  1  0.12486828  0.87591228  0.24831221  1
  V  V25  1  0.37635962  0.50038419  0.87533889  1
  V  V26  1  0.12484224  0.24988461  0.87504257  1
  V  V27  1  0.00082989  0.37437866  0.87443393  1
  V  V28  1  0.49848395  0.75044222  0.24857051  1
  V  V29  1  0.25161708  0.37527888  0.62483639  1
  V  V30  1  0.12589769  0.62525768  0.49956894  1
  V  V31  1  0.62722829  0.37488048  0.25063801  1
  V  V32  1  0.25101621  0.50041532  0.74986159  1
  V  V33  1  -0.00146557  0.87420398  0.87481801  1
  V  V34  1  0.49904780  0.75079866  0.74923127  1
  V  V35  1  0.37630871  0.12761204  0.74940397  1
  V  V36  1  0.00021446  0.00035861  0.49983166  1
  V  V37  1  0.37685929  0.37544736  0.00045762  1
  V  V38  1  0.62377082  0.87498911  0.24942412  1
  V  V39  1  0.12421574  0.75039640  0.37395489  1
  V  V40  1  -0.00135917  0.74960176  0.24867460  1
  V  V41  1  0.00125266  0.49923583  0.49953819  1
  V  V42  1  0.49861500  0.12614561  0.12643852  1
  V  V43  1  0.49941335  0.87581190  0.37462386  1
  V  V44  1  0.75083799  0.50064759  0.75043729  1
  V  V45  1  -0.00049406  0.74931225  0.74882994  1
  V  V46  1  0.74875301  0.87449851  0.12486214  1
  V  V47  1  0.50112251  0.62486408  0.62323852  1
  V  V48  1  0.62426667  0.00047590  0.12476790  1
  V  V49  1  0.74924596  0.62473430  0.87530174  1
  V  V50  1  0.87508301  0.74966271  0.62425741  1
  V  V51  1  0.62393738  -0.00003257  0.62507950  1
  V  V52  1  0.62401951  0.87500577  0.74989627  1
  V  V53  1  -0.00007287  0.62521000  0.62481979  1
  V  V54  1  0.25002236  0.75107770  0.49907466  1
  V  V55  1  0.62343796  0.25048150  0.87408559  1
  V  V56  1  0.75140812  0.37511167  0.62516936  1
  V  V57  1  0.50039014  0.00245926  0.50060594  1
  V  V58  1  0.87569303  0.12513244  0.25030338  1
  V  V59  1  0.87393554  -0.00144851  0.87454677  1
  V  V60  1  0.12667774  0.12591800  0.50040692  1
  V  V61  1  0.62708177  0.25053644  0.37590495  1
  V  V62  1  0.37228764  0.87400750  0.00050980  1
  V  V63  1  0.12411059  0.49977979  0.12431418  1
  V  V64  1  0.74930973  -0.00068568  0.75023728  1
  V  V65  1  0.87481777  0.24965314  0.62620656  1
  V  V66  1  0.37499705  0.62636081  0.24816416  1
  V  V67  1  0.25013848  0.62600983  0.37374673  1
  V  V68  1  0.74766832  0.74918684  -0.00021904  1
  V  V69  1  0.12483098  0.87530921  0.74931742  1
  V  V70  1  0.37309805  0.00141159  0.87483793  1
  V  V71  1  -0.00008898  0.12557601  0.62560787  1
  V  V72  1  0.87650453  0.49933447  0.37481325  1
  V  V73  1  0.12472921  0.12420919  -0.00100203  1
  V  V74  1  0.25110679  0.25042057  0.50035739  1
  V  V75  1  0.12437269  0.74907905  0.87516219  1
  V  V76  1  0.25001670  0.00094802  0.25010076  1
  V  V77  1  0.74995743  0.87352804  0.62450093  1
  V  V78  1  0.37474917  0.75067376  0.62478214  1
  V  V79  1  0.87400599  0.87490202  -0.00101050  1
  V  V80  1  0.25022985  0.37439126  0.12505390  1
  V  V81  1  0.00073872  0.24854242  0.25110434  1
  V  V82  1  0.00045726  0.12270298  0.12409339  1
  V  V83  1  0.62443892  0.74933400  0.87546080  1
  V  V84  1  -0.00063149  0.87481769  0.37458862  1
  V  V85  1  0.87422734  0.74906412  0.12581576  1
  V  V86  1  0.49967276  0.25101011  0.25148186  1
  V  V87  1  0.62523494  0.50145551  0.62417719  1
  V  V88  1  0.25000462  0.50020567  0.24965985  1
  V  V89  1  0.75138982  0.24967769  0.00182072  1
  V  V90  1  0.75024742  0.62515301  0.37543577  1
  V  V91  1  0.00112577  0.37530945  0.37574090  1
  V  V92  1  0.24884057  0.87573101  0.62477129  1
  V  V93  1  0.12483075  0.62513655  -0.00098174  1
  V  V94  1  0.00013172  0.49859460  0.00017105  1
  V  V95  1  0.87452250  -0.00024021  0.37534176  1
  Zn  Zn96  1  0.49954281  0.62470730  0.12271560  1
  Zn  Zn97  1  0.62441419  0.12678717  0.50259217  1
  Zn  Zn98  1  0.00023297  0.24945072  0.75010869  1
  Zn  Zn99  1  0.24893868  0.00236815  0.74912731  1
  Zn  Zn100  1  0.37178555  0.12630006  0.25174211  1
  Zn  Zn101  1  0.00087965  -0.00153175  -0.00060908  1
  Zn  Zn102  1  0.50007476  0.25191196  0.74726353  1
  Zn  Zn103  1  0.37428458  0.25014505  0.12598401  1
  Zn  Zn104  1  0.87495260  0.25025385  0.12612070  1
  Zn  Zn105  1  0.25034488  0.62731551  0.87447225  1
  Zn  Zn106  1  0.62211422  0.62407512  0.00029934  1
  Zn  Zn107  1  0.74849029  0.74921096  0.50032053  1
  Zn  Zn108  1  0.50119834  0.37581410  0.87465235  1
  Zn  Zn109  1  0.25300731  0.12521016  0.37518841  1
  Zn  Zn110  1  -0.00247796  0.62374738  0.12642316  1
  Zn  Zn111  1  0.75309834  0.37493669  0.12636002  1
  Zn  Zn112  1  0.87717590  0.62353452  0.24826255  1
  Zn  Zn113  1  0.50314962  0.50207309  0.49718095  1
  Zn  Zn114  1  0.87677266  0.37458806  0.50155369  1
  Zn  Zn115  1  0.50181537  0.12879000  0.62581026  1
  Zn  Zn116  1  0.50233210  0.37754181  0.37602378  1
  Zn  Zn117  1  0.87509209  0.62473476  0.74962755  1
  Zn  Zn118  1  0.37892232  0.25045659  0.62573149  1
  Zn  Zn119  1  0.12610865  -0.00260634  0.12162275  1
  Zn  Zn120  1  0.37513859  0.00355888  0.37396543  1
  Zn  Zn121  1  0.24837325  0.74989262  -0.00001396  1
  Zn  Zn122  1  0.24852637  0.12530406  0.87460267  1
  Zn  Zn123  1  0.74975526  0.12276732  0.87495725  1
  Zn  Zn124  1  0.50170851  0.50165755  0.00070377  1
  Zn  Zn125  1  0.49881446  0.00110442  0.00101552  1
  Zn  Zn126  1  0.62391255  0.62526848  0.49964438  1
  Zn  Zn127  1  0.24664160  0.87462239  0.12406274  1
  Zn  Zn128  1  0.18672495  0.18615085  0.18596117  1
  Zn  Zn129  1  0.19091029  0.18838953  0.68794066  1
  Zn  Zn130  1  0.18743122  0.68888677  0.18478926  1
  Zn  Zn131  1  0.18796399  0.68787415  0.68784546  1
  Zn  Zn132  1  0.68687257  0.18715580  0.18813818  1
  Zn  Zn133  1  0.68794611  0.18572961  0.68733440  1
  Zn  Zn134  1  0.68760169  0.68525188  0.18901429  1
  Zn  Zn135  1  0.68778976  0.68682385  0.68834395  1
  Zn  Zn136  1  0.31367852  0.31265152  0.31448627  1
  Zn  Zn137  1  0.31141882  0.31194247  0.81420610  1
  Zn  Zn138  1  0.31243428  0.81548540  0.31159320  1
  Zn  Zn139  1  0.30925833  0.81222310  0.81279285  1
  Zn  Zn140  1  0.81449520  0.31292781  0.31403426  1
  Zn  Zn141  1  0.81197568  0.31159201  0.81277560  1
  Zn  Zn142  1  0.81224333  0.81176204  0.31166544  1
  Zn  Zn143  1  0.81204789  0.81102980  0.81119081  1
  Zn  Zn144  1  0.18927324  0.43722202  0.43728510  1
  Zn  Zn145  1  0.18931258  0.43743407  0.93696113  1
  Zn  Zn146  1  0.18760747  0.93882433  0.43532815  1
  Zn  Zn147  1  0.18673390  0.93845244  0.93625731  1
  Zn  Zn148  1  0.68816267  0.43694492  0.43935673  1
  Zn  Zn149  1  0.68930832  0.43590690  0.93871813  1
  Zn  Zn150  1  0.68633047  0.93677223  0.43799232  1
  Zn  Zn151  1  0.68645724  0.93727425  0.93765058  1
  Zn  Zn152  1  0.31099615  0.06203561  0.06448880  1
  Zn  Zn153  1  0.31335222  0.06368176  0.56407609  1
  Zn  Zn154  1  0.31077452  0.56303206  0.06279731  1
  Zn  Zn155  1  0.31374768  0.56280509  0.56214635  1
  Zn  Zn156  1  0.81311646  0.06238798  0.06213819  1
  Zn  Zn157  1  0.81151296  0.06244483  0.56334744  1
  Zn  Zn158  1  0.81078739  0.56314929  0.06247917  1
  Zn  Zn159  1  0.81358869  0.56187997  0.56098183  1
  Zn  Zn160  1  0.43935506  0.43764915  0.18770112  1
  Zn  Zn161  1  0.44125002  0.43760196  0.68765333  1
  Zn  Zn162  1  0.43494810  0.93851257  0.18714862  1
  Zn  Zn163  1  0.43637944  0.93942134  0.68703383  1
  Zn  Zn164  1  0.93690486  0.43567337  0.18706581  1
  Zn  Zn165  1  0.93771692  0.43723694  0.68857162  1
  Zn  Zn166  1  0.93661552  0.93684444  0.18721512  1
  Zn  Zn167  1  0.93721902  0.93713278  0.68750830  1
  Zn  Zn168  1  0.06522635  0.06222408  0.31292951  1
  Zn  Zn169  1  0.06070029  0.06172042  0.81285607  1
  Zn  Zn170  1  0.06221093  0.56334768  0.31146081  1
  Zn  Zn171  1  0.06153250  0.56212768  0.81255260  1
  Zn  Zn172  1  0.56343651  0.06410949  0.31421564  1
  Zn  Zn173  1  0.56034687  0.06344178  0.81309119  1
  Zn  Zn174  1  0.56227414  0.56310796  0.31060022  1
  Zn  Zn175  1  0.56227001  0.56321591  0.81081643  1
  Zn  Zn176  1  0.43602987  0.18730646  0.43525499  1
  Zn  Zn177  1  0.43788774  0.18799717  0.93781585  1
  Zn  Zn178  1  0.43832857  0.68795053  0.43692588  1
  Zn  Zn179  1  0.43940320  0.68589075  0.93935676  1
  Zn  Zn180  1  0.93733600  0.18800973  0.43890419  1
  Zn  Zn181  1  0.93792626  0.18614703  0.93575864  1
  Zn  Zn182  1  0.93625056  0.68671916  0.43740761  1
  Zn  Zn183  1  0.93657585  0.68686504  0.93811455  1
  Zn  Zn184  1  0.06236448  0.31020595  0.06291754  1
  Zn  Zn185  1  0.06306058  0.31202010  0.56371733  1
  Zn  Zn186  1  0.06025027  0.81171715  0.06281588  1
  Zn  Zn187  1  0.06176904  0.81259474  0.56182154  1
  Zn  Zn188  1  0.56394516  0.31449410  0.06384610  1
  Zn  Zn189  1  0.56290971  0.31245459  0.56438619  1
  Zn  Zn190  1  0.55941296  0.81256847  0.06181496  1
  Zn  Zn191  1  0.56317477  0.81213135  0.56033781  1
  O  O192  1  0.11422641  0.12409764  0.11839330  1
  O  O193  1  0.12012818  0.11994861  0.62023481  1
  O  O194  1  0.12332026  0.61866246  0.11509687  1
  O  O195  1  0.12047593  0.62012723  0.61882435  1
  O  O196  1  0.61726963  0.12012718  0.12105002  1
  O  O197  1  0.62316877  0.11496834  0.62320497  1
  O  O198  1  0.62481379  0.61280460  0.12539774  1
  O  O199  1  0.61896723  0.61973922  0.62496306  1
  O  O200  1  0.37550299  0.38217851  0.38455549  1
  O  O201  1  0.37490766  0.38350797  0.88374488  1
  O  O202  1  0.38220970  0.87657650  0.38218129  1
  O  O203  1  0.37839228  0.88166074  0.88044394  1
  O  O204  1  0.88396600  0.38116767  0.37764782  1
  O  O205  1  0.88055158  0.38010435  0.88018915  1
  O  O206  1  0.87963288  0.88074336  0.37965147  1
  O  O207  1  0.87887737  0.87829026  0.87929547  1
  O  O208  1  0.25088359  0.00188712  0.36417580  1
  O  O209  1  0.26255727  0.00134521  0.87234449  1
  O  O210  1  0.25479874  0.50661757  0.36877477  1
  O  O211  1  0.26095876  0.50091158  0.86846957  1
  O  O212  1  0.75483266  0.00461674  0.36986736  1
  O  O213  1  0.75543069  -0.00101513  0.86759495  1
  O  O214  1  0.75554558  0.50653843  0.37081753  1
  O  O215  1  0.75493039  0.50447186  0.87028560  1
  O  O216  1  0.24349486  0.49398356  0.13082431  1
  O  O217  1  0.24454282  0.49576659  0.62995948  1
  O  O218  1  0.24710503  0.99670919  0.13602783  1
  O  O219  1  0.24246233  0.99266318  0.62499419  1
  O  O220  1  0.74221948  0.49817018  0.13205309  1
  O  O221  1  0.74626205  0.49556716  0.63062663  1
  O  O222  1  0.74439467  0.99470907  0.13099531  1
  O  O223  1  0.74453729  0.99271579  0.63047594  1
  O  O224  1  0.00689270  0.36899947  0.25562612  1
  O  O225  1  0.00814557  0.37435003  0.75657904  1
  O  O226  1  0.00425819  0.87032905  0.25630462  1
  O  O227  1  0.00536835  0.86868769  0.75432354  1
  O  O228  1  0.50690173  0.36452031  0.25046176  1
  O  O229  1  0.50974506  0.37271167  0.75389574  1
  O  O230  1  0.50479996  0.87086402  0.25459490  1
  O  O231  1  0.50387454  0.86981946  0.75457915  1
  O  O232  1  0.50298352  0.13466531  0.24172813  1
  O  O233  1  0.48862053  0.12706918  0.74975185  1
  O  O234  1  0.49191356  0.63323085  0.24830739  1
  O  O235  1  0.49356156  0.63192072  0.74373366  1
  O  O236  1  0.99599906  0.12867593  0.24374883  1
  O  O237  1  0.99294797  0.12560810  0.74247553  1
  O  O238  1  0.99842465  0.63347537  0.24778924  1
  O  O239  1  0.99952886  0.63099363  0.74241258  1
  O  O240  1  0.36961814  0.26069741  0.00012162  1
  O  O241  1  0.37004580  0.26165855  0.49941434  1
  O  O242  1  0.37400181  0.75912536  0.00366650  1
  O  O243  1  0.36920846  0.75606104  0.50513648  1
  O  O244  1  0.86547968  0.25359762  -0.00155071  1
  O  O245  1  0.86890114  0.25106336  0.50782820  1
  O  O246  1  0.86757806  0.75580474  0.00488896  1
  O  O247  1  0.87406114  0.75728689  0.50610121  1
  O  O248  1  0.13104369  0.24572685  0.49595143  1
  O  O249  1  0.13002119  0.24492932  0.99440612  1
  O  O250  1  0.13015675  0.74506674  0.49397959  1
  O  O251  1  0.12282427  0.74007083  0.99441396  1
  O  O252  1  0.63247416  0.24954983  0.49383292  1
  O  O253  1  0.63270193  0.24676108  0.99377241  1
  O  O254  1  0.62788082  0.74793927  0.49028580  1
  O  O255  1  0.63048556  0.75133993  0.99301670  1
  O  O256  1  0.50249360  0.24223471  0.13441376  1
  O  O257  1  0.49693171  0.24655075  0.62883829  1
  O  O258  1  0.49212660  0.74982486  0.13216022  1
  O  O259  1  0.49391269  0.74656588  0.63028649  1
  O  O260  1  0.99952425  0.23884250  0.13203515  1
  O  O261  1  0.99388550  0.24326558  0.62652031  1
  O  O262  1  0.99150687  0.74876259  0.13131823  1
  O  O263  1  0.99550740  0.74475463  0.62899383  1
  O  O264  1  0.00649889  0.25498065  0.37089059  1
  O  O265  1  0.00671693  0.25727450  0.87346795  1
  O  O266  1  0.00490390  0.75561844  0.37035406  1
  O  O267  1  0.00419397  0.75488367  0.86865912  1
  O  O268  1  0.50759459  0.25085283  0.36517355  1
  O  O269  1  0.51438861  0.25189972  0.87572615  1
  O  O270  1  0.50484430  0.75618838  0.36827942  1
  O  O271  1  0.50404796  0.75535409  0.86809077  1
  O  O272  1  0.24370800  0.13222091  0.50067578  1
  O  O273  1  0.24357218  0.13190856  0.99984405  1
  O  O274  1  0.24546746  0.63146518  0.49423431  1
  O  O275  1  0.23549208  0.62429539  0.99757201  1
  O  O276  1  0.74913648  0.13103519  0.49371306  1
  O  O277  1  0.74421516  0.13345988  0.99893859  1
  O  O278  1  0.74895048  0.62600815  0.48637350  1
  O  O279  1  0.74646303  0.63227319  0.99275665  1
  O  O280  1  0.25767367  0.37051695  0.00536061  1
  O  O281  1  0.25824596  0.37140112  0.50492484  1
  O  O282  1  0.26201667  0.87431171  -0.00011057  1
  O  O283  1  0.25413986  0.86977753  0.50448594  1
  O  O284  1  0.75698566  0.36417833  0.00094414  1
  O  O285  1  0.75337832  0.36823284  0.50777346  1
  O  O286  1  0.75394651  0.86903932  0.00581250  1
  O  O287  1  0.75678712  0.87437838  0.50633149  1
  O  O288  1  0.13057261  0.49431793  0.24504070  1
  O  O289  1  0.13072289  0.49477944  0.74488219  1
  O  O290  1  0.13239310  0.99339702  0.24931932  1
  O  O291  1  0.12532130  0.99311995  0.74317627  1
  O  O292  1  0.63128475  0.49424700  0.24400340  1
  O  O293  1  0.63173802  0.49474370  0.74506981  1
  O  O294  1  0.63037492  0.99486304  0.24503110  1
  O  O295  1  0.62867072  0.99346657  0.74605580  1
  O  O296  1  0.36374158  0.00089651  0.25146330  1
  O  O297  1  0.37434522  0.00706015  0.75917454  1
  O  O298  1  0.36872393  0.50515142  0.25401920  1
  O  O299  1  0.37087994  0.50450259  0.75714446  1
  O  O300  1  0.86867551  0.00448767  0.25619320  1
  O  O301  1  0.86870408  0.00326619  0.75439007  1
  O  O302  1  0.86973579  0.49997000  0.25691161  1
  O  O303  1  0.86884755  0.50106194  0.75732014  1
  O  O304  1  0.12081097  0.37022344  0.36933274  1
  O  O305  1  0.12051705  0.37071351  0.87029725  1
  O  O306  1  0.11803108  0.86899345  0.37012866  1
  O  O307  1  0.11847458  0.86949245  0.86942781  1
  O  O308  1  0.62465758  0.36853040  0.36851899  1
  O  O309  1  0.62576909  0.36634680  0.87021202  1
  O  O310  1  0.61998701  0.86993263  0.36788106  1
  O  O311  1  0.61838099  0.86983251  0.86925409  1
  O  O312  1  0.38768468  0.12786749  0.12680938  1
  O  O313  1  0.37713780  0.12597827  0.63721000  1
  O  O314  1  0.37412266  0.63149297  0.13135048  1
  O  O315  1  0.37970904  0.63142107  0.63030236  1
  O  O316  1  0.88369561  0.12607198  0.13148165  1
  O  O317  1  0.88034817  0.12898623  0.63036480  1
  O  O318  1  0.87616680  0.63307493  0.12684791  1
  O  O319  1  0.88257292  0.63095320  0.62517836  1
  O  O320  1  0.25130639  0.25721060  0.11903585  1
  O  O321  1  0.25331713  0.25861041  0.61801512  1
  O  O322  1  0.25814607  0.75404426  0.12122881  1
  O  O323  1  0.25484088  0.75540943  0.61838565  1
  O  O324  1  0.75052180  0.25008143  0.11286509  1
  O  O325  1  0.75512045  0.25524919  0.62071404  1
  O  O326  1  0.75314381  0.75604466  0.12069765  1
  O  O327  1  0.75627636  0.75602386  0.62414382  1
  O  O328  1  0.24276874  0.25032418  0.38200161  1
  O  O329  1  0.24213022  0.24928519  0.88335195  1
  O  O330  1  0.24415598  0.74559994  0.37965639  1
  O  O331  1  0.24025302  0.74703703  0.87780923  1
  O  O332  1  0.74677366  0.24459358  0.38062040  1
  O  O333  1  0.74072091  0.24818573  0.88512807  1
  O  O334  1  0.74497006  0.74089518  0.37380080  1
  O  O335  1  0.74394230  0.74557011  0.87952011  1
  O  O336  1  0.00438064  0.12440403  0.00924957  1
  O  O337  1  0.00580923  0.11926916  0.50581174  1
  O  O338  1  0.01003596  0.61778233  0.00018685  1
  O  O339  1  0.00725254  0.61957304  0.50445443  1
  O  O340  1  0.50582968  0.12608399  0.01149543  1
  O  O341  1  0.50126274  0.11280587  0.50050467  1
  O  O342  1  0.50426537  0.61986467  0.00487409  1
  O  O343  1  0.50113809  0.62361215  0.50803339  1
  O  O344  1  0.48853293  0.37777008  0.49862285  1
  O  O345  1  0.48797192  0.37734932  0.99921561  1
  O  O346  1  0.49500184  0.88285068  0.49483286  1
  O  O347  1  0.48832108  0.87691479  0.99338981  1
  O  O348  1  1.00164129  0.38185273  0.49364319  1
  O  O349  1  0.99588594  0.37912925  0.99416028  1
  O  O350  1  0.99455776  0.88086096  0.49419648  1
  O  O351  1  0.99146416  0.87487099  0.99256224  1
  O  O352  1  0.49186113  0.49836201  0.37554862  1
  O  O353  1  0.48704946  0.49870721  0.87545733  1
  O  O354  1  0.50139779  0.99381992  0.38424195  1
  O  O355  1  0.48910531  0.99375338  0.87716326  1
  O  O356  1  0.99735943  0.49488273  0.37997326  1
  O  O357  1  0.99466203  0.49368404  0.88075876  1
  O  O358  1  0.99424479  0.99475710  0.38017222  1
  O  O359  1  0.99158847  0.99117191  0.87519534  1
  O  O360  1  0.00037985  0.01197953  0.12430210  1
  O  O361  1  0.00497065  0.00490035  0.61871583  1
  O  O362  1  0.00678356  0.49978427  0.11804873  1
  O  O363  1  0.00675755  0.50493229  0.62002721  1
  O  O364  1  0.50585215  0.01037026  0.12600655  1
  O  O365  1  0.50558832  -0.00147150  0.61484164  1
  O  O366  1  0.51271455  0.50102690  0.12610329  1
  O  O367  1  0.50756303  0.50794685  0.62457455  1
  O  O368  1  0.24505220  0.38038060  0.24533336  1
  O  O369  1  0.24561241  0.38120008  0.74460811  1
  O  O370  1  0.24265685  0.88339137  0.24975459  1
  O  O371  1  0.24249805  0.87615786  0.74203116  1
  O  O372  1  0.74495413  0.38020114  0.24963336  1
  O  O373  1  0.74502458  0.38113380  0.74510625  1
  O  O374  1  0.74373743  0.88074761  0.24452544  1
  O  O375  1  0.74351174  0.87937115  0.74412658  1
  O  O376  1  0.24919641  0.11513509  0.25069144  1
  O  O377  1  0.26108516  0.12257388  0.75371842  1
  O  O378  1  0.25407104  0.61986543  0.25492516  1
  O  O379  1  0.25667901  0.61826811  0.75008922  1
  O  O380  1  0.75529000  0.11954840  0.25560863  1
  O  O381  1  0.75676379  0.11626271  0.75141072  1
  O  O382  1  0.75225132  0.61819894  0.26149134  1
  O  O383  1  0.75234269  0.61835914  0.75704819  1
  O  O384  1  0.37113813  0.12148692  0.36974101  1
  O  O385  1  0.37525407  0.11621635  0.87009186  1
  O  O386  1  0.36823326  0.62176017  0.36855885  1
  O  O387  1  0.37329166  0.61667191  0.86917657  1
  O  O388  1  0.87049597  0.11866605  0.37003647  1
  O  O389  1  0.87340739  0.11696447  0.86824859  1
  O  O390  1  0.86672793  0.61862413  0.37318431  1
  O  O391  1  0.86815389  0.61777973  0.87423758  1
  O  O392  1  0.13011590  0.37987149  0.13041267  1
  O  O393  1  0.13116003  0.38142311  0.63017947  1
  O  O394  1  0.12497278  0.87656972  0.13246927  1
  O  O395  1  0.12885519  0.87986250  0.62901864  1
  O  O396  1  0.62873371  0.38356878  0.13209482  1
  O  O397  1  0.63249770  0.38107428  0.63135334  1
  O  O398  1  0.62897532  0.88047018  0.13006551  1
  O  O399  1  0.62969872  0.87923363  0.63111964  1
  O  O400  1  0.12033225  0.25542426  0.25590714  1
  O  O401  1  0.12500251  0.25720656  0.75627814  1
  O  O402  1  0.11971153  0.75533463  0.25559458  1
  O  O403  1  0.11880559  0.75534309  0.75401850  1
  O  O404  1  0.61903376  0.25475037  0.25522149  1
  O  O405  1  0.62887737  0.25518181  0.76080075  1
  O  O406  1  0.61914687  0.75644855  0.25409243  1
  O  O407  1  0.61866576  0.75630985  0.75532216  1
  O  O408  1  0.38746565  0.25103404  0.24787094  1
  O  O409  1  0.37656656  0.24034101  0.75238447  1
  O  O410  1  0.37886481  0.74626348  0.24466377  1
  O  O411  1  0.37939314  0.74587074  0.74443695  1
  O  O412  1  0.88260829  0.24257454  0.25031155  1
  O  O413  1  0.87547490  0.24245210  0.74419892  1
  O  O414  1  0.88101559  0.75020307  0.24338752  1
  O  O415  1  0.88215729  0.74875405  0.74241896  1
  O  O416  1  0.37400424  0.49145600  0.49354923  1
  O  O417  1  0.37240933  0.49178590  0.99206880  1
  O  O418  1  0.38467440  0.99401744  0.50038427  1
  O  O419  1  0.37588252  0.99254820  0.99203204  1
  O  O420  1  0.88414847  0.49802996  0.49341371  1
  O  O421  1  0.87980991  0.49384617  0.99456463  1
  O  O422  1  0.88066482  0.99479196  0.49473501  1
  O  O423  1  0.87448019  0.99206362  0.99305210  1
  O  O424  1  0.12145708  0.00745330  0.00095697  1
  O  O425  1  0.11897388  0.00489400  0.50507643  1
  O  O426  1  0.12024239  0.50574432  0.00361980  1
  O  O427  1  0.12190667  0.50600572  0.50536625  1
  O  O428  1  0.62257643  0.00585613  0.00664799  1
  O  O429  1  0.61527103  -0.00112216  0.50580262  1
  O  O430  1  0.62557971  0.49854104  0.01133304  1
  O  O431  1  0.62365274  0.50261734  0.50868867  1
  O  O432  1  0.36906660  0.37598157  0.11561605  1
  O  O433  1  0.36939358  0.37755498  0.61575754  1
  O  O434  1  0.37509839  0.87010996  0.11425965  1
  O  O435  1  0.36918102  0.86951518  0.61963686  1
  O  O436  1  0.87375376  0.36994883  0.11629868  1
  O  O437  1  0.86926668  0.36847651  0.62499753  1
  O  O438  1  0.86765831  0.87010343  0.11962469  1
  O  O439  1  0.87003919  0.86987445  0.61950571  1
  O  O440  1  0.12551100  0.13231553  0.38347404  1
  O  O441  1  0.12465354  0.13122515  0.88082001  1
  O  O442  1  0.13099774  0.63057137  0.38019078  1
  O  O443  1  0.12430204  0.62910537  0.88376905  1
  O  O444  1  0.63325787  0.13222857  0.37694319  1
  O  O445  1  0.62626471  0.13319675  0.88127252  1
  O  O446  1  0.63465700  0.63034133  0.37371035  1
  O  O447  1  0.63096757  0.63206912  0.87471443  1
