# generated using pymatgen
data_V3Zn3O8
_symmetry_space_group_name_H-M   'P 1'
_cell_length_a   17.08801063
_cell_length_b   17.08859912
_cell_length_c   17.08887563
_cell_angle_alpha   90.01543442
_cell_angle_beta   89.99958206
_cell_angle_gamma   90.00320519
_symmetry_Int_Tables_number   1
_chemical_formula_structural   V3Zn3O8
_chemical_formula_sum   'V96 Zn96 O256'
_cell_volume   4990.12517631
_cell_formula_units_Z   32
loop_
 _symmetry_equiv_pos_site_id
 _symmetry_equiv_pos_as_xyz
  1  'x, y, z'
loop_
 _atom_site_type_symbol
 _atom_site_label
 _atom_site_symmetry_multiplicity
 _atom_site_fract_x
 _atom_site_fract_y
 _atom_site_fract_z
 _atom_site_occupancy
  V  V0  1  0.62477873  0.25088185  0.87509670  1
  V  V1  1  0.24992081  0.37506934  0.12526805  1
  V  V2  1  0.24956590  0.87380493  0.62414093  1
  V  V3  1  0.62507542  0.49970141  0.62489038  1
  V  V4  1  0.37534305  0.37586614  0.00018824  1
  V  V5  1  0.87607608  0.00038155  0.87485982  1
  V  V6  1  0.37475667  0.49789636  0.37633574  1
  V  V7  1  0.12501144  0.50217128  0.12440285  1
  V  V8  1  0.87510036  0.87469525  -0.00016208  1
  V  V9  1  0.62339067  0.50217724  0.12504195  1
  V  V10  1  0.74918468  -0.00046660  0.24928345  1
  V  V11  1  0.50038293  0.75160444  0.74813690  1
  V  V12  1  0.12620209  0.62451311  0.00059853  1
  V  V13  1  0.62413139  0.74991208  0.37352392  1
  V  V14  1  0.37555698  0.74898244  0.62442036  1
  V  V15  1  0.24933408  -0.00090361  0.24966943  1
  V  V16  1  0.87419590  0.87438300  0.49940722  1
  V  V17  1  0.00025052  0.87496594  0.87434522  1
  V  V18  1  0.12534638  0.49790463  0.62596104  1
  V  V19  1  0.50075629  0.49996000  0.50149451  1
  V  V20  1  0.62523688  0.87529131  0.74933343  1
  V  V21  1  0.24957406  0.62310246  0.37589125  1
  V  V22  1  0.74944881  0.50063924  0.25051609  1
  V  V23  1  0.87596830  0.12567279  0.75116382  1
  V  V24  1  0.87444270  -0.00070707  0.37498094  1
  V  V25  1  0.62487514  0.24985829  0.37513904  1
  V  V26  1  0.87520545  0.12495230  0.24954980  1
  V  V27  1  0.25114015  0.00207814  0.75129274  1
  V  V28  1  0.37551055  0.62374757  0.74983341  1
  V  V29  1  0.87548799  0.62441142  0.74985048  1
  V  V30  1  0.62575583  0.00125790  0.62453198  1
  V  V31  1  0.49997807  0.12574647  0.62543861  1
  V  V32  1  0.62457376  0.37481369  0.75124451  1
  V  V33  1  0.12590065  0.25030642  0.87625642  1
  V  V34  1  0.24972089  0.12321701  0.37476684  1
  V  V35  1  0.87535121  0.62666518  0.24857564  1
  V  V36  1  0.74875970  0.62686059  0.87530331  1
  V  V37  1  0.75060849  0.25128475  0.00120885  1
  V  V38  1  0.87503809  0.49980971  0.87588129  1
  V  V39  1  0.37548511  0.24861610  0.62669349  1
  V  V40  1  0.37518053  0.87408871  0.49949084  1
  V  V41  1  0.62594704  0.00143190  0.12456476  1
  V  V42  1  0.75113116  0.37430109  0.62560629  1
  V  V43  1  0.49984058  0.12655741  0.12522849  1
  V  V44  1  0.12538620  0.37460924  0.75021758  1
  V  V45  1  0.75047116  0.87488020  0.62408127  1
  V  V46  1  0.87537402  0.74981289  0.12545326  1
  V  V47  1  0.49978674  -0.00045184  0.49990698  1
  V  V48  1  0.24911378  0.37333857  0.62523781  1
  V  V49  1  0.24863230  0.24823665  0.50092169  1
  V  V50  1  0.50006379  0.37443549  0.37467019  1
  V  V51  1  0.00099408  0.00010761  0.00029660  1
  V  V52  1  0.62416764  0.37538580  0.25090215  1
  V  V53  1  0.12467439  0.62285526  0.50026611  1
  V  V54  1  0.12567960  0.74910910  0.87464494  1
  V  V55  1  0.87481222  0.25022648  0.62453912  1
  V  V56  1  0.49958853  0.87482539  0.37292503  1
  V  V57  1  0.25010220  0.24953055  0.00099260  1
  V  V58  1  0.75029827  0.12525939  0.87655747  1
  V  V59  1  0.74928503  0.87637720  0.12440907  1
  V  V60  1  0.00003572  0.74855722  0.74899753  1
  V  V61  1  0.62571496  0.12569618  0.49937133  1
  V  V62  1  0.12489868  0.87404836  0.74927859  1
  V  V63  1  0.62502965  0.12623907  0.00101707  1
  V  V64  1  0.37574179  0.87771055  -0.00084520  1
  V  V65  1  0.00027321  0.25004934  0.75206886  1
  V  V66  1  0.74987777  0.50061141  0.75012891  1
  V  V67  1  0.87610832  0.37733403  0.00076743  1
  V  V68  1  0.75002216  0.75045795  0.49940483  1
  V  V69  1  0.87473459  0.49898194  0.37558099  1
  V  V70  1  -0.00038560  0.62369480  0.62555986  1
  V  V71  1  0.74941307  0.37597778  0.12546699  1
  V  V72  1  0.75111972  -0.00000090  0.75004221  1
  V  V73  1  0.74910874  0.62542004  0.37538714  1
  V  V74  1  0.74928542  0.75019658  -0.00172318  1
  V  V75  1  0.37498450  0.12601102  0.25078557  1
  V  V76  1  0.25132225  0.75144539  -0.00011684  1
  V  V77  1  -0.00007138  0.12613815  0.12606160  1
  V  V78  1  0.12305594  0.24966311  0.37400757  1
  V  V79  1  0.50068312  0.37518902  0.87573366  1
  V  V80  1  0.12382517  -0.00078471  0.62391259  1
  V  V81  1  0.50006249  0.50323958  0.00026367  1
  V  V82  1  0.12410337  0.12306760  0.49959437  1
  V  V83  1  -0.00178286  0.49777792  0.49889507  1
  V  V84  1  0.74932191  0.12487131  0.37520817  1
  V  V85  1  0.50012158  0.87821237  0.87419273  1
  V  V86  1  0.37717953  0.62607417  0.24804570  1
  V  V87  1  0.00061673  0.87250930  0.37352051  1
  V  V88  1  0.12347054  0.37448484  0.25119758  1
  V  V89  1  0.25108075  0.87584719  0.12468711  1
  V  V90  1  0.12405904  0.74915981  0.37437082  1
  V  V91  1  0.00023156  -0.00132751  0.49986883  1
  V  V92  1  0.24995868  0.74828378  0.50019651  1
  V  V93  1  0.25129678  0.62514008  0.87394273  1
  V  V94  1  0.24933965  0.49889417  0.25118344  1
  V  V95  1  0.12530837  -0.00108095  0.12505754  1
  Zn  Zn96  1  0.37736020  0.12429792  0.75314695  1
  Zn  Zn97  1  0.25102154  0.49856386  0.75087158  1
  Zn  Zn98  1  0.12625532  0.12475625  0.00004319  1
  Zn  Zn99  1  0.00155828  0.50227911  0.00034510  1
  Zn  Zn100  1  0.37361229  0.37388240  0.50003481  1
  Zn  Zn101  1  0.62295561  0.87533533  0.24721802  1
  Zn  Zn102  1  0.37476507  0.49947247  0.87373039  1
  Zn  Zn103  1  0.00237619  0.74968938  0.24747983  1
  Zn  Zn104  1  0.49881857  0.25153521  0.25075972  1
  Zn  Zn105  1  0.25277276  0.12433082  0.87655409  1
  Zn  Zn106  1  0.87429637  0.37354484  0.49730191  1
  Zn  Zn107  1  0.37519367  0.25136005  0.12588707  1
  Zn  Zn108  1  0.50201785  0.62540532  0.62504172  1
  Zn  Zn109  1  0.75052470  0.25111152  0.49967566  1
  Zn  Zn110  1  0.62529405  0.62517800  0.50209495  1
  Zn  Zn111  1  -0.00304632  0.37265476  0.37424422  1
  Zn  Zn112  1  0.62331516  0.62906535  -0.00028545  1
  Zn  Zn113  1  -0.00032177  0.12402473  0.62542991  1
  Zn  Zn114  1  0.37457105  0.00398473  0.87405898  1
  Zn  Zn115  1  0.00059446  0.62630547  0.12441508  1
  Zn  Zn116  1  0.62570473  0.75015887  0.87460900  1
  Zn  Zn117  1  0.12539063  0.87203043  0.24922100  1
  Zn  Zn118  1  0.87559495  0.25196842  0.12695118  1
  Zn  Zn119  1  0.87458016  0.74911421  0.62405508  1
  Zn  Zn120  1  0.49953552  0.24902464  0.75118368  1
  Zn  Zn121  1  0.00113441  0.37734356  0.87710574  1
  Zn  Zn122  1  0.37430728  -0.00053848  0.37623130  1
  Zn  Zn123  1  0.50025206  0.75072056  0.24684672  1
  Zn  Zn124  1  0.37780380  0.75163716  0.12582222  1
  Zn  Zn125  1  0.50147754  0.63046819  0.12351644  1
  Zn  Zn126  1  0.49930028  0.00243455  -0.00225427  1
  Zn  Zn127  1  -0.00232440  0.25217181  0.25101629  1
  Zn  Zn128  1  0.18566004  0.18746711  0.18782170  1
  Zn  Zn129  1  0.18646961  0.18596925  0.68705919  1
  Zn  Zn130  1  0.19031934  0.68894912  0.18687333  1
  Zn  Zn131  1  0.18769008  0.68559641  0.68699216  1
  Zn  Zn132  1  0.68813856  0.18986928  0.18905913  1
  Zn  Zn133  1  0.68790711  0.18805864  0.68883047  1
  Zn  Zn134  1  0.68750568  0.68773815  0.18616193  1
  Zn  Zn135  1  0.68675875  0.68720150  0.68669144  1
  Zn  Zn136  1  0.31082353  0.31133462  0.31390038  1
  Zn  Zn137  1  0.31300229  0.31340520  0.81295804  1
  Zn  Zn138  1  0.31147775  0.81106522  0.31268601  1
  Zn  Zn139  1  0.31380255  0.81299089  0.81235077  1
  Zn  Zn140  1  0.81253468  0.31142365  0.31181862  1
  Zn  Zn141  1  0.81205660  0.31337924  0.81341267  1
  Zn  Zn142  1  0.81212114  0.81274362  0.31058834  1
  Zn  Zn143  1  0.81384623  0.81130940  0.81154359  1
  Zn  Zn144  1  0.18571085  0.43461356  0.43838695  1
  Zn  Zn145  1  0.18979755  0.43903263  0.93664186  1
  Zn  Zn146  1  0.18701573  0.93611618  0.43568623  1
  Zn  Zn147  1  0.18654771  0.93743273  0.93741426  1
  Zn  Zn148  1  0.68880549  0.43577399  0.43915209  1
  Zn  Zn149  1  0.68744500  0.43981915  0.93796534  1
  Zn  Zn150  1  0.68649288  0.93753729  0.43717221  1
  Zn  Zn151  1  0.68636550  0.93851445  0.93840858  1
  Zn  Zn152  1  0.31296450  0.06283451  0.06323725  1
  Zn  Zn153  1  0.31273430  0.06181374  0.56336611  1
  Zn  Zn154  1  0.31237082  0.56227956  0.06303122  1
  Zn  Zn155  1  0.31310119  0.56050294  0.56427156  1
  Zn  Zn156  1  0.81422826  0.06250938  0.06252408  1
  Zn  Zn157  1  0.81305474  0.06355079  0.56184748  1
  Zn  Zn158  1  0.81062281  0.56411837  0.06276681  1
  Zn  Zn159  1  0.81241461  0.56267261  0.56175625  1
  Zn  Zn160  1  0.43698437  0.43914455  0.18664745  1
  Zn  Zn161  1  0.43785143  0.43539399  0.68697697  1
  Zn  Zn162  1  0.43685115  0.94087662  0.18704710  1
  Zn  Zn163  1  0.43672966  0.93769546  0.68577337  1
  Zn  Zn164  1  0.93964648  0.44079558  0.18719868  1
  Zn  Zn165  1  0.93913818  0.43575947  0.68879050  1
  Zn  Zn166  1  0.93816561  0.93665038  0.18872592  1
  Zn  Zn167  1  0.93722953  0.93627607  0.68628754  1
  Zn  Zn168  1  0.06273117  0.06019570  0.31157064  1
  Zn  Zn169  1  0.06423750  0.06443433  0.81245295  1
  Zn  Zn170  1  0.05944422  0.56243717  0.31130538  1
  Zn  Zn171  1  0.06218482  0.56055230  0.81425988  1
  Zn  Zn172  1  0.56258621  0.06197251  0.31150294  1
  Zn  Zn173  1  0.56298536  0.06388982  0.81112723  1
  Zn  Zn174  1  0.56179329  0.56199663  0.31406297  1
  Zn  Zn175  1  0.56284164  0.56344041  0.81358976  1
  Zn  Zn176  1  0.43746658  0.18803185  0.43854079  1
  Zn  Zn177  1  0.43576528  0.18825148  0.93658036  1
  Zn  Zn178  1  0.43739718  0.68563302  0.43625503  1
  Zn  Zn179  1  0.43784531  0.69094459  0.93489215  1
  Zn  Zn180  1  0.93860728  0.18602140  0.43768165  1
  Zn  Zn181  1  0.93846793  0.18950956  0.94002398  1
  Zn  Zn182  1  0.93705069  0.68622873  0.43664929  1
  Zn  Zn183  1  0.93828624  0.68646862  0.93824214  1
  Zn  Zn184  1  0.06247785  0.31411438  0.06452137  1
  Zn  Zn185  1  0.06006570  0.31205471  0.56177346  1
  Zn  Zn186  1  0.06305478  0.81148623  0.06294213  1
  Zn  Zn187  1  0.06157329  0.81077850  0.56127846  1
  Zn  Zn188  1  0.56249273  0.31342049  0.06317383  1
  Zn  Zn189  1  0.56286139  0.31300478  0.56195051  1
  Zn  Zn190  1  0.56247353  0.81185437  0.06209803  1
  Zn  Zn191  1  0.56291287  0.81268878  0.56137644  1
  O  O192  1  0.11522147  0.11827733  0.12420819  1
  O  O193  1  0.12267576  0.11747282  0.61752442  1
  O  O194  1  0.12842831  0.61959988  0.11804609  1
  O  O195  1  0.12008595  0.61829637  0.61964879  1
  O  O196  1  0.61830151  0.12209330  0.12110637  1
  O  O197  1  0.62097413  0.12023638  0.61985033  1
  O  O198  1  0.62230334  0.61721186  0.12230247  1
  O  O199  1  0.62196786  0.61623617  0.62272067  1
  O  O200  1  0.38055084  0.38021553  0.37684459  1
  O  O201  1  0.38210068  0.37654378  0.88162546  1
  O  O202  1  0.38409186  0.87440764  0.38123585  1
  O  O203  1  0.38328069  0.87749126  0.88145725  1
  O  O204  1  0.87536711  0.38295116  0.37629626  1
  O  O205  1  0.87355820  0.38073557  0.88540100  1
  O  O206  1  0.87904857  0.88053760  0.38032663  1
  O  O207  1  0.88104230  0.88103852  0.87937347  1
  O  O208  1  0.25187397  0.00564366  0.36883061  1
  O  O209  1  0.24854623  0.00002261  0.86277598  1
  O  O210  1  0.25462695  0.50386455  0.37150774  1
  O  O211  1  0.25453677  0.50880957  0.87127378  1
  O  O212  1  0.75466093  0.00472603  0.36970734  1
  O  O213  1  0.75623565  0.00553352  0.86998828  1
  O  O214  1  0.75357482  0.50574226  0.36971180  1
  O  O215  1  0.75491531  0.50619341  0.86880185  1
  O  O216  1  0.24503148  0.49395385  0.13153508  1
  O  O217  1  0.24300160  0.49195746  0.62608988  1
  O  O218  1  0.24477498  0.99563139  0.12968786  1
  O  O219  1  0.24367849  0.99286636  0.63121757  1
  O  O220  1  0.74307878  0.49512817  0.13107857  1
  O  O221  1  0.74537465  0.49468482  0.63130680  1
  O  O222  1  0.74557618  0.99615883  0.12920506  1
  O  O223  1  0.74547427  0.99530911  0.63048194  1
  O  O224  1  0.00827459  0.37317387  0.25122659  1
  O  O225  1  0.00748090  0.36729915  0.75359520  1
  O  O226  1  0.00268478  0.87214312  0.25853538  1
  O  O227  1  0.00534729  0.86952499  0.75484294  1
  O  O228  1  0.50574462  0.37490375  0.25618489  1
  O  O229  1  0.50694224  0.37373768  0.75747482  1
  O  O230  1  0.49967059  0.87518244  0.26171216  1
  O  O231  1  0.50430663  0.87195026  0.75545621  1
  O  O232  1  0.49166944  0.12566167  0.24311329  1
  O  O233  1  0.49889183  0.12800454  0.74088856  1
  O  O234  1  0.48762636  0.62432847  0.25105096  1
  O  O235  1  0.49073188  0.63207771  0.74991711  1
  O  O236  1  0.99406677  0.12230466  0.23989857  1
  O  O237  1  0.99359617  0.13131215  0.74900281  1
  O  O238  1  0.99029023  0.62828266  0.24708550  1
  O  O239  1  0.99559547  0.62928646  0.74535791  1
  O  O240  1  0.36484191  0.25680727  0.00163776  1
  O  O241  1  0.36812135  0.24979613  0.51050473  1
  O  O242  1  0.36988361  0.76283860  -0.00137201  1
  O  O243  1  0.36944963  0.75332465  0.50452229  1
  O  O244  1  0.86863882  0.26061235  0.00169943  1
  O  O245  1  0.87413774  0.24862863  0.51332445  1
  O  O246  1  0.86960955  0.75657643  0.00441134  1
  O  O247  1  0.86788176  0.75673014  0.50032695  1
  O  O248  1  0.12925743  0.24248494  0.49558710  1
  O  O249  1  0.13353423  0.25219621  0.99284094  1
  O  O250  1  0.13102162  0.74216935  0.49555462  1
  O  O251  1  0.13215140  0.74592732  0.99332303  1
  O  O252  1  0.62668318  0.24296510  0.49383322  1
  O  O253  1  0.63128756  0.24566001  0.99494744  1
  O  O254  1  0.63024368  0.74958355  0.48922663  1
  O  O255  1  0.63389053  0.74989995  0.99587090  1
  O  O256  1  0.49886400  0.23832975  0.12756089  1
  O  O257  1  0.49089829  0.24524736  0.62461113  1
  O  O258  1  0.49576205  0.74824414  0.12921204  1
  O  O259  1  0.49356147  0.74944514  0.62954051  1
  O  O260  1  0.99916392  0.23730298  0.12616305  1
  O  O261  1  0.99022069  0.24815663  0.63242302  1
  O  O262  1  0.99103249  0.74863762  0.12622371  1
  O  O263  1  0.99939657  0.74204410  0.63118178  1
  O  O264  1  0.00788125  0.25029595  0.37246160  1
  O  O265  1  0.00997804  0.25235717  0.87193935  1
  O  O266  1  0.00680379  0.75508743  0.37522409  1
  O  O267  1  0.00586635  0.75552911  0.86890555  1
  O  O268  1  0.50635169  0.25643073  0.37436331  1
  O  O269  1  0.50772818  0.25720539  0.87535749  1
  O  O270  1  0.50769290  0.75840132  0.37604421  1
  O  O271  1  0.50126509  0.76370357  0.86772222  1
  O  O272  1  0.24396073  0.12795384  0.49467208  1
  O  O273  1  0.24826654  0.13740823  1.00067483  1
  O  O274  1  0.24510252  0.62853160  0.49576647  1
  O  O275  1  0.24747105  0.63184283  0.99371221  1
  O  O276  1  0.74305803  0.12509477  0.49287986  1
  O  O277  1  0.74581978  0.13068807  0.99553490  1
  O  O278  1  0.74826513  0.63186159  0.49285672  1
  O  O279  1  0.74932371  0.63228252  0.99246796  1
  O  O280  1  0.25509351  0.36803320  0.00507418  1
  O  O281  1  0.25021255  0.36593503  0.50718683  1
  O  O282  1  0.25788473  0.87150644  0.00320707  1
  O  O283  1  0.25518621  0.86846010  0.50456225  1
  O  O284  1  0.75677885  0.37143785  0.00531851  1
  O  O285  1  0.75342099  0.37150473  0.50990086  1
  O  O286  1  0.75646208  0.87158258  0.00438466  1
  O  O287  1  0.75468619  0.87097637  0.50433870  1
  O  O288  1  0.13162578  0.49569531  0.24567940  1
  O  O289  1  0.12609420  0.49320846  0.74347901  1
  O  O290  1  0.13249860  0.99697257  0.24302223  1
  O  O291  1  0.13113691  0.99338121  0.74445215  1
  O  O292  1  0.62994524  0.49485398  0.24612473  1
  O  O293  1  0.63029479  0.49429622  0.74516961  1
  O  O294  1  0.63195045  0.99943106  0.24274767  1
  O  O295  1  0.63217226  0.99549459  0.74381705  1
  O  O296  1  0.36909880  0.01178255  0.25190259  1
  O  O297  1  0.36200345  -0.00072571  0.74836035  1
  O  O298  1  0.36890470  0.50658293  0.25639511  1
  O  O299  1  0.37508463  0.51197308  0.74990209  1
  O  O300  1  0.86879295  0.00499348  0.25604081  1
  O  O301  1  0.87072565  0.00494662  0.75561973  1
  O  O302  1  0.86788047  0.50622390  0.25470582  1
  O  O303  1  0.86949973  0.50440539  0.75550895  1
  O  O304  1  0.12422506  0.36747195  0.36828790  1
  O  O305  1  0.12558530  0.36517905  0.87038544  1
  O  O306  1  0.11888549  0.86676108  0.37495500  1
  O  O307  1  0.11919346  0.86876531  0.86912994  1
  O  O308  1  0.62032507  0.37011374  0.36991766  1
  O  O309  1  0.62125941  0.37028392  0.87086644  1
  O  O310  1  0.61602315  0.86724457  0.37451376  1
  O  O311  1  0.61622806  0.87655467  0.86799918  1
  O  O312  1  0.38310504  0.12604515  0.13315094  1
  O  O313  1  0.38067748  0.13364479  0.62523290  1
  O  O314  1  0.37531171  0.62545264  0.13736942  1
  O  O315  1  0.37605718  0.63090334  0.63407367  1
  O  O316  1  0.88463565  0.12440937  0.13032700  1
  O  O317  1  0.87501754  0.13370448  0.63253728  1
  O  O318  1  0.87344814  0.63207792  0.13118377  1
  O  O319  1  0.88157866  0.62536964  0.63237128  1
  O  O320  1  0.24847144  0.25619444  0.11537993  1
  O  O321  1  0.25645859  0.25268911  0.62031538  1
  O  O322  1  0.25431461  0.75801284  0.11711476  1
  O  O323  1  0.25466509  0.75472289  0.61916347  1
  O  O324  1  0.75092612  0.25767805  0.11862605  1
  O  O325  1  0.76035043  0.25456568  0.62708366  1
  O  O326  1  0.75498160  0.75722932  0.11867981  1
  O  O327  1  0.75038596  0.75738191  0.61790726  1
  O  O328  1  0.24386047  0.24248737  0.38141410  1
  O  O329  1  0.24215056  0.25109588  0.88424284  1
  O  O330  1  0.24491634  0.74300368  0.38216764  1
  O  O331  1  0.24436854  0.74628523  0.87947513  1
  O  O332  1  0.74356099  0.24228585  0.37673624  1
  O  O333  1  0.74471277  0.24411363  0.88109847  1
  O  O334  1  0.74152665  0.74691882  0.37931979  1
  O  O335  1  0.75037484  0.74500901  0.88030041  1
  O  O336  1  0.00014556  0.11875438  0.00988217  1
  O  O337  1  0.00627478  0.11559500  0.50156384  1
  O  O338  1  0.01074063  0.62434299  0.00198216  1
  O  O339  1  0.00545898  0.61863152  0.50591971  1
  O  O340  1  0.50502421  0.12469079  0.00919507  1
  O  O341  1  0.50594349  0.11869984  0.50494041  1
  O  O342  1  0.49920049  0.61493797  -0.00102722  1
  O  O343  1  0.50085893  0.61157426  0.50073747  1
  O  O344  1  0.49878695  0.38534444  0.49421227  1
  O  O345  1  0.49565816  0.38314214  0.99603415  1
  O  O346  1  0.49521676  0.87964117  0.49207256  1
  O  O347  1  0.49260429  0.87754636  0.99097131  1
  O  O348  1  0.99642578  0.38309048  0.49743856  1
  O  O349  1  0.98719758  0.37643912  1.00046378  1
  O  O350  1  0.99400100  0.87940025  0.49429338  1
  O  O351  1  0.99487815  0.88017790  0.99341371  1
  O  O352  1  0.49543013  0.49401410  0.38345012  1
  O  O353  1  0.49957807  0.49406263  0.88506764  1
  O  O354  1  0.50017420  0.99021341  0.38110393  1
  O  O355  1  0.49848032  0.98913082  0.87439760  1
  O  O356  1  0.99232769  0.49959624  0.38178194  1
  O  O357  1  0.99146526  0.49696320  0.87944749  1
  O  O358  1  0.99422657  0.99348829  0.38057982  1
  O  O359  1  0.99591079  0.99491424  0.87941953  1
  O  O360  1  0.00454475  0.00633766  0.11965192  1
  O  O361  1  0.00611247  -0.00035511  0.61825861  1
  O  O362  1  0.01002190  0.50458059  0.12135861  1
  O  O363  1  0.00572222  0.50459759  0.62016846  1
  O  O364  1  0.50598282  0.01215915  0.12382609  1
  O  O365  1  0.50638549  0.00434435  0.61929718  1
  O  O366  1  0.50488384  0.50105347  0.11461641  1
  O  O367  1  0.50550854  0.49903903  0.61606810  1
  O  O368  1  0.24469040  0.38005535  0.24536077  1
  O  O369  1  0.24326823  0.37541008  0.74315901  1
  O  O370  1  0.25204139  0.88177262  0.24321704  1
  O  O371  1  0.24425750  0.88089013  0.74390065  1
  O  O372  1  0.74391308  0.38143779  0.24494427  1
  O  O373  1  0.74449430  0.38154867  0.74600570  1
  O  O374  1  0.74815908  0.88247587  0.24239510  1
  O  O375  1  0.74601845  0.88099233  0.74474286  1
  O  O376  1  0.25720756  0.11978845  0.25371109  1
  O  O377  1  0.24970780  0.11182412  0.74955080  1
  O  O378  1  0.25792688  0.61842178  0.25659618  1
  O  O379  1  0.26030872  0.62591691  0.75461811  1
  O  O380  1  0.75492190  0.11884015  0.25515183  1
  O  O381  1  0.75546286  0.11914752  0.75717498  1
  O  O382  1  0.75466348  0.61964759  0.25603890  1
  O  O383  1  0.75597936  0.61986750  0.75457103  1
  O  O384  1  0.36971722  0.12359415  0.36685061  1
  O  O385  1  0.37100724  0.12161102  0.87093242  1
  O  O386  1  0.36882465  0.61812383  0.36841692  1
  O  O387  1  0.37024650  0.62688180  0.86396163  1
  O  O388  1  0.86941890  0.11813589  0.37029774  1
  O  O389  1  0.87015529  0.12027280  0.87152431  1
  O  O390  1  0.86767096  0.61986906  0.36894560  1
  O  O391  1  0.86946422  0.61960501  0.86910678  1
  O  O392  1  0.13122485  0.38151664  0.13066612  1
  O  O393  1  0.12962077  0.37787723  0.63073448  1
  O  O394  1  0.13311716  0.88110599  0.12502169  1
  O  O395  1  0.13016488  0.87854158  0.62946131  1
  O  O396  1  0.62978290  0.38147005  0.13100146  1
  O  O397  1  0.63077489  0.37945407  0.63154241  1
  O  O398  1  0.63106310  0.88342125  0.12513234  1
  O  O399  1  0.63048173  0.88213278  0.62916919  1
  O  O400  1  0.12430705  0.25615849  0.25663931  1
  O  O401  1  0.12134255  0.25399864  0.75793952  1
  O  O402  1  0.12527305  0.75113465  0.25892968  1
  O  O403  1  0.12027670  0.75446918  0.75480296  1
  O  O404  1  0.62326556  0.25745655  0.25734956  1
  O  O405  1  0.62481625  0.25711032  0.75757041  1
  O  O406  1  0.62382205  0.75277104  0.26247553  1
  O  O407  1  0.61857181  0.75845090  0.74999001  1
  O  O408  1  0.37453345  0.23740653  0.24808444  1
  O  O409  1  0.37516243  0.24793673  0.73737908  1
  O  O410  1  0.37557088  0.73741188  0.25111277  1
  O  O411  1  0.37992359  0.74373329  0.74377860  1
  O  O412  1  0.87690894  0.24089038  0.24648230  1
  O  O413  1  0.87947432  0.24518008  0.74475131  1
  O  O414  1  0.87384043  0.74371049  0.24299500  1
  O  O415  1  0.88260274  0.74303615  0.74774286  1
  O  O416  1  0.38353563  0.49765492  0.49545270  1
  O  O417  1  0.38432939  0.49456208  0.99933340  1
  O  O418  1  0.38133188  0.99235147  0.49933056  1
  O  O419  1  0.37540300  0.98871419  0.99701511  1
  O  O420  1  0.88071187  0.49923389  0.49374260  1
  O  O421  1  0.87269211  0.49109364  0.99504906  1
  O  O422  1  0.87976440  0.99457425  0.49412587  1
  O  O423  1  0.88067316  0.99421788  0.99362605  1
  O  O424  1  0.11874167  0.00203213  0.00579284  1
  O  O425  1  0.12010889  0.00317945  0.50466111  1
  O  O426  1  0.12718129  0.50651706  0.00641130  1
  O  O427  1  0.11932410  0.50449272  0.50584730  1
  O  O428  1  0.62406212  0.00912192  0.00658119  1
  O  O429  1  0.61974274  0.00537602  0.50573350  1
  O  O430  1  0.61487009  0.50043660  0.00574852  1
  O  O431  1  0.61597070  0.50014515  0.50526687  1
  O  O432  1  0.36805517  0.37299374  0.11955825  1
  O  O433  1  0.36909868  0.36461354  0.62350345  1
  O  O434  1  0.37050092  0.87693436  0.11464413  1
  O  O435  1  0.36928410  0.86816456  0.61869620  1
  O  O436  1  0.86794680  0.37672931  0.11674568  1
  O  O437  1  0.86975009  0.36411452  0.62777195  1
  O  O438  1  0.86913272  0.87143382  0.11855466  1
  O  O439  1  0.86786981  0.87366715  0.61771863  1
  O  O440  1  0.13071048  0.12849538  0.37971593  1
  O  O441  1  0.12805558  0.13838293  0.87779114  1
  O  O442  1  0.13081679  0.62780609  0.38137120  1
  O  O443  1  0.13153853  0.63077692  0.87912771  1
  O  O444  1  0.62945768  0.12945202  0.37965675  1
  O  O445  1  0.63062604  0.13004649  0.88115188  1
  O  O446  1  0.62968716  0.63464491  0.37639292  1
  O  O447  1  0.63337025  0.62898393  0.87648583  1
