# generated using pymatgen
data_V3Zn3O8
_symmetry_space_group_name_H-M   'P 1'
_cell_length_a   17.08627943
_cell_length_b   17.08676693
_cell_length_c   17.08682950
_cell_angle_alpha   89.98898046
_cell_angle_beta   90.01270062
_cell_angle_gamma   90.01035914
_symmetry_Int_Tables_number   1
_chemical_formula_structural   V3Zn3O8
_chemical_formula_sum   'V96 Zn96 O256'
_cell_volume   4988.48717624
_cell_formula_units_Z   32
loop_
 _symmetry_equiv_pos_site_id
 _symmetry_equiv_pos_as_xyz
  1  'x, y, z'
loop_
 _atom_site_type_symbol
 _atom_site_label
 _atom_site_symmetry_multiplicity
 _atom_site_fract_x
 _atom_site_fract_y
 _atom_site_fract_z
 _atom_site_occupancy
  V  V0  1  0.75065354  -0.00045369  0.74960276  1
  V  V1  1  0.74854728  0.49932461  0.25023336  1
  V  V2  1  0.62428449  0.37440687  0.24986938  1
  V  V3  1  0.37395748  0.74970778  0.12443378  1
  V  V4  1  0.62522924  0.74952793  0.87400328  1
  V  V5  1  0.00054658  0.87519080  0.87435858  1
  V  V6  1  0.24851521  0.12766699  0.87623831  1
  V  V7  1  0.87560692  0.87492187  -0.00026712  1
  V  V8  1  0.25112761  -0.00041309  0.74949727  1
  V  V9  1  0.87486977  0.37507355  0.00144902  1
  V  V10  1  0.37365510  0.25105749  0.12498462  1
  V  V11  1  0.25114354  0.00130500  0.25036251  1
  V  V12  1  0.74932244  0.62440688  0.37492605  1
  V  V13  1  0.25079091  0.24938824  0.50106027  1
  V  V14  1  0.00057714  0.37306757  0.87533268  1
  V  V15  1  0.87512598  0.12467543  0.25057170  1
  V  V16  1  0.87441460  0.87451728  0.49985451  1
  V  V17  1  0.12576041  0.00014340  0.62435925  1
  V  V18  1  -0.00039585  0.50084525  0.50137532  1
  V  V19  1  0.24962182  0.37503779  0.12539207  1
  V  V20  1  0.25068931  0.37485851  0.62574394  1
  V  V21  1  0.12478357  0.87440057  0.75062780  1
  V  V22  1  0.87593571  -0.00059291  0.87425281  1
  V  V23  1  0.62488315  0.25174529  0.87393697  1
  V  V24  1  0.37414246  0.49951783  0.87413324  1
  V  V25  1  0.75029223  0.50035424  0.75036666  1
  V  V26  1  0.49970174  0.37488472  0.87468353  1
  V  V27  1  0.37454252  0.74934990  0.62595570  1
  V  V28  1  0.50134728  0.12494153  0.62369613  1
  V  V29  1  0.87417343  0.25045854  0.62560537  1
  V  V30  1  0.49981389  0.50001008  0.49928647  1
  V  V31  1  0.50046645  0.74986021  0.75084190  1
  V  V32  1  0.00116810  0.12468666  0.12496018  1
  V  V33  1  0.50005119  0.12413195  0.12377450  1
  V  V34  1  -0.00035183  0.00017665  0.49925040  1
  V  V35  1  0.87421477  0.62615948  0.24965367  1
  V  V36  1  0.87399168  0.75077586  0.12459238  1
  V  V37  1  0.62541759  0.62458099  0.49971333  1
  V  V38  1  0.87451367  0.50034930  0.37573633  1
  V  V39  1  0.12531937  0.12515198  0.50044187  1
  V  V40  1  0.37597192  0.24923298  0.62411545  1
  V  V41  1  0.62556237  -0.00070054  0.62365908  1
  V  V42  1  0.12531360  0.25088208  0.37643100  1
  V  V43  1  0.62368335  0.74996454  0.37323151  1
  V  V44  1  0.62498257  0.62520530  -0.00143884  1
  V  V45  1  0.37609609  0.87457477  0.49914826  1
  V  V46  1  0.49951404  0.50023031  -0.00017169  1
  V  V47  1  0.74945405  0.12430308  0.37481486  1
  V  V48  1  0.00023999  0.74971582  0.74978879  1
  V  V49  1  -0.00136303  0.62576065  0.12583706  1
  V  V50  1  -0.00002998  0.62486526  0.62605006  1
  V  V51  1  0.37534395  0.50010247  0.37598227  1
  V  V52  1  0.12446912  0.37637615  0.25137754  1
  V  V53  1  0.87584309  0.62504361  0.75041388  1
  V  V54  1  0.37404299  0.62389997  0.75082222  1
  V  V55  1  0.62519188  0.87412389  0.75006582  1
  V  V56  1  0.75069226  0.74956212  0.49985292  1
  V  V57  1  -0.00004989  0.25083597  0.25085171  1
  V  V58  1  0.49916246  0.62520116  0.12468924  1
  V  V59  1  0.62463166  0.12247575  0.00077463  1
  V  V60  1  0.50058854  0.87408098  0.37267182  1
  V  V61  1  0.74990127  0.25034408  0.00048859  1
  V  V62  1  0.25140117  0.12488621  0.37498656  1
  V  V63  1  0.25003574  0.87617586  0.12507509  1
  V  V64  1  0.62446271  0.24894265  0.37595378  1
  V  V65  1  0.12535666  0.49944595  0.62652135  1
  V  V66  1  0.49940339  0.25007836  0.25015159  1
  V  V67  1  0.75025941  0.75011147  -0.00069616  1
  V  V68  1  0.87438934  0.37445507  0.50136217  1
  V  V69  1  0.24859730  0.62379408  0.87550162  1
  V  V70  1  0.87499828  0.00140098  0.37496401  1
  V  V71  1  0.37624825  0.12506719  0.74911263  1
  V  V72  1  0.12412137  0.50063393  0.12620735  1
  V  V73  1  0.74926480  0.37522476  0.12643694  1
  V  V74  1  0.37630058  -0.00014997  0.87507795  1
  V  V75  1  0.87557972  0.24994310  0.12567442  1
  V  V76  1  0.37459966  0.12523013  0.24988772  1
  V  V77  1  0.12467648  0.87519978  0.25059277  1
  V  V78  1  0.12469948  0.62503976  -0.00051301  1
  V  V79  1  0.75018080  0.37517346  0.62562937  1
  V  V80  1  0.12422268  0.00189727  0.12459703  1
  V  V81  1  -0.00033803  0.12553693  0.62544644  1
  V  V82  1  0.25070038  0.87454978  0.62521374  1
  V  V83  1  0.37358869  0.37466507  0.00056627  1
  V  V84  1  0.12509213  0.75152151  0.37458400  1
  V  V85  1  0.87432944  0.50025790  0.87579196  1
  V  V86  1  -0.00043512  0.37591292  0.37621393  1
  V  V87  1  0.00060868  0.25045255  0.75195829  1
  V  V88  1  -0.00093500  0.49928564  0.00101864  1
  V  V89  1  0.49999426  0.62453528  0.62512639  1
  V  V90  1  0.37541845  0.87688267  -0.00144376  1
  V  V91  1  0.24948501  0.50127470  0.25149315  1
  V  V92  1  0.24931658  0.74994116  0.49999957  1
  V  V93  1  0.24912728  0.62574438  0.37551704  1
  V  V94  1  0.87489666  0.12395789  0.75077439  1
  V  V95  1  0.62571080  0.49925603  0.62541355  1
  Zn  Zn96  1  0.74851571  -0.00299885  0.24629990  1
  Zn  Zn97  1  0.62410689  0.37614335  0.74922707  1
  Zn  Zn98  1  0.37733687  0.37433718  0.50014971  1
  Zn  Zn99  1  0.12545783  0.74974909  0.87674464  1
  Zn  Zn100  1  0.12527868  0.25128036  0.87640606  1
  Zn  Zn101  1  0.12564622  0.37265299  0.75270418  1
  Zn  Zn102  1  0.87458874  0.74957758  0.62488541  1
  Zn  Zn103  1  0.62785769  0.87505225  0.24583859  1
  Zn  Zn104  1  0.62569202  0.12422847  0.49989363  1
  Zn  Zn105  1  -0.00110918  0.75218440  0.25118920  1
  Zn  Zn106  1  0.25002127  0.49884492  0.75006673  1
  Zn  Zn107  1  0.62577158  -0.00373998  0.12715530  1
  Zn  Zn108  1  0.74881376  0.24977773  0.50192094  1
  Zn  Zn109  1  0.75006922  0.87244111  0.62465701  1
  Zn  Zn110  1  0.00116842  0.00094217  -0.00013904  1
  Zn  Zn111  1  0.74850168  0.87789699  0.12584964  1
  Zn  Zn112  1  0.49883222  0.37471096  0.37580808  1
  Zn  Zn113  1  0.37485082  0.62587111  0.24986030  1
  Zn  Zn114  1  0.50158287  0.75019581  0.24827327  1
  Zn  Zn115  1  0.50182608  0.25266082  0.74771292  1
  Zn  Zn116  1  0.75049706  0.12473159  0.87516180  1
  Zn  Zn117  1  0.75034869  0.62469086  0.87440342  1
  Zn  Zn118  1  0.12373653  0.12690088  -0.00004378  1
  Zn  Zn119  1  0.00043546  0.87467237  0.37371373  1
  Zn  Zn120  1  0.62382165  0.49960133  0.12510637  1
  Zn  Zn121  1  0.24793647  0.25079901  -0.00076909  1
  Zn  Zn122  1  0.12363615  0.62717735  0.50041106  1
  Zn  Zn123  1  0.50042707  0.87639145  0.87465728  1
  Zn  Zn124  1  0.50198154  -0.00048631  -0.00081680  1
  Zn  Zn125  1  0.37745537  -0.00015501  0.37558209  1
  Zn  Zn126  1  0.50047033  -0.00134146  0.49813973  1
  Zn  Zn127  1  0.24668156  0.75024786  -0.00109209  1
  Zn  Zn128  1  0.18720290  0.18834329  0.18834079  1
  Zn  Zn129  1  0.18701542  0.18810397  0.69002341  1
  Zn  Zn130  1  0.18765966  0.68825136  0.18812217  1
  Zn  Zn131  1  0.18676925  0.68694415  0.68935653  1
  Zn  Zn132  1  0.68733230  0.18604700  0.18796868  1
  Zn  Zn133  1  0.68876085  0.18715544  0.68961751  1
  Zn  Zn134  1  0.68691361  0.69024822  0.18642719  1
  Zn  Zn135  1  0.68939541  0.68693466  0.68671675  1
  Zn  Zn136  1  0.31227611  0.31393766  0.31274688  1
  Zn  Zn137  1  0.31514794  0.31124276  0.80991301  1
  Zn  Zn138  1  0.31309124  0.81271848  0.31124286  1
  Zn  Zn139  1  0.31060824  0.81010183  0.81429689  1
  Zn  Zn140  1  0.81159610  0.31181508  0.31290285  1
  Zn  Zn141  1  0.81270638  0.31339919  0.81242794  1
  Zn  Zn142  1  0.81088146  0.81293079  0.31170368  1
  Zn  Zn143  1  0.81231017  0.81231555  0.81233382  1
  Zn  Zn144  1  0.18822368  0.43826495  0.44050809  1
  Zn  Zn145  1  0.18655643  0.43748953  0.93789125  1
  Zn  Zn146  1  0.18923454  0.93761806  0.43658271  1
  Zn  Zn147  1  0.18692149  0.94029909  0.93815533  1
  Zn  Zn148  1  0.68730836  0.43573816  0.43820141  1
  Zn  Zn149  1  0.68728312  0.43867509  0.93858818  1
  Zn  Zn150  1  0.68698934  0.93675998  0.43638390  1
  Zn  Zn151  1  0.69053292  0.93567088  0.93569816  1
  Zn  Zn152  1  0.31217429  0.06295910  0.06173713  1
  Zn  Zn153  1  0.31462281  0.06063134  0.56096409  1
  Zn  Zn154  1  0.31096719  0.56140390  0.06078341  1
  Zn  Zn155  1  0.31175079  0.56348975  0.56107723  1
  Zn  Zn156  1  0.81224462  0.06076027  0.06163259  1
  Zn  Zn157  1  0.81143706  0.06303132  0.56153028  1
  Zn  Zn158  1  0.81036892  0.56343719  0.06323829  1
  Zn  Zn159  1  0.81300715  0.56269477  0.56395281  1
  Zn  Zn160  1  0.43698882  0.43762908  0.18903162  1
  Zn  Zn161  1  0.43829653  0.43701943  0.68827020  1
  Zn  Zn162  1  0.44031334  0.93978634  0.18699617  1
  Zn  Zn163  1  0.43886858  0.93684671  0.68813353  1
  Zn  Zn164  1  0.93653237  0.43858815  0.18872440  1
  Zn  Zn165  1  0.93728098  0.43692329  0.68974535  1
  Zn  Zn166  1  0.93720124  0.93712862  0.18783926  1
  Zn  Zn167  1  0.93788941  0.93686960  0.68624045  1
  Zn  Zn168  1  0.06289011  0.06181548  0.31208046  1
  Zn  Zn169  1  0.06289962  0.06149603  0.81201919  1
  Zn  Zn170  1  0.06181994  0.56556724  0.31300766  1
  Zn  Zn171  1  0.06215070  0.56048313  0.81261452  1
  Zn  Zn172  1  0.56270489  0.05923374  0.30929428  1
  Zn  Zn173  1  0.56211880  0.06247998  0.81210384  1
  Zn  Zn174  1  0.56169936  0.56311304  0.31082298  1
  Zn  Zn175  1  0.56245690  0.56247078  0.81255078  1
  Zn  Zn176  1  0.43760540  0.18664285  0.43850503  1
  Zn  Zn177  1  0.43764160  0.18889954  0.93804681  1
  Zn  Zn178  1  0.43693937  0.68775845  0.43808323  1
  Zn  Zn179  1  0.43675089  0.68854131  0.93719253  1
  Zn  Zn180  1  0.93681625  0.18839473  0.43885262  1
  Zn  Zn181  1  0.93831686  0.18575845  0.93820535  1
  Zn  Zn182  1  0.93922732  0.68831513  0.43716162  1
  Zn  Zn183  1  0.93822122  0.68842643  0.93641272  1
  Zn  Zn184  1  0.06486118  0.31020503  0.06093370  1
  Zn  Zn185  1  0.06202851  0.31274935  0.56418673  1
  Zn  Zn186  1  0.06117139  0.81230442  0.06259258  1
  Zn  Zn187  1  0.06147769  0.81259045  0.56245098  1
  Zn  Zn188  1  0.56146848  0.31165155  0.06255889  1
  Zn  Zn189  1  0.56247022  0.31418622  0.56025397  1
  Zn  Zn190  1  0.56307789  0.81269760  0.06062101  1
  Zn  Zn191  1  0.56259473  0.81196915  0.56112140  1
  O  O192  1  0.11891289  0.11939476  0.12742431  1
  O  O193  1  0.12030701  0.11971778  0.61972648  1
  O  O194  1  0.11942442  0.61887960  0.12104089  1
  O  O195  1  0.11994860  0.61484230  0.62428510  1
  O  O196  1  0.61872557  0.12965357  0.11356440  1
  O  O197  1  0.61781418  0.11738748  0.62579079  1
  O  O198  1  0.61369756  0.62484522  0.11814590  1
  O  O199  1  0.61948810  0.61909996  0.61906733  1
  O  O200  1  0.37469313  0.38793827  0.37769886  1
  O  O201  1  0.37947592  0.37958386  0.87996787  1
  O  O202  1  0.38381350  0.87334580  0.38075147  1
  O  O203  1  0.37312036  0.88018062  0.88353878  1
  O  O204  1  0.88006795  0.38038909  0.38004521  1
  O  O205  1  0.88001914  0.38029382  0.88269435  1
  O  O206  1  0.87591953  0.88137660  0.38632817  1
  O  O207  1  0.88140639  0.87998332  0.87889314  1
  O  O208  1  0.25207737  0.00761949  0.36845736  1
  O  O209  1  0.25633534  0.00800118  0.86827080  1
  O  O210  1  0.25640266  0.50504126  0.37227001  1
  O  O211  1  0.25657806  0.50505181  0.87253245  1
  O  O212  1  0.75573145  0.01162297  0.37627708  1
  O  O213  1  0.75781629  0.00144095  0.86658841  1
  O  O214  1  0.75520253  0.50488043  0.37047549  1
  O  O215  1  0.75698924  0.50062563  0.86940992  1
  O  O216  1  0.24401985  0.49507880  0.13151820  1
  O  O217  1  0.24249584  0.49195069  0.62367837  1
  O  O218  1  0.24506173  0.99585334  0.13135969  1
  O  O219  1  0.24541085  0.99456582  0.62993687  1
  O  O220  1  0.74806854  0.49317017  0.13240079  1
  O  O221  1  0.74498733  0.49496183  0.63003213  1
  O  O222  1  0.74647606  0.99817326  0.12699395  1
  O  O223  1  0.73961161  1.00046811  0.63014130  1
  O  O224  1  0.00474210  0.37098686  0.25692526  1
  O  O225  1  -0.00097715  0.36786329  0.75758656  1
  O  O226  1  0.00887146  0.87339460  0.25336548  1
  O  O227  1  0.00543139  0.87013853  0.75369605  1
  O  O228  1  0.50577911  0.36808711  0.25237608  1
  O  O229  1  0.50350101  0.37260435  0.75824863  1
  O  O230  1  0.49914080  0.87176293  0.26223076  1
  O  O231  1  0.50634502  0.86677722  0.75089553  1
  O  O232  1  0.49396182  0.13135379  0.24396576  1
  O  O233  1  0.49535323  0.12660307  0.73822113  1
  O  O234  1  0.49690476  0.62601656  0.23645334  1
  O  O235  1  0.49403897  0.62995375  0.74402228  1
  O  O236  1  0.99503152  0.13265006  0.24635110  1
  O  O237  1  0.99454805  0.12937889  0.74377972  1
  O  O238  1  0.99183016  0.62513033  0.24333425  1
  O  O239  1  0.99537557  0.62932861  0.74529740  1
  O  O240  1  0.37272999  0.25746675  0.00731976  1
  O  O241  1  0.36810365  0.25079185  0.50628165  1
  O  O242  1  0.37293309  0.75886816  0.00870008  1
  O  O243  1  0.36878096  0.75422050  0.50703759  1
  O  O244  1  0.86975192  0.25571985  0.00635933  1
  O  O245  1  0.87464711  0.25714674  0.50775769  1
  O  O246  1  0.87019961  0.75439674  0.00410079  1
  O  O247  1  0.87006484  0.75909075  0.49909027  1
  O  O248  1  0.12973529  0.24449520  0.49581237  1
  O  O249  1  0.13069971  0.24539026  0.99531158  1
  O  O250  1  0.13203771  0.75027552  0.49339293  1
  O  O251  1  0.12623207  0.74074416  0.99873540  1
  O  O252  1  0.62627352  0.24801543  0.48739727  1
  O  O253  1  0.62937782  0.24349985  0.99245609  1
  O  O254  1  0.63019701  0.74285547  0.49435953  1
  O  O255  1  0.62974779  0.74429311  0.99274294  1
  O  O256  1  0.49308089  0.24486064  0.13068712  1
  O  O257  1  0.49622590  0.24085560  0.62430333  1
  O  O258  1  0.49054442  0.74066056  0.12267092  1
  O  O259  1  0.49452808  0.74349571  0.63000529  1
  O  O260  1  0.99488070  0.24634159  0.13231479  1
  O  O261  1  0.99407075  0.24457723  0.63058662  1
  O  O262  1  0.99246417  0.74208445  0.12693779  1
  O  O263  1  0.99916144  0.74274646  0.63138213  1
  O  O264  1  0.00564685  0.25603243  0.37107191  1
  O  O265  1  -0.00099834  0.25580784  0.86898780  1
  O  O266  1  0.01020748  0.75217778  0.37278555  1
  O  O267  1  0.00248010  0.75693125  0.86733404  1
  O  O268  1  0.50888003  0.24921360  0.36925213  1
  O  O269  1  0.50947382  0.25608837  0.87466155  1
  O  O270  1  0.50485771  0.75637844  0.37406578  1
  O  O271  1  0.50611007  0.75083786  0.86768552  1
  O  O272  1  0.24471684  0.12989255  0.49574744  1
  O  O273  1  0.25058693  0.12627779  0.98692043  1
  O  O274  1  0.24769598  0.63270378  0.49406797  1
  O  O275  1  0.24251288  0.62393875  0.99304238  1
  O  O276  1  0.74891788  0.12907501  0.48774312  1
  O  O277  1  0.74111127  0.13319282  0.99789461  1
  O  O278  1  0.74511041  0.62821883  0.49403566  1
  O  O279  1  0.74283205  0.63078447  0.99791519  1
  O  O280  1  0.25661737  0.37574279  0.00793718  1
  O  O281  1  0.25103551  0.36837660  0.51090941  1
  O  O282  1  0.26006575  0.87512757  0.00611339  1
  O  O283  1  0.25568474  0.86960939  0.50619253  1
  O  O284  1  0.75543264  0.37034610  0.00698614  1
  O  O285  1  0.75745499  0.37378379  0.50696091  1
  O  O286  1  0.75885612  0.86644697  -0.00127700  1
  O  O287  1  0.75910146  0.86920674  0.49974548  1
  O  O288  1  0.12921188  0.49517002  0.24627428  1
  O  O289  1  0.12615077  0.49655495  0.73672251  1
  O  O290  1  0.13197831  0.99536959  0.24523506  1
  O  O291  1  0.13117708  0.99448791  0.74259990  1
  O  O292  1  0.63107858  0.49310495  0.24914989  1
  O  O293  1  0.63143559  0.49983764  0.74304012  1
  O  O294  1  0.62933139  0.99594547  0.24633354  1
  O  O295  1  0.62998261  0.99515537  0.74245664  1
  O  O296  1  0.36833931  0.00784296  0.25057547  1
  O  O297  1  0.36967141  0.00489194  0.75419567  1
  O  O298  1  0.36839696  0.50134859  0.25982672  1
  O  O299  1  0.37441848  0.50680095  0.75608766  1
  O  O300  1  0.87523263  0.00859421  0.25830976  1
  O  O301  1  0.87051174  0.00443193  0.75334700  1
  O  O302  1  0.86856042  0.50506514  0.25671056  1
  O  O303  1  0.87039480  0.50511734  0.75626191  1
  O  O304  1  0.11982434  0.37087554  0.37166869  1
  O  O305  1  0.11667847  0.37413223  0.87261627  1
  O  O306  1  0.12587593  0.86881570  0.36883194  1
  O  O307  1  0.11976894  0.87576479  0.86754045  1
  O  O308  1  0.62517167  0.36433914  0.36888362  1
  O  O309  1  0.61911137  0.36594689  0.87696720  1
  O  O310  1  0.61496246  0.86714396  0.37745106  1
  O  O311  1  0.62300663  0.86798419  0.86785431  1
  O  O312  1  0.37916751  0.13152259  0.12993423  1
  O  O313  1  0.38261444  0.12833192  0.62895274  1
  O  O314  1  0.38190134  0.63305614  0.12187218  1
  O  O315  1  0.38016704  0.62994061  0.62995676  1
  O  O316  1  0.88068437  0.13183303  0.13085184  1
  O  O317  1  0.88054302  0.12973079  0.63013243  1
  O  O318  1  0.87948463  0.62967402  0.13018357  1
  O  O319  1  0.88292370  0.62456455  0.63224318  1
  O  O320  1  0.25641017  0.25811471  0.12671431  1
  O  O321  1  0.25453125  0.25577956  0.62042650  1
  O  O322  1  0.25896775  0.75599661  0.12259395  1
  O  O323  1  0.25513857  0.75528934  0.62072846  1
  O  O324  1  0.75623742  0.25542181  0.12099329  1
  O  O325  1  0.75627910  0.25606450  0.62459630  1
  O  O326  1  0.75773935  0.74896234  0.11599160  1
  O  O327  1  0.75315577  0.75157196  0.61539338  1
  O  O328  1  0.24443413  0.24565826  0.38064962  1
  O  O329  1  0.25100610  0.23847725  0.87305911  1
  O  O330  1  0.24546423  0.74549717  0.37997224  1
  O  O331  1  0.24658856  0.73951072  0.87819320  1
  O  O332  1  0.74117700  0.24189867  0.37485540  1
  O  O333  1  0.74088456  0.25088852  0.88157848  1
  O  O334  1  0.74396258  0.74254424  0.38105964  1
  O  O335  1  0.74329822  0.74692331  0.88042876  1
  O  O336  1  0.00167390  0.12253745  0.00995524  1
  O  O337  1  0.00582053  0.12087768  0.50591784  1
  O  O338  1  0.00405709  0.61788316  0.00587331  1
  O  O339  1  0.00087595  0.61767776  0.50713799  1
  O  O340  1  0.50916193  0.12660003  0.00533942  1
  O  O341  1  0.50158532  0.12146769  0.51258707  1
  O  O342  1  0.50354394  0.62024691  0.00717859  1
  O  O343  1  0.50579030  0.62034958  0.50622398  1
  O  O344  1  0.49710123  0.38417694  0.49601059  1
  O  O345  1  0.49338899  0.38048815  0.99539459  1
  O  O346  1  0.49394667  0.87323249  0.49036208  1
  O  O347  1  0.48611527  0.87660850  0.99741702  1
  O  O348  1  0.99443536  0.38069234  0.49522478  1
  O  O349  1  0.99354143  0.38012276  0.99697841  1
  O  O350  1  0.99117898  0.88203731  0.49900002  1
  O  O351  1  0.99355106  0.87644132  0.99217125  1
  O  O352  1  0.49053395  0.50117195  0.37973419  1
  O  O353  1  0.49379573  0.49516160  0.88066545  1
  O  O354  1  0.49871665  0.98869452  0.37802542  1
  O  O355  1  0.49136384  0.99789735  0.87680535  1
  O  O356  1  0.99448763  0.49520940  0.38064959  1
  O  O357  1  0.99371382  0.49350690  0.88185479  1
  O  O358  1  0.99361585  1.00100356  0.38285948  1
  O  O359  1  0.99343210  0.99288250  0.87404233  1
  O  O360  1  0.00690525  0.00786497  0.12637987  1
  O  O361  1  0.00625391  0.00646420  0.61937428  1
  O  O362  1  0.00437885  0.50503269  0.12074811  1
  O  O363  1  0.00737342  0.50319796  0.62115419  1
  O  O364  1  0.50241079  0.01036006  0.11995686  1
  O  O365  1  0.50938864  0.00795166  0.62605473  1
  O  O366  1  0.49828518  0.50962982  0.11890070  1
  O  O367  1  0.50511925  0.50579262  0.61961080  1
  O  O368  1  0.24314242  0.38155071  0.24597603  1
  O  O369  1  0.24913239  0.37576378  0.73656793  1
  O  O370  1  0.24572083  0.88143199  0.24405315  1
  O  O371  1  0.24577901  0.87999888  0.74427624  1
  O  O372  1  0.74497324  0.37950953  0.24550172  1
  O  O373  1  0.74923730  0.38271684  0.74311028  1
  O  O374  1  0.74811875  0.87824844  0.24676352  1
  O  O375  1  0.74355627  0.88119646  0.74604558  1
  O  O376  1  0.25523016  0.12135202  0.25605611  1
  O  O377  1  0.25648074  0.11896003  0.75547734  1
  O  O378  1  0.25153283  0.61792210  0.25644570  1
  O  O379  1  0.25668699  0.62218572  0.75644122  1
  O  O380  1  0.75712808  0.12696880  0.26119349  1
  O  O381  1  0.75752414  0.11801285  0.75204271  1
  O  O382  1  0.75420651  0.61889739  0.25573510  1
  O  O383  1  0.75750475  0.61783632  0.75080080  1
  O  O384  1  0.36883066  0.12454206  0.36831700  1
  O  O385  1  0.36887190  0.12050325  0.86917165  1
  O  O386  1  0.36897394  0.61598126  0.37379301  1
  O  O387  1  0.36938049  0.61910757  0.87080898  1
  O  O388  1  0.86795121  0.12274259  0.37109938  1
  O  O389  1  0.87410076  0.11829861  0.86798674  1
  O  O390  1  0.86899566  0.61930917  0.37059381  1
  O  O391  1  0.87512607  0.61721618  0.86857498  1
  O  O392  1  0.12883714  0.38133814  0.13220051  1
  O  O393  1  0.13316201  0.38260575  0.62517037  1
  O  O394  1  0.13086462  0.88066554  0.13018791  1
  O  O395  1  0.13114127  0.88119923  0.62982392  1
  O  O396  1  0.63098663  0.37479436  0.13174087  1
  O  O397  1  0.63155899  0.38176809  0.62549267  1
  O  O398  1  0.62734066  0.87675645  0.12533933  1
  O  O399  1  0.62478663  0.88437364  0.62996694  1
  O  O400  1  0.11956255  0.25698225  0.25730400  1
  O  O401  1  0.11556926  0.25194217  0.75239818  1
  O  O402  1  0.12569837  0.75744276  0.25717133  1
  O  O403  1  0.11857126  0.75738689  0.75106322  1
  O  O404  1  0.61960016  0.25365160  0.25803600  1
  O  O405  1  0.62491655  0.25203374  0.76283572  1
  O  O406  1  0.62170973  0.75051735  0.25964249  1
  O  O407  1  0.62022826  0.75377463  0.75362598  1
  O  O408  1  0.37944827  0.24558120  0.24516524  1
  O  O409  1  0.37876823  0.24228364  0.74116907  1
  O  O410  1  0.37632409  0.74835830  0.23528525  1
  O  O411  1  0.37988308  0.74394129  0.74472250  1
  O  O412  1  0.88107710  0.24579002  0.24563759  1
  O  O413  1  0.88022425  0.24400911  0.74479483  1
  O  O414  1  0.87553119  0.74206249  0.24421626  1
  O  O415  1  0.88201545  0.74377845  0.74786648  1
  O  O416  1  0.38046661  0.50074024  0.49076427  1
  O  O417  1  0.38020631  0.49408512  0.99386139  1
  O  O418  1  0.37810237  0.98981265  0.49785257  1
  O  O419  1  0.37494863  0.99102659  0.99427547  1
  O  O420  1  0.88002446  0.49432643  0.49479578  1
  O  O421  1  0.87957359  0.49433126  0.99668688  1
  O  O422  1  0.87950593  0.99385742  0.49534209  1
  O  O423  1  0.87718399  0.99326768  0.99154892  1
  O  O424  1  0.12309752  0.00409438  0.00967935  1
  O  O425  1  0.12092784  0.00589858  0.50510258  1
  O  O426  1  0.11790761  0.50423728  0.00771178  1
  O  O427  1  0.11862019  0.50083247  0.51096212  1
  O  O428  1  0.62509212  0.01431548  -0.00424319  1
  O  O429  1  0.62371960  0.00137638  0.51237853  1
  O  O430  1  0.61720321  0.50615197  0.00211870  1
  O  O431  1  0.62028708  0.50577743  0.50474526  1
  O  O432  1  0.36923710  0.37106512  0.12090350  1
  O  O433  1  0.36655196  0.36951792  0.62301655  1
  O  O434  1  0.37107153  0.86896289  0.11798714  1
  O  O435  1  0.37009070  0.86854506  0.62091076  1
  O  O436  1  0.86994801  0.36944190  0.12133963  1
  O  O437  1  0.87025820  0.37041244  0.62044868  1
  O  O438  1  0.87615140  0.86737947  0.11691705  1
  O  O439  1  0.87338172  0.87507475  0.61123756  1
  O  O440  1  0.13077531  0.13168364  0.38066628  1
  O  O441  1  0.13810881  0.12435554  0.87331959  1
  O  O442  1  0.13135459  0.63227333  0.37766330  1
  O  O443  1  0.13087237  0.62263889  0.88145106  1
  O  O444  1  0.63228728  0.13315054  0.37445206  1
  O  O445  1  0.62503695  0.13546853  0.88261831  1
  O  O446  1  0.62973553  0.62902160  0.38083496  1
  O  O447  1  0.62551088  0.63122306  0.88127392  1
