# generated using pymatgen
data_V3Zn3O8
_symmetry_space_group_name_H-M   'P 1'
_cell_length_a   17.08807142
_cell_length_b   17.08714641
_cell_length_c   17.08746586
_cell_angle_alpha   89.99655079
_cell_angle_beta   89.99654784
_cell_angle_gamma   89.99297320
_symmetry_Int_Tables_number   1
_chemical_formula_structural   V3Zn3O8
_chemical_formula_sum   'V96 Zn96 O256'
_cell_volume   4989.30721455
_cell_formula_units_Z   32
loop_
 _symmetry_equiv_pos_site_id
 _symmetry_equiv_pos_as_xyz
  1  'x, y, z'
loop_
 _atom_site_type_symbol
 _atom_site_label
 _atom_site_symmetry_multiplicity
 _atom_site_fract_x
 _atom_site_fract_y
 _atom_site_fract_z
 _atom_site_occupancy
  V  V0  1  0.24926797  0.74963320  -0.00142050  1
  V  V1  1  0.62491339  0.62462758  -0.00066644  1
  V  V2  1  0.37364968  0.75076843  0.62375097  1
  V  V3  1  0.12577541  0.25087542  0.87523267  1
  V  V4  1  0.37565089  0.25046723  0.12762278  1
  V  V5  1  0.12535949  0.74857620  0.37455248  1
  V  V6  1  0.62368435  0.50046468  0.12442542  1
  V  V7  1  0.75101207  0.37498837  0.62564689  1
  V  V8  1  0.12616403  0.62566673  0.49907408  1
  V  V9  1  -0.00127895  0.37400098  0.37543562  1
  V  V10  1  0.25164033  0.00174759  0.25160526  1
  V  V11  1  0.74968944  0.12410559  0.37509212  1
  V  V12  1  0.12455744  0.12564923  0.00073798  1
  V  V13  1  0.50008626  0.87591349  0.87429322  1
  V  V14  1  0.62548414  0.12475882  0.50057273  1
  V  V15  1  0.12502634  0.74992440  0.87415504  1
  V  V16  1  -0.00058685  0.62467622  0.12484626  1
  V  V17  1  0.00053739  0.87456715  0.87318919  1
  V  V18  1  0.49922670  0.75101365  0.74956055  1
  V  V19  1  0.50039478  0.37587694  0.87747941  1
  V  V20  1  0.75018855  0.75078325  0.50006723  1
  V  V21  1  0.62400160  0.37348515  0.24992402  1
  V  V22  1  0.12576624  0.12357691  0.50084596  1
  V  V23  1  0.74953321  0.62506101  0.37508489  1
  V  V24  1  0.87474516  0.12483591  0.25077630  1
  V  V25  1  0.49939425  0.37388616  0.37539330  1
  V  V26  1  0.74955831  0.24812335  0.50053391  1
  V  V27  1  0.74997493  0.87317681  0.62360512  1
  V  V28  1  0.24960313  0.25000099  0.50057275  1
  V  V29  1  0.87597615  0.24861276  0.62571148  1
  V  V30  1  0.37569298  0.24990525  0.62546545  1
  V  V31  1  0.49914598  0.00104123  0.49924665  1
  V  V32  1  0.75081308  0.50025650  0.74882534  1
  V  V33  1  -0.00041194  0.75009449  0.24937172  1
  V  V34  1  0.87530208  0.37425271  0.50005757  1
  V  V35  1  0.12441895  -0.00014245  0.12451700  1
  V  V36  1  0.24913660  0.37679316  0.12730186  1
  V  V37  1  0.37496836  0.87491167  -0.00034978  1
  V  V38  1  0.00067746  0.62545661  0.62570434  1
  V  V39  1  0.24974800  0.37390110  0.62595352  1
  V  V40  1  0.62388853  0.87475381  0.75021134  1
  V  V41  1  0.74926977  0.62571016  0.87455059  1
  V  V42  1  0.37588319  0.49995073  0.87384752  1
  V  V43  1  0.00076046  0.75014057  0.74938921  1
  V  V44  1  -0.00063914  0.24941276  0.25083290  1
  V  V45  1  0.74936139  0.74967015  -0.00092708  1
  V  V46  1  0.00002487  0.00039805  -0.00049357  1
  V  V47  1  0.37448003  0.87636956  0.49871305  1
  V  V48  1  0.37522569  0.62482560  0.74884852  1
  V  V49  1  0.62575679  0.49991313  0.62432349  1
  V  V50  1  0.87419650  0.37486180  0.00135775  1
  V  V51  1  0.74840104  0.49945858  0.25009683  1
  V  V52  1  -0.00064533  0.87538950  0.37469291  1
  V  V53  1  0.37389316  0.62485075  0.24969866  1
  V  V54  1  -0.00105839  0.12619651  0.12611392  1
  V  V55  1  0.24920675  -0.00050693  0.74976767  1
  V  V56  1  0.62442178  0.00029570  0.62503438  1
  V  V57  1  0.75039769  0.12529899  0.87525261  1
  V  V58  1  0.37195716  0.50160027  0.37481324  1
  V  V59  1  0.87417396  0.74957316  0.12458630  1
  V  V60  1  0.75006712  0.00009763  0.24990787  1
  V  V61  1  0.50045517  0.12524602  0.12681407  1
  V  V62  1  0.12494160  0.62526634  -0.00080543  1
  V  V63  1  0.50046696  0.75073821  0.25001444  1
  V  V64  1  0.87395175  0.62421937  0.25014403  1
  V  V65  1  0.24923853  0.87472635  0.12390135  1
  V  V66  1  0.62554343  0.00003111  0.12532420  1
  V  V67  1  0.50043977  0.50045747  0.50073974  1
  V  V68  1  0.87460279  0.49861575  0.37585505  1
  V  V69  1  0.00117130  0.24910522  0.74985479  1
  V  V70  1  0.87461925  0.87503116  -0.00064332  1
  V  V71  1  0.75122443  0.25019849  -0.00061860  1
  V  V72  1  0.62493368  0.62441386  0.49987958  1
  V  V73  1  0.62351144  0.75013515  0.37356581  1
  V  V74  1  0.87628811  0.12477934  0.74919447  1
  V  V75  1  0.74942662  0.87578098  0.12544018  1
  V  V76  1  0.12529962  0.49956225  0.12556384  1
  V  V77  1  0.62614762  0.24992669  0.87544524  1
  V  V78  1  0.75009417  -0.00098794  0.74953442  1
  V  V79  1  0.12500010  0.50004916  0.62555079  1
  V  V80  1  -0.00061101  0.50007878  -0.00015692  1
  V  V81  1  0.37488332  0.74940506  0.12448715  1
  V  V82  1  0.87546535  0.50069093  0.87529575  1
  V  V83  1  0.25077013  0.50017723  0.75064023  1
  V  V84  1  0.50058048  0.00020669  0.00087457  1
  V  V85  1  0.87516269  -0.00035478  0.87408949  1
  V  V86  1  0.25105805  0.12555506  0.87682220  1
  V  V87  1  0.24978179  0.25042654  0.00186200  1
  V  V88  1  -0.00013312  -0.00165223  0.49964237  1
  V  V89  1  0.12466538  0.25106713  0.37571648  1
  V  V90  1  0.37494042  0.00193954  0.87614434  1
  V  V91  1  0.49981988  0.62490795  0.12310328  1
  V  V92  1  0.50050714  0.24908851  0.75068224  1
  V  V93  1  0.12507986  0.37432248  0.75126852  1
  V  V94  1  0.12416280  0.87420818  0.24866651  1
  V  V95  1  0.87582540  0.62577588  0.74877006  1
  Zn  Zn96  1  0.24666550  0.50229904  0.25108959  1
  Zn  Zn97  1  0.87342261  -0.00236718  0.37536719  1
  Zn  Zn98  1  0.62389229  0.74961091  0.87416753  1
  Zn  Zn99  1  0.62763921  0.37594832  0.74997926  1
  Zn  Zn100  1  0.25034322  0.75274693  0.49790031  1
  Zn  Zn101  1  0.74838182  0.37328450  0.12527653  1
  Zn  Zn102  1  0.24943235  0.62708617  0.37319924  1
  Zn  Zn103  1  0.37585091  0.37851550  0.00207028  1
  Zn  Zn104  1  -0.00026803  0.49911093  0.50039115  1
  Zn  Zn105  1  0.49914618  0.50119605  -0.00095448  1
  Zn  Zn106  1  0.62338421  0.24880417  0.37590440  1
  Zn  Zn107  1  0.37383589  0.37569760  0.49960610  1
  Zn  Zn108  1  0.50025134  0.62397481  0.62445686  1
  Zn  Zn109  1  0.12538890  0.87457874  0.74661966  1
  Zn  Zn110  1  0.49992017  0.24731717  0.25235511  1
  Zn  Zn111  1  0.25330284  0.12719934  0.37371258  1
  Zn  Zn112  1  0.24878269  0.87767990  0.62423551  1
  Zn  Zn113  1  0.87324481  0.25081386  0.12630484  1
  Zn  Zn114  1  0.87617631  0.75088215  0.62264290  1
  Zn  Zn115  1  0.00060968  0.12204524  0.62545628  1
  Zn  Zn116  1  0.12324848  0.37639700  0.25176516  1
  Zn  Zn117  1  0.12536348  -0.00274724  0.62632245  1
  Zn  Zn118  1  0.25042480  0.62491145  0.87428459  1
  Zn  Zn119  1  0.62733308  0.12584645  0.00077317  1
  Zn  Zn120  1  0.00122419  0.37521681  0.87539084  1
  Zn  Zn121  1  0.49999481  0.87560437  0.37184191  1
  Zn  Zn122  1  0.50099497  0.12641422  0.62597026  1
  Zn  Zn123  1  0.37506025  0.00235994  0.37474338  1
  Zn  Zn124  1  0.37525452  0.12507325  0.75203551  1
  Zn  Zn125  1  0.37564356  0.12395472  0.25333768  1
  Zn  Zn126  1  0.87488084  0.87370017  0.49933191  1
  Zn  Zn127  1  0.62418719  0.87465451  0.25080945  1
  Zn  Zn128  1  0.18562863  0.18836366  0.18875450  1
  Zn  Zn129  1  0.18784908  0.18498450  0.68797104  1
  Zn  Zn130  1  0.18818917  0.68628452  0.18703286  1
  Zn  Zn131  1  0.18860475  0.68790819  0.68713915  1
  Zn  Zn132  1  0.68850153  0.18873767  0.18693625  1
  Zn  Zn133  1  0.68762852  0.18698624  0.68775353  1
  Zn  Zn134  1  0.68641016  0.68755514  0.18704910  1
  Zn  Zn135  1  0.68675234  0.68738867  0.68628553  1
  Zn  Zn136  1  0.31100307  0.31336464  0.31231968  1
  Zn  Zn137  1  0.31374109  0.31347502  0.81286595  1
  Zn  Zn138  1  0.31231743  0.81325604  0.31364702  1
  Zn  Zn139  1  0.31272000  0.81360174  0.81266169  1
  Zn  Zn140  1  0.81144702  0.31017510  0.31417068  1
  Zn  Zn141  1  0.81440625  0.31301786  0.81312947  1
  Zn  Zn142  1  0.81228307  0.81355138  0.31351597  1
  Zn  Zn143  1  0.81295929  0.81126715  0.81104651  1
  Zn  Zn144  1  0.18647927  0.43631352  0.43984441  1
  Zn  Zn145  1  0.18920488  0.43755700  0.93854931  1
  Zn  Zn146  1  0.18700025  0.93636218  0.43573069  1
  Zn  Zn147  1  0.18663273  0.93693415  0.93539086  1
  Zn  Zn148  1  0.68798615  0.43674507  0.43843260  1
  Zn  Zn149  1  0.68720699  0.43790056  0.93680547  1
  Zn  Zn150  1  0.68580913  0.93587599  0.43606609  1
  Zn  Zn151  1  0.68619698  0.93784817  0.93774453  1
  Zn  Zn152  1  0.31318467  0.06317881  0.06431102  1
  Zn  Zn153  1  0.31309758  0.06546121  0.56444651  1
  Zn  Zn154  1  0.31283836  0.56198446  0.05980952  1
  Zn  Zn155  1  0.31160053  0.56305584  0.56218160  1
  Zn  Zn156  1  0.81340176  0.06371109  0.06301473  1
  Zn  Zn157  1  0.81372652  0.06053955  0.56257944  1
  Zn  Zn158  1  0.80989832  0.56115168  0.06334859  1
  Zn  Zn159  1  0.81317971  0.56309283  0.56218805  1
  Zn  Zn160  1  0.43748707  0.43916201  0.18907108  1
  Zn  Zn161  1  0.43873419  0.43597567  0.68844183  1
  Zn  Zn162  1  0.43760118  0.93582512  0.18700779  1
  Zn  Zn163  1  0.43574262  0.93829853  0.68671713  1
  Zn  Zn164  1  0.93762833  0.43686348  0.18822766  1
  Zn  Zn165  1  0.93916207  0.43707249  0.68746797  1
  Zn  Zn166  1  0.93576641  0.93871556  0.18745073  1
  Zn  Zn167  1  0.93721403  0.93536367  0.68434446  1
  Zn  Zn168  1  0.06377380  0.06321324  0.31427990  1
  Zn  Zn169  1  0.06399394  0.06345004  0.81308971  1
  Zn  Zn170  1  0.06089582  0.56066349  0.31260319  1
  Zn  Zn171  1  0.06268002  0.56291590  0.81318576  1
  Zn  Zn172  1  0.56472031  0.06110975  0.31332990  1
  Zn  Zn173  1  0.56387339  0.06362741  0.81372997  1
  Zn  Zn174  1  0.56046627  0.56270234  0.31196961  1
  Zn  Zn175  1  0.56291175  0.56348125  0.81002456  1
  Zn  Zn176  1  0.43538946  0.18572235  0.43773569  1
  Zn  Zn177  1  0.43697267  0.18811339  0.94138274  1
  Zn  Zn178  1  0.43927700  0.68728026  0.43729009  1
  Zn  Zn179  1  0.43740319  0.68724193  0.93543878  1
  Zn  Zn180  1  0.93695491  0.18529478  0.43678376  1
  Zn  Zn181  1  0.93800121  0.18822728  0.93616234  1
  Zn  Zn182  1  0.93775280  0.68799813  0.43812225  1
  Zn  Zn183  1  0.93740472  0.68764169  0.93630811  1
  Zn  Zn184  1  0.06152476  0.31287511  0.06388373  1
  Zn  Zn185  1  0.06168428  0.31154059  0.56331990  1
  Zn  Zn186  1  0.06185352  0.81208868  0.06098798  1
  Zn  Zn187  1  0.06491556  0.81351776  0.56407764  1
  Zn  Zn188  1  0.56399506  0.31115179  0.06199658  1
  Zn  Zn189  1  0.56406912  0.31410776  0.56226199  1
  Zn  Zn190  1  0.56361829  0.81209426  0.06253762  1
  Zn  Zn191  1  0.56186374  0.81282185  0.56195107  1
  O  O192  1  0.11888953  0.11972228  0.11928322  1
  O  O193  1  0.12355331  0.12337975  0.61188054  1
  O  O194  1  0.11841948  0.62043637  0.11900823  1
  O  O195  1  0.12080472  0.62031648  0.61793685  1
  O  O196  1  0.61579795  0.12021990  0.12369934  1
  O  O197  1  0.62421911  0.11797404  0.61901071  1
  O  O198  1  0.61960136  0.61984998  0.11946457  1
  O  O199  1  0.62383592  0.61769807  0.61738805  1
  O  O200  1  0.38371529  0.38371973  0.37421042  1
  O  O201  1  0.38494201  0.37998670  0.87629342  1
  O  O202  1  0.37817947  0.87750471  0.38683107  1
  O  O203  1  0.38081796  0.88166612  0.88118695  1
  O  O204  1  0.87850717  0.37924612  0.38094087  1
  O  O205  1  0.87668001  0.38179482  0.88563342  1
  O  O206  1  0.88399039  0.87707174  0.37711144  1
  O  O207  1  0.88005199  0.88047042  0.88010118  1
  O  O208  1  0.24935084  0.00015947  0.36107502  1
  O  O209  1  0.25535690  0.00595638  0.87027122  1
  O  O210  1  0.26190230  0.49892901  0.37473166  1
  O  O211  1  0.25728435  0.49998828  0.86796055  1
  O  O212  1  0.74981734  0.00620619  0.36844359  1
  O  O213  1  0.75578814  0.00434486  0.86937474  1
  O  O214  1  0.75458361  0.50551686  0.36990424  1
  O  O215  1  0.75577415  0.50612194  0.86901570  1
  O  O216  1  0.24514437  0.49095731  0.12394477  1
  O  O217  1  0.24501711  0.49373300  0.63080869  1
  O  O218  1  0.24378902  0.99412505  0.13073264  1
  O  O219  1  0.25136705  1.00204868  0.63869786  1
  O  O220  1  0.74192313  0.49761482  0.13274364  1
  O  O221  1  0.74616630  0.49455203  0.62945449  1
  O  O222  1  0.74530068  0.99567527  0.12921258  1
  O  O223  1  0.74413504  0.99400888  0.63066431  1
  O  O224  1  -0.00059797  0.36764286  0.25705537  1
  O  O225  1  0.00731527  0.36796851  0.75229324  1
  O  O226  1  0.00510453  0.86971543  0.25275473  1
  O  O227  1  0.00035939  0.86897806  0.75664367  1
  O  O228  1  0.50808533  0.37602982  0.25930226  1
  O  O229  1  0.50190408  0.36461896  0.76017808  1
  O  O230  1  0.50196572  0.86643737  0.25043621  1
  O  O231  1  0.50417825  0.87170581  0.75499619  1
  O  O232  1  0.49900008  0.12531127  0.23846221  1
  O  O233  1  0.49851720  0.13797043  0.74989197  1
  O  O234  1  0.49351051  0.63032838  0.24295263  1
  O  O235  1  0.49324004  0.63207974  0.74668291  1
  O  O236  1  0.99543366  0.12933880  0.24584844  1
  O  O237  1  0.99433672  0.13017366  0.74876190  1
  O  O238  1  0.99338172  0.63033472  0.24424368  1
  O  O239  1  0.99534008  0.63002424  0.74536721  1
  O  O240  1  0.36884578  0.25225111  0.01284140  1
  O  O241  1  0.36969942  0.25236246  0.51024525  1
  O  O242  1  0.36951932  0.75535254  0.00478886  1
  O  O243  1  0.37640929  0.75826104  0.50715716  1
  O  O244  1  0.87067377  0.25983527  -0.00099654  1
  O  O245  1  0.86950205  0.25391799  0.50584730  1
  O  O246  1  0.86990541  0.75515150  0.00528104  1
  O  O247  1  0.86616258  0.75107979  0.50136488  1
  O  O248  1  0.12898754  0.24206151  0.49632126  1
  O  O249  1  0.13005817  0.24468459  0.99590968  1
  O  O250  1  0.12590654  0.74097372  0.49389135  1
  O  O251  1  0.12935036  0.74464876  0.99504700  1
  O  O252  1  0.63175139  0.24327119  0.50016406  1
  O  O253  1  0.63297965  0.24860304  0.99301701  1
  O  O254  1  0.62927707  0.74375943  0.49429053  1
  O  O255  1  0.63213655  0.74346703  0.99831100  1
  O  O256  1  0.49233267  0.24259792  0.12511967  1
  O  O257  1  0.49315838  0.25295882  0.63389165  1
  O  O258  1  0.49374138  0.74456193  0.12907376  1
  O  O259  1  0.48888837  0.75003452  0.63020916  1
  O  O260  1  0.99837553  0.24314234  0.13171177  1
  O  O261  1  0.99345216  0.24722973  0.63192259  1
  O  O262  1  0.99383031  0.74459895  0.12946673  1
  O  O263  1  0.99944317  0.74306994  0.63171840  1
  O  O264  1  0.00451419  0.25463359  0.37065180  1
  O  O265  1  0.00813583  0.25105480  0.86835124  1
  O  O266  1  0.00548008  0.75457763  0.36768614  1
  O  O267  1  0.00488104  0.75501017  0.86987437  1
  O  O268  1  0.49962919  0.26189071  0.37391101  1
  O  O269  1  0.50372599  0.25619655  0.86974605  1
  O  O270  1  0.50627345  0.74959072  0.36741930  1
  O  O271  1  0.49985666  0.75852964  0.86762972  1
  O  O272  1  0.24106833  0.13055025  0.49898834  1
  O  O273  1  0.24384169  0.13017191  0.99741106  1
  O  O274  1  0.23659644  0.62692068  0.49868188  1
  O  O275  1  0.24284938  0.63224853  0.99866627  1
  O  O276  1  0.74508593  0.12825110  0.49550159  1
  O  O277  1  0.75154406  0.13160434  0.99237340  1
  O  O278  1  0.74436228  0.62966237  0.49363017  1
  O  O279  1  0.74523653  0.63010984  0.99464419  1
  O  O280  1  0.25156080  0.36885258  0.01177873  1
  O  O281  1  0.25087722  0.36769270  0.50875787  1
  O  O282  1  0.25494027  0.87031118  0.00467469  1
  O  O283  1  0.26239203  0.87614364  0.50160386  1
  O  O284  1  0.75911792  0.37023789  -0.00017068  1
  O  O285  1  0.75575872  0.36866509  0.50546417  1
  O  O286  1  0.75603738  0.87041966  0.00474146  1
  O  O287  1  0.74915194  0.86882336  0.50602784  1
  O  O288  1  0.12641676  0.49753939  0.24163209  1
  O  O289  1  0.13068764  0.49487038  0.74546080  1
  O  O290  1  0.13120201  0.99414896  0.24366721  1
  O  O291  1  0.13646686  0.99985665  0.75060407  1
  O  O292  1  0.62856629  0.49279027  0.24560107  1
  O  O293  1  0.63318399  0.49905745  0.74268990  1
  O  O294  1  0.63217226  0.99809256  0.24254383  1
  O  O295  1  0.63032515  0.99509183  0.74521951  1
  O  O296  1  0.36258232  -0.00138105  0.24895285  1
  O  O297  1  0.36805057  0.00325593  0.75761291  1
  O  O298  1  0.37452738  0.50635769  0.26014495  1
  O  O299  1  0.37033985  0.50438369  0.75354931  1
  O  O300  1  0.86814390  0.00705424  0.25110125  1
  O  O301  1  0.86983275  0.00439429  0.75498364  1
  O  O302  1  0.86854519  0.50480245  0.25520555  1
  O  O303  1  0.87069175  0.50561165  0.75537352  1
  O  O304  1  0.11726181  0.36900625  0.37521908  1
  O  O305  1  0.12526793  0.36840166  0.86939873  1
  O  O306  1  0.11893549  0.86828596  0.36767685  1
  O  O307  1  0.11715960  0.86789302  0.87424516  1
  O  O308  1  0.61531528  0.37691376  0.36717139  1
  O  O309  1  0.61657296  0.36960392  0.87271311  1
  O  O310  1  0.62163024  0.86541935  0.37180237  1
  O  O311  1  0.61791801  0.87449213  0.86821778  1
  O  O312  1  0.38334923  0.13316738  0.12655945  1
  O  O313  1  0.37776807  0.13982614  0.62829687  1
  O  O314  1  0.37985076  0.63062461  0.12872403  1
  O  O315  1  0.37678028  0.63429565  0.62894002  1
  O  O316  1  0.88241457  0.12611259  0.13190697  1
  O  O317  1  0.87576709  0.13094499  0.63201293  1
  O  O318  1  0.87933029  0.62955492  0.13024868  1
  O  O319  1  0.88212181  0.62559373  0.63138921  1
  O  O320  1  0.25596528  0.25673489  0.12187740  1
  O  O321  1  0.25756133  0.25437005  0.62230182  1
  O  O322  1  0.25481939  0.75573142  0.11880584  1
  O  O323  1  0.26380751  0.75243329  0.62347010  1
  O  O324  1  0.75291263  0.25355393  0.11626717  1
  O  O325  1  0.75634693  0.25507207  0.62074837  1
  O  O326  1  0.75578107  0.75459482  0.11922585  1
  O  O327  1  0.74958259  0.75587529  0.61781142  1
  O  O328  1  0.24346094  0.25111218  0.38225518  1
  O  O329  1  0.24602703  0.24588133  0.88165460  1
  O  O330  1  0.24103817  0.74794770  0.37693496  1
  O  O331  1  0.24417264  0.74933287  0.88146215  1
  O  O332  1  0.74722808  0.24269282  0.38339726  1
  O  O333  1  0.74598969  0.24491971  0.87883810  1
  O  O334  1  0.74415893  0.74343467  0.37909709  1
  O  O335  1  0.74882042  0.74375374  0.88125922  1
  O  O336  1  0.00486172  0.11963987  0.00475440  1
  O  O337  1  0.00890625  0.11612457  0.49922963  1
  O  O338  1  0.00406279  0.62019419  0.00608986  1
  O  O339  1  0.01083876  0.62400216  0.50550635  1
  O  O340  1  0.50123207  0.11941522  0.01138073  1
  O  O341  1  0.50561723  0.11654314  0.50242427  1
  O  O342  1  0.50671126  0.62546875  0.00557123  1
  O  O343  1  0.50753306  0.61778915  0.50115290  1
  O  O344  1  0.49956468  0.38101274  0.48935060  1
  O  O345  1  0.49930662  0.37555419  0.98767119  1
  O  O346  1  0.49168728  0.88500821  0.50039743  1
  O  O347  1  0.49418757  0.88033185  0.99543600  1
  O  O348  1  0.99264450  0.37518333  0.49421284  1
  O  O349  1  0.99115608  0.38101543  0.99911423  1
  O  O350  1  1.00214497  0.88363294  0.49311529  1
  O  O351  1  0.99383796  0.88055413  0.99454847  1
  O  O352  1  0.49161180  0.49310031  0.37964967  1
  O  O353  1  0.49576359  0.48964707  0.87228801  1
  O  O354  1  0.49933430  0.99834501  0.38800274  1
  O  O355  1  0.49496271  0.99618280  0.88080221  1
  O  O356  1  0.99149834  0.49267948  0.37624246  1
  O  O357  1  0.99335223  0.49916598  0.88220593  1
  O  O358  1  1.00089529  0.99355558  0.38340309  1
  O  O359  1  0.99466281  0.99550911  0.88051769  1
  O  O360  1  0.00533669  0.00507345  0.11892589  1
  O  O361  1  0.00294477  0.00097660  0.61306316  1
  O  O362  1  0.00438575  0.50585486  0.11978185  1
  O  O363  1  0.00773392  0.50679878  0.62427961  1
  O  O364  1  0.50395647  0.00719031  0.12056327  1
  O  O365  1  0.50493646  0.00252955  0.61625764  1
  O  O366  1  0.50546247  0.50713447  0.12347283  1
  O  O367  1  0.50661385  0.49871608  0.61857727  1
  O  O368  1  0.24725931  0.37697053  0.23725556  1
  O  O369  1  0.24444978  0.37974322  0.74499180  1
  O  O370  1  0.24379683  0.88141572  0.24290853  1
  O  O371  1  0.24991060  0.88866140  0.75144747  1
  O  O372  1  0.73933957  0.38041308  0.25158903  1
  O  O373  1  0.75130557  0.38199371  0.74372871  1
  O  O374  1  0.75004507  0.88114773  0.24201521  1
  O  O375  1  0.74419210  0.88024709  0.74521237  1
  O  O376  1  0.24969794  0.11260218  0.24846780  1
  O  O377  1  0.25163096  0.11741224  0.75896680  1
  O  O378  1  0.25803467  0.62227420  0.25190177  1
  O  O379  1  0.25713927  0.61741856  0.75069741  1
  O  O380  1  0.75447168  0.12011236  0.25489770  1
  O  O381  1  0.75594465  0.11875931  0.75556995  1
  O  O382  1  0.75484303  0.61947883  0.25533001  1
  O  O383  1  0.75576367  0.62006843  0.75444212  1
  O  O384  1  0.37058882  0.12085756  0.37030857  1
  O  O385  1  0.36845915  0.11973318  0.87737493  1
  O  O386  1  0.37483791  0.61567364  0.37025165  1
  O  O387  1  0.37405835  0.61831925  0.86669158  1
  O  O388  1  0.86753002  0.12220651  0.36840119  1
  O  O389  1  0.87049540  0.11874957  0.86898179  1
  O  O390  1  0.86965059  0.61933425  0.36911399  1
  O  O391  1  0.86933421  0.61972500  0.86963493  1
  O  O392  1  0.13375712  0.38033791  0.12540069  1
  O  O393  1  0.13016606  0.37945819  0.63128513  1
  O  O394  1  0.12923632  0.87982951  0.12872325  1
  O  O395  1  0.13197619  0.87883985  0.62878272  1
  O  O396  1  0.62313674  0.38081866  0.13497141  1
  O  O397  1  0.63356080  0.38167209  0.62632136  1
  O  O398  1  0.63242851  0.88166626  0.12549086  1
  O  O399  1  0.62930431  0.88107516  0.63080853  1
  O  O400  1  0.11751035  0.25118413  0.25780623  1
  O  O401  1  0.12166211  0.25436610  0.75539404  1
  O  O402  1  0.11839036  0.75441107  0.25283145  1
  O  O403  1  0.11903981  0.74996346  0.75676224  1
  O  O404  1  0.62252062  0.26187283  0.25246546  1
  O  O405  1  0.61655491  0.25195864  0.75544076  1
  O  O406  1  0.61832566  0.74925628  0.25531864  1
  O  O407  1  0.61756473  0.75686233  0.75014417  1
  O  O408  1  0.37603290  0.24891160  0.23749304  1
  O  O409  1  0.38352225  0.24982936  0.74315144  1
  O  O410  1  0.37952492  0.74531369  0.24353824  1
  O  O411  1  0.37920611  0.74667811  0.74217417  1
  O  O412  1  0.88075985  0.24314257  0.24905380  1
  O  O413  1  0.88075390  0.24422811  0.74580606  1
  O  O414  1  0.87968087  0.74371147  0.24405885  1
  O  O415  1  0.88230389  0.74245053  0.74873323  1
  O  O416  1  0.38027594  0.49880233  0.49132860  1
  O  O417  1  0.37921613  0.49818522  0.99059515  1
  O  O418  1  0.38304761  0.99373111  0.50260410  1
  O  O419  1  0.37995804  0.99408902  0.99639091  1
  O  O420  1  0.87562278  0.49291268  0.49348562  1
  O  O421  1  0.87884431  0.49381839  0.99568684  1
  O  O422  1  0.88773083  0.99869599  0.49717729  1
  O  O423  1  0.88043510  0.99469713  0.99398981  1
  O  O424  1  0.11963223  0.00559829  0.00463013  1
  O  O425  1  0.11838250  0.00804060  0.49878108  1
  O  O426  1  0.11920893  0.50533580  0.00533450  1
  O  O427  1  0.12348125  0.50882096  0.50683972  1
  O  O428  1  0.61839945  0.00251876  0.00678347  1
  O  O429  1  0.61687067  0.00401087  0.50569136  1
  O  O430  1  0.62360491  0.50670270  0.00625451  1
  O  O431  1  0.62094298  0.50509188  0.50445711  1
  O  O432  1  0.36813818  0.36804867  0.12518393  1
  O  O433  1  0.36928690  0.36483997  0.62520509  1
  O  O434  1  0.36907479  0.86871782  0.11816914  1
  O  O435  1  0.37446228  0.86716707  0.61614819  1
  O  O436  1  0.87262981  0.37523806  0.11247961  1
  O  O437  1  0.87043533  0.36912473  0.61993472  1
  O  O438  1  0.87010516  0.86941566  0.11862955  1
  O  O439  1  0.86528039  0.87178760  0.62145446  1
  O  O440  1  0.12728622  0.13168247  0.38581013  1
  O  O441  1  0.13100629  0.13123337  0.88242317  1
  O  O442  1  0.12380976  0.62898037  0.38328211  1
  O  O443  1  0.12637131  0.63155492  0.88218539  1
  O  O444  1  0.63101932  0.12712250  0.38234918  1
  O  O445  1  0.63267562  0.13141888  0.87730627  1
  O  O446  1  0.63064774  0.62876766  0.37966176  1
  O  O447  1  0.63168397  0.62627316  0.88045758  1
