# generated using pymatgen
data_V3Zn3O8
_symmetry_space_group_name_H-M   'P 1'
_cell_length_a   17.08782905
_cell_length_b   17.09058119
_cell_length_c   17.08947993
_cell_angle_alpha   90.00467488
_cell_angle_beta   89.98916315
_cell_angle_gamma   90.01237298
_symmetry_Int_Tables_number   1
_chemical_formula_structural   V3Zn3O8
_chemical_formula_sum   'V96 Zn96 O256'
_cell_volume   4990.82738390
_cell_formula_units_Z   32
loop_
 _symmetry_equiv_pos_site_id
 _symmetry_equiv_pos_as_xyz
  1  'x, y, z'
loop_
 _atom_site_type_symbol
 _atom_site_label
 _atom_site_symmetry_multiplicity
 _atom_site_fract_x
 _atom_site_fract_y
 _atom_site_fract_z
 _atom_site_occupancy
  V  V0  1  0.12402003  0.49981196  0.12472203  1
  V  V1  1  0.74912448  0.50116891  0.74879704  1
  V  V2  1  0.25000141  0.87440522  0.12664153  1
  V  V3  1  0.74846463  0.37517602  0.12449772  1
  V  V4  1  -0.00051231  0.12620824  0.62621978  1
  V  V5  1  0.12409781  0.74933951  0.37639720  1
  V  V6  1  0.24812723  0.49690651  0.74956692  1
  V  V7  1  0.62496564  0.62558270  0.49952482  1
  V  V8  1  0.87644621  0.74933706  0.12529693  1
  V  V9  1  0.49992784  -0.00011055  0.49915286  1
  V  V10  1  0.37447335  0.62478286  0.25110885  1
  V  V11  1  0.00060800  0.62392293  0.62557190  1
  V  V12  1  0.87446208  0.37569750  -0.00144336  1
  V  V13  1  0.49964315  0.12400690  0.12364583  1
  V  V14  1  0.75130186  0.75041990  -0.00058809  1
  V  V15  1  0.37600487  0.49997488  0.87707647  1
  V  V16  1  -0.00084297  0.49958922  -0.00052298  1
  V  V17  1  -0.00007330  0.49984925  0.50064599  1
  V  V18  1  0.12498411  0.87378501  0.25197249  1
  V  V19  1  0.49979561  0.87539187  0.37488101  1
  V  V20  1  0.12519403  0.00066268  0.62547340  1
  V  V21  1  0.62605712  0.87600132  0.24851912  1
  V  V22  1  0.87574116  0.62593383  0.74963981  1
  V  V23  1  0.37490607  0.37451003  0.49979573  1
  V  V24  1  0.25149963  -0.00038988  0.74983767  1
  V  V25  1  0.49996333  0.37442822  0.37436791  1
  V  V26  1  0.75117102  0.00294170  0.74931932  1
  V  V27  1  0.24945424  -0.00043850  0.25103910  1
  V  V28  1  0.87597445  0.87534368  -0.00033740  1
  V  V29  1  0.24954690  0.50011233  0.25074169  1
  V  V30  1  0.62487345  0.49982571  0.62511330  1
  V  V31  1  0.49981233  0.24977315  0.25019686  1
  V  V32  1  0.12424304  0.12338437  0.00119643  1
  V  V33  1  0.87475725  0.25058314  0.62594105  1
  V  V34  1  0.25009088  0.37447835  0.12503077  1
  V  V35  1  0.00111359  0.87573661  0.87490657  1
  V  V36  1  0.24958416  0.25015140  0.00076517  1
  V  V37  1  0.62462544  0.62546489  0.00061012  1
  V  V38  1  0.62388255  0.25143722  0.87357384  1
  V  V39  1  0.25034561  0.74867654  0.50186959  1
  V  V40  1  0.37541555  0.74957804  0.62587469  1
  V  V41  1  0.37613086  0.62550787  0.75089744  1
  V  V42  1  0.50088758  0.62496954  0.12504788  1
  V  V43  1  0.87549332  0.24913868  0.12459158  1
  V  V44  1  0.12590315  0.87505336  0.75030449  1
  V  V45  1  -0.00135084  0.62573436  0.12614275  1
  V  V46  1  0.00055853  0.74929521  0.74958633  1
  V  V47  1  0.87394157  0.37470159  0.49951706  1
  V  V48  1  0.25094860  0.87386961  0.62505670  1
  V  V49  1  0.37592803  0.12477708  0.74929503  1
  V  V50  1  0.25033571  0.25081644  0.49979837  1
  V  V51  1  0.37627222  0.87573538  0.00017627  1
  V  V52  1  0.62462918  0.12437647  0.49907077  1
  V  V53  1  -0.00082872  0.37446099  0.37476585  1
  V  V54  1  0.37680078  -0.00038810  0.87595254  1
  V  V55  1  0.37462360  0.75031310  0.12591503  1
  V  V56  1  0.12396468  0.25142681  0.87315315  1
  V  V57  1  -0.00180085  0.24881887  0.24838618  1
  V  V58  1  0.12410180  0.24940858  0.37447356  1
  V  V59  1  0.49978977  0.62589115  0.62563944  1
  V  V60  1  0.25140639  0.62505008  0.87635457  1
  V  V61  1  0.75040598  0.62611643  0.87452755  1
  V  V62  1  0.49924064  0.37546081  0.87546373  1
  V  V63  1  0.74976212  0.74978964  0.49887176  1
  V  V64  1  0.74946318  0.25124866  -0.00141957  1
  V  V65  1  0.62634768  0.75125547  0.87416292  1
  V  V66  1  0.12548801  0.62480806  0.00102708  1
  V  V67  1  0.87524913  0.50029245  0.87508925  1
  V  V68  1  0.37499311  0.12497185  0.24893935  1
  V  V69  1  0.75053967  0.12411474  0.37214843  1
  V  V70  1  0.87490211  -0.00072213  0.37511850  1
  V  V71  1  0.37460035  0.24951959  0.62450160  1
  V  V72  1  0.25082203  0.74966395  0.00132849  1
  V  V73  1  0.49971934  0.75035637  0.25119645  1
  V  V74  1  0.24953053  0.62407031  0.37563167  1
  V  V75  1  0.12436331  0.62270034  0.50143777  1
  V  V76  1  0.12403204  -0.00064964  0.12525676  1
  V  V77  1  -0.00014673  0.87434868  0.37781405  1
  V  V78  1  0.37479934  -0.00054925  0.37544119  1
  V  V79  1  0.62387206  0.37440992  0.24922891  1
  V  V80  1  0.12618462  0.75064338  0.87565931  1
  V  V81  1  0.74991011  0.24935623  0.49886827  1
  V  V82  1  0.24917883  0.12462979  0.37440109  1
  V  V83  1  0.75234676  0.87568069  0.62330836  1
  V  V84  1  0.62435833  0.87500818  0.75098892  1
  V  V85  1  0.12440144  0.37451022  0.24940878  1
  V  V86  1  0.74982760  0.50135506  0.25010719  1
  V  V87  1  0.37494332  0.37460334  0.00035384  1
  V  V88  1  0.62470655  0.12470779  -0.00192203  1
  V  V89  1  0.87666734  0.00232159  0.87475916  1
  V  V90  1  0.75035075  0.87525572  0.12493304  1
  V  V91  1  0.12499296  0.12499226  0.50050276  1
  V  V92  1  0.49937864  0.49930195  0.49968859  1
  V  V93  1  0.62343351  0.37591610  0.74951862  1
  V  V94  1  0.87381806  0.50081820  0.37480582  1
  V  V95  1  0.49997359  0.12480693  0.62322739  1
  Zn  Zn96  1  -0.00290679  0.12162690  0.12689020  1
  Zn  Zn97  1  0.50011010  0.75036103  0.75112255  1
  Zn  Zn98  1  0.24855442  0.37420277  0.62513171  1
  Zn  Zn99  1  0.87456628  0.62699203  0.25175197  1
  Zn  Zn100  1  0.75061964  0.12779290  0.87332054  1
  Zn  Zn101  1  0.25067460  0.12537254  0.87452665  1
  Zn  Zn102  1  0.50157015  0.87378182  0.87745160  1
  Zn  Zn103  1  0.37347275  0.24994026  0.12447885  1
  Zn  Zn104  1  0.12247054  0.37392065  0.74777070  1
  Zn  Zn105  1  0.50217455  -0.00237921  -0.00068929  1
  Zn  Zn106  1  0.62335107  0.50040750  0.12367071  1
  Zn  Zn107  1  0.50132800  0.49984572  0.00227341  1
  Zn  Zn108  1  0.75068108  0.00083880  0.24633303  1
  Zn  Zn109  1  0.00037375  -0.00078952  0.00273847  1
  Zn  Zn110  1  0.37596133  0.87413585  0.50054027  1
  Zn  Zn111  1  -0.00100515  0.25409485  0.75144313  1
  Zn  Zn112  1  -0.00075593  -0.00070067  0.50173691  1
  Zn  Zn113  1  0.49920864  0.25022627  0.74851354  1
  Zn  Zn114  1  0.62735706  -0.00026369  0.12199000  1
  Zn  Zn115  1  0.87515701  0.12903380  0.75200972  1
  Zn  Zn116  1  0.74845312  0.37533276  0.62381342  1
  Zn  Zn117  1  -0.00012092  0.37523897  0.87274674  1
  Zn  Zn118  1  0.74916266  0.62671684  0.37384153  1
  Zn  Zn119  1  0.12486122  0.49577175  0.62591255  1
  Zn  Zn120  1  0.87709966  0.75049639  0.62435747  1
  Zn  Zn121  1  0.37460811  0.49961642  0.37564773  1
  Zn  Zn122  1  0.62501351  0.00101479  0.62401236  1
  Zn  Zn123  1  0.87527070  0.12347964  0.24668243  1
  Zn  Zn124  1  -0.00225336  0.74704729  0.25211775  1
  Zn  Zn125  1  0.87577305  0.87411772  0.50062568  1
  Zn  Zn126  1  0.62424784  0.74935597  0.37548534  1
  Zn  Zn127  1  0.62544026  0.24929366  0.37404200  1
  Zn  Zn128  1  0.18605517  0.18731675  0.18655198  1
  Zn  Zn129  1  0.18980346  0.18688386  0.68811439  1
  Zn  Zn130  1  0.18583398  0.68745218  0.18950407  1
  Zn  Zn131  1  0.18762438  0.68456104  0.68788901  1
  Zn  Zn132  1  0.68692525  0.18897997  0.18657022  1
  Zn  Zn133  1  0.68551856  0.18865878  0.68578218  1
  Zn  Zn134  1  0.68768534  0.68851763  0.18642729  1
  Zn  Zn135  1  0.68790072  0.68844052  0.68541873  1
  Zn  Zn136  1  0.31386589  0.31207251  0.31247056  1
  Zn  Zn137  1  0.31223282  0.31120089  0.81394353  1
  Zn  Zn138  1  0.31247478  0.81159357  0.31478648  1
  Zn  Zn139  1  0.31352228  0.81273228  0.81260378  1
  Zn  Zn140  1  0.81260970  0.31232412  0.31104424  1
  Zn  Zn141  1  0.80968896  0.31543093  0.81161821  1
  Zn  Zn142  1  0.81299722  0.81214934  0.31187763  1
  Zn  Zn143  1  0.81395443  0.81351502  0.81197531  1
  Zn  Zn144  1  0.18705440  0.43689360  0.43719919  1
  Zn  Zn145  1  0.18812657  0.43625765  0.93705786  1
  Zn  Zn146  1  0.18738788  0.93734469  0.44041587  1
  Zn  Zn147  1  0.19060464  0.93793499  0.93821622  1
  Zn  Zn148  1  0.68615652  0.43661561  0.43626994  1
  Zn  Zn149  1  0.68607644  0.43946800  0.93684346  1
  Zn  Zn150  1  0.68559604  0.93815403  0.43581836  1
  Zn  Zn151  1  0.69038956  0.93882874  0.93669593  1
  Zn  Zn152  1  0.31102322  0.06210043  0.06240322  1
  Zn  Zn153  1  0.31328537  0.06247902  0.56171014  1
  Zn  Zn154  1  0.31385706  0.56130583  0.06410867  1
  Zn  Zn155  1  0.31329206  0.56153507  0.56400830  1
  Zn  Zn156  1  0.81118168  0.06287401  0.06171673  1
  Zn  Zn157  1  0.81356104  0.06299240  0.55973315  1
  Zn  Zn158  1  0.81190061  0.56287443  0.06342299  1
  Zn  Zn159  1  0.81310205  0.56359572  0.56325687  1
  Zn  Zn160  1  0.43679837  0.43892575  0.18676074  1
  Zn  Zn161  1  0.43620743  0.43707448  0.68733616  1
  Zn  Zn162  1  0.43857517  0.93884226  0.18735959  1
  Zn  Zn163  1  0.43809289  0.93839418  0.68596381  1
  Zn  Zn164  1  0.93577403  0.43684361  0.18649885  1
  Zn  Zn165  1  0.93897256  0.43653862  0.68864905  1
  Zn  Zn166  1  0.93838854  0.93600929  0.18988733  1
  Zn  Zn167  1  0.93820018  0.93832292  0.68892289  1
  Zn  Zn168  1  0.06065175  0.06222399  0.31167036  1
  Zn  Zn169  1  0.06299330  0.06504726  0.81190293  1
  Zn  Zn170  1  0.06089043  0.56241776  0.31260968  1
  Zn  Zn171  1  0.06295720  0.56287856  0.81361496  1
  Zn  Zn172  1  0.56315420  0.06104286  0.31152585  1
  Zn  Zn173  1  0.56103817  0.06278088  0.81138541  1
  Zn  Zn174  1  0.56359388  0.56194899  0.31414483  1
  Zn  Zn175  1  0.56192788  0.56253247  0.81382409  1
  Zn  Zn176  1  0.43749734  0.18793745  0.43635777  1
  Zn  Zn177  1  0.43768018  0.18899327  0.93625283  1
  Zn  Zn178  1  0.43701115  0.68760979  0.43781011  1
  Zn  Zn179  1  0.44061958  0.68917031  0.93721907  1
  Zn  Zn180  1  0.93714884  0.18678925  0.43821527  1
  Zn  Zn181  1  0.93954920  0.18743656  0.93934091  1
  Zn  Zn182  1  0.93451180  0.68633401  0.43896246  1
  Zn  Zn183  1  0.93862990  0.68730993  0.93762959  1
  Zn  Zn184  1  0.06068864  0.31196081  0.06117133  1
  Zn  Zn185  1  0.06378942  0.31426397  0.56354202  1
  Zn  Zn186  1  0.06161490  0.81253655  0.06316709  1
  Zn  Zn187  1  0.06387758  0.81102077  0.56312063  1
  Zn  Zn188  1  0.56134785  0.31189384  0.06255864  1
  Zn  Zn189  1  0.56234492  0.31134101  0.56154528  1
  Zn  Zn190  1  0.56226849  0.81123228  0.06258317  1
  Zn  Zn191  1  0.56318329  0.81329352  0.56346779  1
  O  O192  1  0.12467038  0.11815238  0.11646616  1
  O  O193  1  0.11773009  0.12113109  0.62072197  1
  O  O194  1  0.12026495  0.61949279  0.11976315  1
  O  O195  1  0.11835748  0.62191578  0.61884482  1
  O  O196  1  0.61726225  0.12533765  0.11525220  1
  O  O197  1  0.61866471  0.12311065  0.61733346  1
  O  O198  1  0.61851730  0.62654228  0.11816895  1
  O  O199  1  0.61928153  0.61968975  0.62001839  1
  O  O200  1  0.38184731  0.37624319  0.38127986  1
  O  O201  1  0.37965409  0.38012762  0.88099605  1
  O  O202  1  0.38118076  0.88196604  0.37573990  1
  O  O203  1  0.37591805  0.88317262  0.88049913  1
  O  O204  1  0.88033769  0.37976755  0.38023755  1
  O  O205  1  0.87412085  0.38297334  0.88160226  1
  O  O206  1  0.88325810  0.88200056  0.37601809  1
  O  O207  1  0.88050671  0.88329612  0.87899104  1
  O  O208  1  0.25384146  0.00507972  0.37031340  1
  O  O209  1  0.26108927  -0.00001884  0.86870077  1
  O  O210  1  0.25007421  0.50657228  0.36817209  1
  O  O211  1  0.25576527  0.50608695  0.86956699  1
  O  O212  1  0.75814718  0.00756023  0.37431494  1
  O  O213  1  0.76059292  0.00056505  0.86568429  1
  O  O214  1  0.75508117  0.49928765  0.36511167  1
  O  O215  1  0.75529290  0.50732083  0.86881389  1
  O  O216  1  0.24298892  0.49494006  0.13084339  1
  O  O217  1  0.24970321  0.49985645  0.63804920  1
  O  O218  1  0.24484559  0.99334663  0.13196613  1
  O  O219  1  0.24521311  0.99444805  0.63015534  1
  O  O220  1  0.74943152  0.49366532  0.13464906  1
  O  O221  1  0.74296384  0.49969939  0.63108010  1
  O  O222  1  0.74818926  0.99129408  0.12660130  1
  O  O223  1  0.75097981  0.99301147  0.63264493  1
  O  O224  1  0.00532513  0.37010351  0.25510597  1
  O  O225  1  0.00416787  0.37191471  0.75526699  1
  O  O226  1  0.00660563  0.87279274  0.26311456  1
  O  O227  1  0.00684035  0.86969688  0.75522163  1
  O  O228  1  0.50374003  0.36988198  0.25370136  1
  O  O229  1  0.50563114  0.37449418  0.75700115  1
  O  O230  1  0.50689027  0.87034889  0.25334342  1
  O  O231  1  0.51523430  0.87593818  0.74902956  1
  O  O232  1  0.49597611  0.12862705  0.24227071  1
  O  O233  1  0.49364576  0.12579343  0.74165385  1
  O  O234  1  0.49487836  0.63089305  0.24608854  1
  O  O235  1  0.49377783  0.62562333  0.74354342  1
  O  O236  1  0.99745457  0.13352911  0.24815360  1
  O  O237  1  0.99827208  0.12842807  0.73657385  1
  O  O238  1  0.99706104  0.62611261  0.24177394  1
  O  O239  1  0.99569429  0.63015237  0.74600192  1
  O  O240  1  0.36724253  0.25586922  0.00077024  1
  O  O241  1  0.36924988  0.25410598  0.50411397  1
  O  O242  1  0.36940400  0.75519301  0.00609936  1
  O  O243  1  0.36766437  0.75052225  0.50773103  1
  O  O244  1  0.86891417  0.25558044  0.00366839  1
  O  O245  1  0.87033949  0.25450359  0.50725441  1
  O  O246  1  0.87032619  0.75618354  0.00369035  1
  O  O247  1  0.86325543  0.75285896  0.50364117  1
  O  O248  1  0.12996251  0.24448792  0.49337995  1
  O  O249  1  0.12912468  0.24207097  0.99399108  1
  O  O250  1  0.13100149  0.74259611  0.49567920  1
  O  O251  1  0.13140484  0.74504808  0.99539946  1
  O  O252  1  0.63207131  0.24268637  0.49700419  1
  O  O253  1  0.62955410  0.24318393  0.99408671  1
  O  O254  1  0.63418741  0.74490525  0.50087997  1
  O  O255  1  0.63250817  0.74602237  0.99391869  1
  O  O256  1  0.49790994  0.23844970  0.13033316  1
  O  O257  1  0.49241900  0.24233043  0.62472135  1
  O  O258  1  0.49302544  0.74518797  0.13179395  1
  O  O259  1  0.49419876  0.74388611  0.62732582  1
  O  O260  1  0.99316357  0.24952189  0.13083814  1
  O  O261  1  0.99099604  0.24207791  0.62380487  1
  O  O262  1  0.99430986  0.74394677  0.12590913  1
  O  O263  1  0.99974778  0.74374094  0.63222777  1
  O  O264  1  0.00459944  0.25515606  0.37012798  1
  O  O265  1  0.01091457  0.25029539  0.87423970  1
  O  O266  1  0.00496612  0.75839137  0.37665907  1
  O  O267  1  0.00706521  0.75536827  0.86983910  1
  O  O268  1  0.50176024  0.25555828  0.36759034  1
  O  O269  1  0.50612855  0.25753840  0.87215044  1
  O  O270  1  0.50032299  0.75722803  0.36852578  1
  O  O271  1  0.50971231  0.75400588  0.87072136  1
  O  O272  1  0.24470211  0.13041793  0.49356701  1
  O  O273  1  0.23900955  0.13015054  1.00015091  1
  O  O274  1  0.24458636  0.62884537  0.49561827  1
  O  O275  1  0.24525600  0.63034558  0.99640132  1
  O  O276  1  0.74526648  0.12878296  0.49082683  1
  O  O277  1  0.73900756  0.13190315  0.99822583  1
  O  O278  1  0.74390141  0.63506315  0.50182050  1
  O  O279  1  0.74574375  0.63141760  0.99392979  1
  O  O280  1  0.25480928  0.37016936  0.00622000  1
  O  O281  1  0.25665317  0.36778526  0.49871077  1
  O  O282  1  0.25560118  0.86866128  0.00713891  1
  O  O283  1  0.25064302  0.86708421  0.50762817  1
  O  O284  1  0.75418062  0.37064864  0.00445079  1
  O  O285  1  0.75610027  0.36808373  0.50058780  1
  O  O286  1  0.75645639  0.86946536  0.00423026  1
  O  O287  1  0.74773317  0.86869666  0.50880050  1
  O  O288  1  0.12936285  0.49378719  0.24444427  1
  O  O289  1  0.13775388  0.50070211  0.75239229  1
  O  O290  1  0.13099487  0.99379890  0.24632855  1
  O  O291  1  0.13106863  0.99488335  0.74537438  1
  O  O292  1  0.63497388  0.49377518  0.24875333  1
  O  O293  1  0.62994857  0.49625089  0.74489709  1
  O  O294  1  0.62596641  0.98683849  0.24659778  1
  O  O295  1  0.63589707  0.99240454  0.75074308  1
  O  O296  1  0.36868002  0.00536079  0.25525261  1
  O  O297  1  0.37091631  0.00358066  0.75711116  1
  O  O298  1  0.36683618  0.50716920  0.25130869  1
  O  O299  1  0.36726875  0.50579320  0.75672199  1
  O  O300  1  0.87302504  0.00090405  0.26300277  1
  O  O301  1  0.86684690  0.00054627  0.75812841  1
  O  O302  1  0.86430898  0.49841880  0.25546206  1
  O  O303  1  0.86914865  0.50639307  0.75527292  1
  O  O304  1  0.11878079  0.36870566  0.36904167  1
  O  O305  1  0.12409484  0.36231801  0.87615663  1
  O  O306  1  0.11819022  0.87034936  0.37239917  1
  O  O307  1  0.12190140  0.87030835  0.87003702  1
  O  O308  1  0.61782002  0.37216793  0.36762907  1
  O  O309  1  0.61931581  0.37104682  0.86960370  1
  O  O310  1  0.61866511  0.87400343  0.36449380  1
  O  O311  1  0.62798509  0.87075982  0.86556542  1
  O  O312  1  0.38306951  0.12531228  0.12990291  1
  O  O313  1  0.38041732  0.12960638  0.62915063  1
  O  O314  1  0.37910153  0.63164609  0.13130984  1
  O  O315  1  0.38049635  0.63030804  0.63114216  1
  O  O316  1  0.87605627  0.13280373  0.12566405  1
  O  O317  1  0.88304296  0.13331044  0.62345598  1
  O  O318  1  0.88142864  0.63185818  0.12421636  1
  O  O319  1  0.88248556  0.62675848  0.63253363  1
  O  O320  1  0.24959798  0.25714969  0.11914982  1
  O  O321  1  0.25696217  0.24906706  0.61679040  1
  O  O322  1  0.25487904  0.75485333  0.12102790  1
  O  O323  1  0.25472393  0.75381557  0.62127138  1
  O  O324  1  0.75490378  0.25614022  0.11846711  1
  O  O325  1  0.75993784  0.24926844  0.61786856  1
  O  O326  1  0.75640107  0.75557229  0.11795108  1
  O  O327  1  0.75140879  0.75978788  0.61727161  1
  O  O328  1  0.24367795  0.24364193  0.37886943  1
  O  O329  1  0.24133320  0.24706354  0.88264054  1
  O  O330  1  0.24395007  0.74411311  0.38166156  1
  O  O331  1  0.24555436  0.74508806  0.88135733  1
  O  O332  1  0.75143893  0.23910067  0.37989068  1
  O  O333  1  0.74275430  0.24885306  0.88069861  1
  O  O334  1  0.74780700  0.75095136  0.38748896  1
  O  O335  1  0.74677742  0.74551668  0.87997807  1
  O  O336  1  0.01326578  0.12162929  0.00308043  1
  O  O337  1  0.00611105  0.12441339  0.51060287  1
  O  O338  1  0.00659277  0.61978309  0.00539796  1
  O  O339  1  0.00469007  0.61948678  0.50532157  1
  O  O340  1  0.50825572  0.12614305  0.00754873  1
  O  O341  1  0.50493225  0.11940255  0.50277684  1
  O  O342  1  0.50671037  0.62601796  0.00726082  1
  O  O343  1  0.50465370  0.61974511  0.50594544  1
  O  O344  1  0.49499877  0.37969128  0.49426602  1
  O  O345  1  0.49315820  0.37586635  0.99404074  1
  O  O346  1  0.49959586  0.88146736  0.49362384  1
  O  O347  1  0.49247370  0.87779615  0.99905376  1
  O  O348  1  0.99408419  0.37955507  0.49346081  1
  O  O349  1  0.99226462  0.38262600  0.99846620  1
  O  O350  1  0.99970442  0.87633974  0.48976692  1
  O  O351  1  0.99448874  0.87667921  0.99212699  1
  O  O352  1  0.49819573  0.49299800  0.38193243  1
  O  O353  1  0.49292078  0.49403105  0.87765829  1
  O  O354  1  0.49375255  0.99532996  0.37887119  1
  O  O355  1  0.48784435  0.99706646  0.87567850  1
  O  O356  1  0.99428218  0.49354332  0.38034871  1
  O  O357  1  0.99297047  0.50154381  0.88274118  1
  O  O358  1  0.99316151  0.99172369  0.37719415  1
  O  O359  1  0.99093804  0.99448945  0.87297660  1
  O  O360  1  0.00809870  0.00006221  0.12363308  1
  O  O361  1  0.00537469  0.00882821  0.62457399  1
  O  O362  1  0.00500634  0.50467515  0.11905572  1
  O  O363  1  0.00073479  0.50638111  0.61797978  1
  O  O364  1  0.50216239  0.01322822  0.12266541  1
  O  O365  1  0.50145750  0.00663248  0.61730518  1
  O  O366  1  0.50225706  0.50954983  0.12343651  1
  O  O367  1  0.50504223  0.50612330  0.61946767  1
  O  O368  1  0.24367036  0.37953274  0.24559223  1
  O  O369  1  0.25032896  0.38722027  0.75123235  1
  O  O370  1  0.24478889  0.87987873  0.24629100  1
  O  O371  1  0.24447867  0.87965189  0.74456021  1
  O  O372  1  0.74447437  0.38195897  0.24493440  1
  O  O373  1  0.74171049  0.38392191  0.74707858  1
  O  O374  1  0.74055150  0.87445931  0.24434275  1
  O  O375  1  0.74447582  0.88277473  0.74295023  1
  O  O376  1  0.25401418  0.11927641  0.25504287  1
  O  O377  1  0.25794163  0.11612511  0.75102784  1
  O  O378  1  0.25395862  0.61993974  0.25553023  1
  O  O379  1  0.25598094  0.61779063  0.75725170  1
  O  O380  1  0.75058778  0.12330315  0.26052564  1
  O  O381  1  0.75046302  0.11333733  0.75027233  1
  O  O382  1  0.75060185  0.61331205  0.25053679  1
  O  O383  1  0.75520623  0.62134686  0.75494700  1
  O  O384  1  0.36866766  0.11913672  0.36871915  1
  O  O385  1  0.37407306  0.11568332  0.86987391  1
  O  O386  1  0.36742157  0.62400461  0.36861607  1
  O  O387  1  0.37002916  0.62102403  0.87155186  1
  O  O388  1  0.86674893  0.11676845  0.37532024  1
  O  O389  1  0.87418781  0.11496560  0.87340731  1
  O  O390  1  0.87078699  0.61619385  0.37299788  1
  O  O391  1  0.86964122  0.62044758  0.86979391  1
  O  O392  1  0.12961294  0.38064495  0.12972782  1
  O  O393  1  0.13079842  0.37779191  0.62910943  1
  O  O394  1  0.13098456  0.87868727  0.13109236  1
  O  O395  1  0.13036381  0.88025890  0.63136723  1
  O  O396  1  0.63095779  0.37586760  0.13089030  1
  O  O397  1  0.62498819  0.38189153  0.63073958  1
  O  O398  1  0.63063541  0.87488289  0.13251733  1
  O  O399  1  0.63617202  0.87768593  0.63387004  1
  O  O400  1  0.11958010  0.25558291  0.25531901  1
  O  O401  1  0.12644247  0.24806394  0.76266490  1
  O  O402  1  0.12357537  0.75656185  0.25872457  1
  O  O403  1  0.12132140  0.75487243  0.75659015  1
  O  O404  1  0.61799034  0.25637148  0.25138733  1
  O  O405  1  0.62364884  0.25712637  0.75551707  1
  O  O406  1  0.61922566  0.76063275  0.25040552  1
  O  O407  1  0.62796840  0.76057284  0.75497668  1
  O  O408  1  0.38088749  0.24192085  0.24768710  1
  O  O409  1  0.37507253  0.24252179  0.74366353  1
  O  O410  1  0.37898676  0.74478511  0.24482719  1
  O  O411  1  0.37587871  0.74324598  0.74439886  1
  O  O412  1  0.88083106  0.24982230  0.24257745  1
  O  O413  1  0.87365079  0.24901055  0.73829988  1
  O  O414  1  0.87663876  0.74781980  0.24131679  1
  O  O415  1  0.88252414  0.74412461  0.74965605  1
  O  O416  1  0.38170016  0.49343998  0.49929852  1
  O  O417  1  0.37508737  0.49318856  0.99384775  1
  O  O418  1  0.38098448  0.99840477  0.49248664  1
  O  O419  1  0.37424887  0.99488903  0.99115531  1
  O  O420  1  0.87978531  0.49438087  0.49501909  1
  O  O421  1  0.87889658  0.49571145  0.99462520  1
  O  O422  1  0.87712900  0.99678582  0.48770020  1
  O  O423  1  0.87536722  0.99477914  0.98911919  1
  O  O424  1  0.12629784  0.00745243  0.00516732  1
  O  O425  1  0.12411911  0.00741394  0.50792048  1
  O  O426  1  0.12058936  0.50556814  0.00522449  1
  O  O427  1  0.11755891  0.50569929  0.49987529  1
  O  O428  1  0.62380062  0.01161832  -0.00123231  1
  O  O429  1  0.61823468  0.00661338  0.50080889  1
  O  O430  1  0.62359616  0.50988071  0.00233222  1
  O  O431  1  0.61948621  0.50491434  0.50564639  1
  O  O432  1  0.36752153  0.37344035  0.11909367  1
  O  O433  1  0.37337460  0.36757602  0.61767569  1
  O  O434  1  0.36909519  0.87019167  0.12143411  1
  O  O435  1  0.36836586  0.86821204  0.62489166  1
  O  O436  1  0.86811221  0.36955948  0.11778920  1
  O  O437  1  0.87431961  0.36514822  0.61817732  1
  O  O438  1  0.87095103  0.86987332  0.11914937  1
  O  O439  1  0.86383914  0.87473430  0.62437419  1
  O  O440  1  0.12976846  0.12971032  0.37988457  1
  O  O441  1  0.12709547  0.13113028  0.88439017  1
  O  O442  1  0.12940039  0.62979385  0.38111598  1
  O  O443  1  0.13131220  0.63142842  0.88198978  1
  O  O444  1  0.63543378  0.12413683  0.37918243  1
  O  O445  1  0.62387353  0.13122371  0.88357024  1
  O  O446  1  0.62779895  0.62871523  0.38388993  1
  O  O447  1  0.63187812  0.63143192  0.87918640  1
