# generated using pymatgen
data_V3Zn3O8
_symmetry_space_group_name_H-M   'P 1'
_cell_length_a   17.08874281
_cell_length_b   17.08871274
_cell_length_c   17.08861121
_cell_angle_alpha   90.00018151
_cell_angle_beta   90.00308356
_cell_angle_gamma   90.00352438
_symmetry_Int_Tables_number   1
_chemical_formula_structural   V3Zn3O8
_chemical_formula_sum   'V96 Zn96 O256'
_cell_volume   4990.29512295
_cell_formula_units_Z   32
loop_
 _symmetry_equiv_pos_site_id
 _symmetry_equiv_pos_as_xyz
  1  'x, y, z'
loop_
 _atom_site_type_symbol
 _atom_site_label
 _atom_site_symmetry_multiplicity
 _atom_site_fract_x
 _atom_site_fract_y
 _atom_site_fract_z
 _atom_site_occupancy
  V  V0  1  0.87470251  0.50049290  0.87540626  1
  V  V1  1  0.25120867  0.49994295  0.24987060  1
  V  V2  1  0.49897315  0.24925723  0.25031296  1
  V  V3  1  0.00064435  0.75126084  0.75086469  1
  V  V4  1  0.49979240  0.00015960  0.50039057  1
  V  V5  1  0.24889308  0.12456417  0.87544427  1
  V  V6  1  0.37445810  0.12454800  0.75009098  1
  V  V7  1  0.37476464  0.12426743  0.25018477  1
  V  V8  1  0.74913259  0.25046829  0.00016925  1
  V  V9  1  0.62507537  0.49926075  0.12499633  1
  V  V10  1  0.50019443  -0.00039093  -0.00077786  1
  V  V11  1  0.75033894  0.12663617  0.37552730  1
  V  V12  1  0.62468094  0.37502794  0.25029963  1
  V  V13  1  0.37488947  -0.00152982  0.37592638  1
  V  V14  1  0.75012041  0.62495066  0.37518016  1
  V  V15  1  0.24892473  0.12441313  0.37533009  1
  V  V16  1  0.12468130  0.49978689  0.62484001  1
  V  V17  1  0.49956297  0.37522309  0.37505805  1
  V  V18  1  0.50156058  0.75053134  0.75068093  1
  V  V19  1  0.37368393  0.50004011  0.87438307  1
  V  V20  1  0.12440153  0.50055569  0.12502325  1
  V  V21  1  0.24975097  0.49998424  0.75038228  1
  V  V22  1  0.37456359  0.74962221  0.62417676  1
  V  V23  1  0.12482496  0.37486229  0.25096103  1
  V  V24  1  -0.00135254  0.12509345  0.62497488  1
  V  V25  1  0.87583467  0.12600794  0.24941512  1
  V  V26  1  0.75081992  0.75061309  0.50070781  1
  V  V27  1  -0.00008846  0.62528463  0.12653460  1
  V  V28  1  0.25014908  -0.00073458  0.24958221  1
  V  V29  1  0.75009976  0.00142510  0.24970181  1
  V  V30  1  0.25047740  0.87437493  0.62534158  1
  V  V31  1  0.75079396  0.37451648  0.12497754  1
  V  V32  1  0.12496690  0.12417734  0.49919213  1
  V  V33  1  0.62464840  0.00118587  0.62424945  1
  V  V34  1  0.37655547  0.62629718  0.24823548  1
  V  V35  1  0.49943049  0.62465201  0.62507516  1
  V  V36  1  0.37474745  0.62409822  0.74975075  1
  V  V37  1  0.00137799  0.12417526  0.12290595  1
  V  V38  1  0.87482258  0.12604502  0.74807680  1
  V  V39  1  0.37679229  -0.00162472  0.87601019  1
  V  V40  1  0.24929615  0.24889457  0.50012693  1
  V  V41  1  0.12454815  0.87330385  0.25004261  1
  V  V42  1  0.62579493  0.87622961  0.25049448  1
  V  V43  1  0.12635036  0.62484398  0.49939661  1
  V  V44  1  -0.00015904  0.37326490  0.87460865  1
  V  V45  1  0.62553238  0.75148448  0.37469413  1
  V  V46  1  0.24941864  0.37371920  0.62448695  1
  V  V47  1  0.87650764  -0.00006810  0.37500237  1
  V  V48  1  0.62514935  0.24984530  0.37578366  1
  V  V49  1  0.50028806  0.49946297  0.00048788  1
  V  V50  1  0.62618228  0.00074696  0.12593504  1
  V  V51  1  0.62611575  0.62484506  -0.00042337  1
  V  V52  1  0.12371498  0.37421951  0.75049004  1
  V  V53  1  0.75025170  0.50093181  0.75111625  1
  V  V54  1  0.00027557  0.49963993  0.50098680  1
  V  V55  1  0.37339546  0.24992699  0.62488678  1
  V  V56  1  0.12503176  -0.00023922  0.12351646  1
  V  V57  1  0.74995194  0.50026922  0.25118079  1
  V  V58  1  -0.00055608  -0.00124787  0.49848320  1
  V  V59  1  -0.00038122  0.49957840  0.00062987  1
  V  V60  1  0.50090121  0.75083225  0.24993953  1
  V  V61  1  0.00106486  0.37476244  0.37437740  1
  V  V62  1  0.49963327  0.12490590  0.62472254  1
  V  V63  1  0.62426156  0.87441020  0.75066234  1
  V  V64  1  0.62401902  0.37540650  0.75026372  1
  V  V65  1  0.37486577  0.87416639  0.50022313  1
  V  V66  1  0.24982779  0.37518070  0.12434609  1
  V  V67  1  0.49888237  0.49940770  0.49939950  1
  V  V68  1  0.12534378  -0.00135363  0.62523481  1
  V  V69  1  0.62452535  0.12578736  -0.00034477  1
  V  V70  1  0.62449035  0.50057937  0.62571206  1
  V  V71  1  0.87579422  -0.00186228  0.87704923  1
  V  V72  1  0.37545149  0.49934916  0.37412639  1
  V  V73  1  0.87404957  0.50103058  0.37575030  1
  V  V74  1  0.75053985  0.87550386  0.62384447  1
  V  V75  1  0.87462506  0.37580847  0.50074799  1
  V  V76  1  0.24733342  0.24859080  -0.00083913  1
  V  V77  1  0.74870366  0.12656904  0.87445708  1
  V  V78  1  0.74986539  0.25152258  0.49983657  1
  V  V79  1  0.37395863  0.37529548  0.00014049  1
  V  V80  1  0.87518525  0.75103735  0.62586159  1
  V  V81  1  0.75039947  0.37568872  0.62482146  1
  V  V82  1  0.49927505  0.12516661  0.12578207  1
  V  V83  1  0.75061243  0.75101972  -0.00007262  1
  V  V84  1  0.25266605  0.74970046  0.00029277  1
  V  V85  1  0.12596983  0.74993435  0.87490383  1
  V  V86  1  0.87536183  0.75099522  0.12603273  1
  V  V87  1  0.12446227  0.74981142  0.37422826  1
  V  V88  1  0.25190509  0.87422780  0.12428906  1
  V  V89  1  0.49924041  0.25069333  0.74991304  1
  V  V90  1  0.62456548  0.62565790  0.50011339  1
  V  V91  1  0.87539838  0.25042486  0.12513790  1
  V  V92  1  0.24989790  -0.00076857  0.74994493  1
  V  V93  1  0.74909520  0.00097202  0.74885840  1
  V  V94  1  0.87475261  0.62565833  0.75095898  1
  V  V95  1  0.49929835  0.37434560  0.87441739  1
  Zn  Zn96  1  -0.00091198  0.24976184  0.74802128  1
  Zn  Zn97  1  0.87691952  0.87566938  0.00040883  1
  Zn  Zn98  1  0.37813504  0.75160292  0.12358661  1
  Zn  Zn99  1  0.87661662  0.87436277  0.49802830  1
  Zn  Zn100  1  0.50194923  0.87329382  0.87705757  1
  Zn  Zn101  1  0.00196044  0.25062760  0.25052750  1
  Zn  Zn102  1  0.12398315  0.12173845  -0.00277607  1
  Zn  Zn103  1  0.12420691  0.24913083  0.37343410  1
  Zn  Zn104  1  0.37405125  0.24971380  0.12575528  1
  Zn  Zn105  1  0.00034291  0.62549917  0.62576702  1
  Zn  Zn106  1  0.25056988  0.62473343  0.37423428  1
  Zn  Zn107  1  0.00066555  0.87580933  0.87726562  1
  Zn  Zn108  1  0.50090398  0.62680879  0.12389189  1
  Zn  Zn109  1  0.25038219  0.62470731  0.87610562  1
  Zn  Zn110  1  0.87450629  0.37517045  0.00062742  1
  Zn  Zn111  1  0.25077624  0.74910445  0.49995083  1
  Zn  Zn112  1  0.37404843  0.37430369  0.49905787  1
  Zn  Zn113  1  0.62410948  0.25029016  0.87472990  1
  Zn  Zn114  1  0.12681672  0.62471157  0.00025097  1
  Zn  Zn115  1  0.75094404  0.62546463  0.87506852  1
  Zn  Zn116  1  0.37980041  0.87342474  0.00028652  1
  Zn  Zn117  1  0.62501763  0.12574126  0.50047124  1
  Zn  Zn118  1  0.87540297  0.25072165  0.62520876  1
  Zn  Zn119  1  0.75198462  0.87732932  0.12476195  1
  Zn  Zn120  1  0.12558831  0.87487702  0.74986441  1
  Zn  Zn121  1  -0.00166297  0.75114962  0.25039710  1
  Zn  Zn122  1  0.87438477  0.62622460  0.25202533  1
  Zn  Zn123  1  0.62556664  0.75088722  0.87509890  1
  Zn  Zn124  1  -0.00165790  0.87431610  0.37395468  1
  Zn  Zn125  1  0.50002003  0.87594801  0.37551742  1
  Zn  Zn126  1  0.00181507  -0.00355299  -0.00154606  1
  Zn  Zn127  1  0.12175056  0.24592019  0.87286794  1
  Zn  Zn128  1  0.18657448  0.18821054  0.18738565  1
  Zn  Zn129  1  0.18484900  0.18717816  0.68815954  1
  Zn  Zn130  1  0.18846745  0.68762370  0.18727733  1
  Zn  Zn131  1  0.18862108  0.68652397  0.68709535  1
  Zn  Zn132  1  0.68716202  0.18774309  0.18764846  1
  Zn  Zn133  1  0.68682855  0.18902937  0.68658885  1
  Zn  Zn134  1  0.68799140  0.68720622  0.18717223  1
  Zn  Zn135  1  0.68801409  0.68805490  0.68752240  1
  Zn  Zn136  1  0.31199502  0.31140734  0.31305922  1
  Zn  Zn137  1  0.31118784  0.31231271  0.81310147  1
  Zn  Zn138  1  0.31093394  0.81162451  0.31361659  1
  Zn  Zn139  1  0.31477536  0.81360032  0.81307385  1
  Zn  Zn140  1  0.81420234  0.31265166  0.31247291  1
  Zn  Zn141  1  0.81308962  0.31183601  0.81188229  1
  Zn  Zn142  1  0.81210069  0.81433715  0.31184512  1
  Zn  Zn143  1  0.81063751  0.81310316  0.81275641  1
  Zn  Zn144  1  0.18847678  0.43700412  0.43645958  1
  Zn  Zn145  1  0.18546270  0.43739638  0.93733595  1
  Zn  Zn146  1  0.18732731  0.93568981  0.43828563  1
  Zn  Zn147  1  0.18870522  0.93549006  0.93805541  1
  Zn  Zn148  1  0.68660984  0.43768586  0.43794674  1
  Zn  Zn149  1  0.68781757  0.43629008  0.93670622  1
  Zn  Zn150  1  0.68827984  0.93820825  0.43726895  1
  Zn  Zn151  1  0.68767880  0.93686286  0.93739583  1
  Zn  Zn152  1  0.31375479  0.06167111  0.06223387  1
  Zn  Zn153  1  0.31232093  0.06159748  0.56268302  1
  Zn  Zn154  1  0.31252521  0.56391378  0.06277915  1
  Zn  Zn155  1  0.31171844  0.56142708  0.56203982  1
  Zn  Zn156  1  0.81248869  0.06504618  0.06158037  1
  Zn  Zn157  1  0.81329090  0.06325489  0.56041692  1
  Zn  Zn158  1  0.81367880  0.56260955  0.06290793  1
  Zn  Zn159  1  0.81304512  0.56434569  0.56416520  1
  Zn  Zn160  1  0.43759691  0.43749963  0.18607791  1
  Zn  Zn161  1  0.43596749  0.43666262  0.68654627  1
  Zn  Zn162  1  0.43835612  0.93644783  0.18690640  1
  Zn  Zn163  1  0.43775223  0.93658497  0.68793359  1
  Zn  Zn164  1  0.93664147  0.43756781  0.18933761  1
  Zn  Zn165  1  0.93744084  0.43875405  0.68784910  1
  Zn  Zn166  1  0.93895884  0.93686106  0.18834512  1
  Zn  Zn167  1  0.93735090  0.93718356  0.68778048  1
  Zn  Zn168  1  0.06272438  0.06157717  0.31088700  1
  Zn  Zn169  1  0.06191210  0.06284288  0.81086652  1
  Zn  Zn170  1  0.06176838  0.56175414  0.31210964  1
  Zn  Zn171  1  0.06276315  0.56389398  0.81345254  1
  Zn  Zn172  1  0.56247158  0.06291492  0.31405986  1
  Zn  Zn173  1  0.56235098  0.06261007  0.81279950  1
  Zn  Zn174  1  0.56214303  0.56365688  0.31282581  1
  Zn  Zn175  1  0.56192697  0.56293625  0.81448133  1
  Zn  Zn176  1  0.43616206  0.18658028  0.43810678  1
  Zn  Zn177  1  0.43561710  0.18737016  0.93760864  1
  Zn  Zn178  1  0.43850172  0.68782701  0.43564041  1
  Zn  Zn179  1  0.43875476  0.68689585  0.93494934  1
  Zn  Zn180  1  0.93799426  0.18890845  0.43744722  1
  Zn  Zn181  1  0.93485740  0.18716509  0.93833244  1
  Zn  Zn182  1  0.93862717  0.68736533  0.43887198  1
  Zn  Zn183  1  0.93821729  0.68601048  0.93862296  1
  Zn  Zn184  1  0.06280673  0.31224057  0.06260981  1
  Zn  Zn185  1  0.06232824  0.31048740  0.56201987  1
  Zn  Zn186  1  0.06248777  0.81429705  0.05962686  1
  Zn  Zn187  1  0.06178977  0.81350369  0.56197743  1
  Zn  Zn188  1  0.56224106  0.31139547  0.06310221  1
  Zn  Zn189  1  0.56208719  0.31287774  0.56246522  1
  Zn  Zn190  1  0.56340465  0.81388816  0.06553446  1
  Zn  Zn191  1  0.56191176  0.81370170  0.56346598  1
  O  O192  1  0.11615625  0.11887469  0.12462879  1
  O  O193  1  0.11960469  0.11779650  0.61923579  1
  O  O194  1  0.11543678  0.61932314  0.12527240  1
  O  O195  1  0.12455928  0.61903577  0.61514966  1
  O  O196  1  0.61895806  0.12026120  0.12018412  1
  O  O197  1  0.61758383  0.11892453  0.62408952  1
  O  O198  1  0.62519483  0.61794953  0.11485214  1
  O  O199  1  0.61931096  0.61958298  0.61963100  1
  O  O200  1  0.38230246  0.38137833  0.37497576  1
  O  O201  1  0.37977703  0.38112214  0.88001434  1
  O  O202  1  0.37490038  0.88120000  0.38180197  1
  O  O203  1  0.37951040  0.88438301  0.87711733  1
  O  O204  1  0.87977636  0.38210422  0.38117591  1
  O  O205  1  0.88481095  0.38161597  0.87494849  1
  O  O206  1  0.87727857  0.88374471  0.37635772  1
  O  O207  1  0.87308495  0.88828618  0.87445594  1
  O  O208  1  0.25507468  0.00471433  0.36931058  1
  O  O209  1  0.25599122  0.00492205  0.86983592  1
  O  O210  1  0.25723019  0.50091489  0.36723245  1
  O  O211  1  0.25573378  0.50039978  0.86858079  1
  O  O212  1  0.75569351  0.00737117  0.36955750  1
  O  O213  1  0.75610851  0.00671468  0.86866977  1
  O  O214  1  0.75399962  0.50546656  0.37123502  1
  O  O215  1  0.75675064  0.50005180  0.86848682  1
  O  O216  1  0.24449207  0.49474926  0.12979745  1
  O  O217  1  0.24442865  0.49335537  0.63040319  1
  O  O218  1  0.24517873  0.99488355  0.13065808  1
  O  O219  1  0.24525707  0.99497798  0.63070583  1
  O  O220  1  0.74481528  0.49434895  0.13075496  1
  O  O221  1  0.74361371  0.49558437  0.63066426  1
  O  O222  1  0.74424166  1.00205355  0.13185523  1
  O  O223  1  0.74469045  0.99593501  0.62948284  1
  O  O224  1  0.00703858  0.37549573  0.25634659  1
  O  O225  1  0.00452611  0.37583337  0.75946457  1
  O  O226  1  0.01000489  0.87188280  0.25204627  1
  O  O227  1  0.00139267  0.86204591  0.75294527  1
  O  O228  1  0.50554232  0.36978380  0.25493965  1
  O  O229  1  0.50398003  0.37050416  0.75430357  1
  O  O230  1  0.50723278  0.86885624  0.25260236  1
  O  O231  1  0.50754248  0.86809526  0.74878637  1
  O  O232  1  0.49458937  0.12969696  0.24570272  1
  O  O233  1  0.49394388  0.13063809  0.74436669  1
  O  O234  1  0.49271719  0.63093864  0.24897702  1
  O  O235  1  0.49519868  0.62880006  0.74368860  1
  O  O236  1  0.99492007  0.12610922  0.23892226  1
  O  O237  1  0.99242248  0.12554000  0.74264263  1
  O  O238  1  0.99730838  0.62534634  0.23745640  1
  O  O239  1  0.99453473  0.63576770  0.74894050  1
  O  O240  1  0.36391429  0.25635551  0.00090437  1
  O  O241  1  0.36770548  0.25039131  0.50739449  1
  O  O242  1  0.36547285  0.74992083  0.00044232  1
  O  O243  1  0.37434299  0.75439988  0.50601118  1
  O  O244  1  0.86670483  0.25159784  0.00756422  1
  O  O245  1  0.86726605  0.25865183  0.50033842  1
  O  O246  1  0.86616622  0.74779787  0.00838589  1
  O  O247  1  0.86871819  0.75030652  0.50707728  1
  O  O248  1  0.13220672  0.24163170  0.49853106  1
  O  O249  1  0.13790892  0.24892381  0.99776288  1
  O  O250  1  0.12510882  0.74059729  0.49312851  1
  O  O251  1  0.13452861  0.74888085  0.99166128  1
  O  O252  1  0.63128357  0.25027648  0.49310754  1
  O  O253  1  0.63076960  0.24335991  0.99885054  1
  O  O254  1  0.62994103  0.74461435  0.49576842  1
  O  O255  1  0.63365057  0.74099638  1.00287292  1
  O  O256  1  0.49796150  0.24351179  0.13246661  1
  O  O257  1  0.49372728  0.24539149  0.63024027  1
  O  O258  1  0.49834381  0.74735809  0.13453598  1
  O  O259  1  0.49457795  0.74317577  0.63001001  1
  O  O260  1  0.99480029  0.24112873  0.12575574  1
  O  O261  1  0.99639867  0.24105079  0.62564531  1
  O  O262  1  0.99237468  0.74093289  0.12340362  1
  O  O263  1  0.99517585  0.74902030  0.63498749  1
  O  O264  1  0.00253180  0.25891641  0.37233539  1
  O  O265  1  -0.00051807  0.26168271  0.87474639  1
  O  O266  1  0.01217121  0.74983462  0.37287144  1
  O  O267  1  0.00773642  0.74933335  0.86750475  1
  O  O268  1  0.50476698  0.25468835  0.37000848  1
  O  O269  1  0.49919247  0.25661647  0.86778854  1
  O  O270  1  0.50832669  0.75190683  0.36809304  1
  O  O271  1  0.50401481  0.75153648  0.86592714  1
  O  O272  1  0.24453924  0.12841818  0.49521793  1
  O  O273  1  0.25064890  0.13414151  0.99489321  1
  O  O274  1  0.23780207  0.62457621  0.49748706  1
  O  O275  1  0.24825118  0.63596789  0.99886203  1
  O  O276  1  0.74852774  0.13291486  0.49303543  1
  O  O277  1  0.74347453  0.13131005  0.99465588  1
  O  O278  1  0.74330734  0.63031031  0.49551263  1
  O  O279  1  0.74186007  0.63218180  1.00025960  1
  O  O280  1  0.25413754  0.36814226  0.00399933  1
  O  O281  1  0.25075865  0.36822399  0.50683351  1
  O  O282  1  0.25252540  0.86411534  0.00582003  1
  O  O283  1  0.25719753  0.87347015  0.50774886  1
  O  O284  1  0.75023075  0.36882358  0.00731485  1
  O  O285  1  0.75474183  0.37207008  0.50516801  1
  O  O286  1  0.75102713  0.86293116  0.00370718  1
  O  O287  1  0.75092777  0.86801368  0.50658930  1
  O  O288  1  0.13134906  0.49503796  0.24443599  1
  O  O289  1  0.12989289  0.49536717  0.74465321  1
  O  O290  1  0.13183271  0.99378816  0.24406162  1
  O  O291  1  0.13196061  0.99786082  0.74324299  1
  O  O292  1  0.62987006  0.49442160  0.24554595  1
  O  O293  1  0.62919621  0.49559870  0.74469840  1
  O  O294  1  0.63053398  0.99694073  0.24579475  1
  O  O295  1  0.63010980  0.99560136  0.74355693  1
  O  O296  1  0.36938888  0.00456199  0.25593282  1
  O  O297  1  0.37005707  0.00619023  0.75479199  1
  O  O298  1  0.37209537  0.50752929  0.25423139  1
  O  O299  1  0.36973484  0.50436973  0.75430072  1
  O  O300  1  0.86975846  0.00693905  0.25439198  1
  O  O301  1  0.86823805  0.00595214  0.75676593  1
  O  O302  1  0.86715864  0.50132713  0.25794877  1
  O  O303  1  0.86966942  0.50633031  0.75481588  1
  O  O304  1  0.11874251  0.37536048  0.36849722  1
  O  O305  1  0.11396757  0.37539294  0.86939044  1
  O  O306  1  0.12495880  0.86524904  0.36958952  1
  O  O307  1  0.12476317  0.86160952  0.87129908  1
  O  O308  1  0.61941672  0.37016712  0.36917569  1
  O  O309  1  0.61697113  0.37440952  0.86789735  1
  O  O310  1  0.62470222  0.86897132  0.36846093  1
  O  O311  1  0.62421171  0.87310160  0.86535213  1
  O  O312  1  0.38149465  0.12533757  0.13293918  1
  O  O313  1  0.37960651  0.12993646  0.63128306  1
  O  O314  1  0.37792741  0.62531570  0.13791016  1
  O  O315  1  0.38061454  0.62886533  0.62978183  1
  O  O316  1  0.88274063  0.12980025  0.12987550  1
  O  O317  1  0.88061698  0.12476142  0.63129526  1
  O  O318  1  0.88330281  0.63281946  0.12667664  1
  O  O319  1  0.87713390  0.63256735  0.63256442  1
  O  O320  1  0.25118181  0.25588714  0.11559821  1
  O  O321  1  0.25453172  0.25383887  0.62023001  1
  O  O322  1  0.25092575  0.75513885  0.11573022  1
  O  O323  1  0.25732805  0.75560588  0.62391017  1
  O  O324  1  0.75498415  0.25489122  0.12043545  1
  O  O325  1  0.75022357  0.25858392  0.61809386  1
  O  O326  1  0.75934661  0.74863550  0.11712331  1
  O  O327  1  0.75518034  0.75546332  0.61994535  1
  O  O328  1  0.24928184  0.24202330  0.38191872  1
  O  O329  1  0.24914902  0.24421280  0.88386995  1
  O  O330  1  0.23718792  0.74646309  0.37789635  1
  O  O331  1  0.24359714  0.74909723  0.88212689  1
  O  O332  1  0.74453255  0.24657709  0.37971081  1
  O  O333  1  0.74808170  0.24445811  0.88139583  1
  O  O334  1  0.74508440  0.74443525  0.38055300  1
  O  O335  1  0.74910143  0.74678241  0.88732352  1
  O  O336  1  0.00069179  0.12329646  0.01215371  1
  O  O337  1  0.00528578  0.11871169  0.50470161  1
  O  O338  1  0.00166438  0.61906798  0.01171753  1
  O  O339  1  0.01092832  0.61846119  0.50180681  1
  O  O340  1  0.50473583  0.12088029  0.00585153  1
  O  O341  1  0.50064474  0.11871068  0.50728693  1
  O  O342  1  0.50956262  0.61886112  0.00113540  1
  O  O343  1  0.50550855  0.61947851  0.50530365  1
  O  O344  1  0.49845216  0.38179054  0.49329951  1
  O  O345  1  0.49439489  0.37934104  0.99486386  1
  O  O346  1  0.49281147  0.88199782  0.49961410  1
  O  O347  1  0.50068293  0.88369605  0.99856648  1
  O  O348  1  0.99501430  0.38118002  0.49521847  1
  O  O349  1  0.99906425  0.38059661  0.99064132  1
  O  O350  1  0.99783275  0.88378656  0.49681849  1
  O  O351  1  0.99443797  0.87837183  0.99452692  1
  O  O352  1  0.49598199  0.49446021  0.37993072  1
  O  O353  1  0.49377049  0.49371798  0.88075558  1
  O  O354  1  0.49275049  0.99940541  0.38170920  1
  O  O355  1  0.49397430  1.00086965  0.88166601  1
  O  O356  1  0.99389959  0.49509565  0.38132294  1
  O  O357  1  0.99551844  0.49291056  0.87991541  1
  O  O358  1  0.99392968  1.00044303  0.38065182  1
  O  O359  1  0.98775326  0.99980542  0.87446451  1
  O  O360  1  0.00513733  0.00976738  0.12425512  1
  O  O361  1  0.00531313  0.00484799  0.61956967  1
  O  O362  1  0.00348649  0.50676580  0.12076933  1
  O  O363  1  0.00716957  0.50176640  0.61896312  1
  O  O364  1  0.50643993  0.00654217  0.12037428  1
  O  O365  1  0.50453890  0.00597258  0.62045396  1
  O  O366  1  0.50760654  0.50050171  0.11780883  1
  O  O367  1  0.50484741  0.50502757  0.61996863  1
  O  O368  1  0.24618685  0.38058704  0.24403069  1
  O  O369  1  0.24431842  0.38036727  0.74453938  1
  O  O370  1  0.24464804  0.88013107  0.24443395  1
  O  O371  1  0.25056992  0.88181421  0.74269517  1
  O  O372  1  0.74353223  0.38018195  0.24544639  1
  O  O373  1  0.74432839  0.38118587  0.74481884  1
  O  O374  1  0.74356392  0.88360381  0.24795506  1
  O  O375  1  0.74417292  0.88089915  0.74318238  1
  O  O376  1  0.25481223  0.11877103  0.25472859  1
  O  O377  1  0.25552244  0.11936091  0.75488738  1
  O  O378  1  0.26008854  0.61875365  0.25025403  1
  O  O379  1  0.25730428  0.61737747  0.75054558  1
  O  O380  1  0.75567369  0.12116318  0.25566785  1
  O  O381  1  0.75395207  0.11990375  0.75413660  1
  O  O382  1  0.74963525  0.61778356  0.25753619  1
  O  O383  1  0.75570300  0.61875344  0.75189339  1
  O  O384  1  0.36879493  0.11807752  0.36982157  1
  O  O385  1  0.36907296  0.11888519  0.86864041  1
  O  O386  1  0.37496499  0.61899140  0.36406497  1
  O  O387  1  0.37441605  0.61682450  0.86719715  1
  O  O388  1  0.86987800  0.12084304  0.36864052  1
  O  O389  1  0.86857662  0.11743746  0.86891746  1
  O  O390  1  0.86833533  0.61896576  0.37527503  1
  O  O391  1  0.87456266  0.61779735  0.86889188  1
  O  O392  1  0.13018475  0.38164417  0.13026391  1
  O  O393  1  0.12974360  0.38049000  0.62991436  1
  O  O394  1  0.13178061  0.87947793  0.13049031  1
  O  O395  1  0.13231146  0.88112294  0.62606057  1
  O  O396  1  0.63039624  0.37964559  0.13126984  1
  O  O397  1  0.62953742  0.38208907  0.63055625  1
  O  O398  1  0.62825520  0.88375547  0.13309526  1
  O  O399  1  0.63100325  0.88142889  0.63055640  1
  O  O400  1  0.12391147  0.25943090  0.25207095  1
  O  O401  1  0.12156323  0.25861140  0.75256208  1
  O  O402  1  0.12468825  0.75390262  0.25870071  1
  O  O403  1  0.11749587  0.74921651  0.75689884  1
  O  O404  1  0.61923381  0.25564283  0.25591665  1
  O  O405  1  0.61708172  0.25781272  0.75038991  1
  O  O406  1  0.62116427  0.75503372  0.25491042  1
  O  O407  1  0.61964816  0.75566551  0.74985783  1
  O  O408  1  0.38128758  0.24238434  0.24941083  1
  O  O409  1  0.37917341  0.24432202  0.74464827  1
  O  O410  1  0.38084939  0.74082861  0.25143898  1
  O  O411  1  0.38093900  0.74369227  0.74379470  1
  O  O412  1  0.87650311  0.24347395  0.24281146  1
  O  O413  1  0.87624031  0.24087491  0.74672979  1
  O  O414  1  0.87560265  0.74716894  0.23919312  1
  O  O415  1  0.88205244  0.74554009  0.74694062  1
  O  O416  1  0.38153386  0.49942150  0.49288510  1
  O  O417  1  0.37992706  0.49519521  0.99488708  1
  O  O418  1  0.38001679  0.99451134  0.49547861  1
  O  O419  1  0.38240412  0.99991145  0.99326917  1
  O  O420  1  0.87992535  0.49596065  0.49558171  1
  O  O421  1  0.88140483  0.49795261  0.99420992  1
  O  O422  1  0.88151272  0.99973186  0.49230259  1
  O  O423  1  0.87296227  1.00039248  0.98764926  1
  O  O424  1  0.12412481  0.00157370  0.00828392  1
  O  O425  1  0.12012713  0.00528078  0.50546279  1
  O  O426  1  0.11860101  0.50220072  0.00723506  1
  O  O427  1  0.12042930  0.50690045  0.50408001  1
  O  O428  1  0.62112835  0.00684054  0.00591188  1
  O  O429  1  0.61859207  0.00171203  0.50666299  1
  O  O430  1  0.62103609  0.50631046  0.00495792  1
  O  O431  1  0.61934707  0.50611873  0.50571986  1
  O  O432  1  0.36768211  0.37398484  0.11801003  1
  O  O433  1  0.36736183  0.36783491  0.62390741  1
  O  O434  1  0.36661065  0.87283624  0.12289206  1
  O  O435  1  0.37014016  0.86922391  0.61966150  1
  O  O436  1  0.86837795  0.36887757  0.12461129  1
  O  O437  1  0.86781698  0.37626419  0.61839868  1
  O  O438  1  0.87396129  0.86341707  0.12359895  1
  O  O439  1  0.86746491  0.86869850  0.62430078  1
  O  O440  1  0.13199810  0.12431540  0.38100638  1
  O  O441  1  0.13245907  0.12637772  0.87748551  1
  O  O442  1  0.12533259  0.63082459  0.38272981  1
  O  O443  1  0.12753349  0.63713982  0.87722914  1
  O  O444  1  0.63205357  0.13243490  0.37632081  1
  O  O445  1  0.63117871  0.12679506  0.88113759  1
  O  O446  1  0.63049040  0.63054806  0.38132380  1
  O  O447  1  0.62762836  0.62491418  0.88856918  1
