# generated using pymatgen
data_V3Zn3O8
_symmetry_space_group_name_H-M   'P 1'
_cell_length_a   17.08872660
_cell_length_b   17.08810266
_cell_length_c   17.08685249
_cell_angle_alpha   90.00517855
_cell_angle_beta   89.99619012
_cell_angle_gamma   90.00495990
_symmetry_Int_Tables_number   1
_chemical_formula_structural   V3Zn3O8
_chemical_formula_sum   'V96 Zn96 O256'
_cell_volume   4989.59863079
_cell_formula_units_Z   32
loop_
 _symmetry_equiv_pos_site_id
 _symmetry_equiv_pos_as_xyz
  1  'x, y, z'
loop_
 _atom_site_type_symbol
 _atom_site_label
 _atom_site_symmetry_multiplicity
 _atom_site_fract_x
 _atom_site_fract_y
 _atom_site_fract_z
 _atom_site_occupancy
  V  V0  1  0.75050095  0.25030663  -0.00017777  1
  V  V1  1  0.75023627  0.62513104  0.87521602  1
  V  V2  1  0.50164467  0.75057368  0.25138178  1
  V  V3  1  0.12372327  0.50053845  0.12269734  1
  V  V4  1  0.37363623  0.74840154  0.12506704  1
  V  V5  1  0.24764858  0.74957848  -0.00033982  1
  V  V6  1  0.75008492  0.37580435  0.12498874  1
  V  V7  1  0.49777391  0.62401192  0.12452692  1
  V  V8  1  0.62477345  0.87586402  0.75066977  1
  V  V9  1  0.50024765  -0.00035296  0.00151679  1
  V  V10  1  0.50015319  0.25069739  0.74960718  1
  V  V11  1  0.12413879  0.87295730  0.25009546  1
  V  V12  1  0.50151425  0.24929645  0.25065364  1
  V  V13  1  0.62372070  0.62469488  -0.00048377  1
  V  V14  1  0.87488721  0.62509119  0.24863568  1
  V  V15  1  0.87637833  0.37579378  -0.00110437  1
  V  V16  1  0.62556021  -0.00023308  0.12657241  1
  V  V17  1  0.50066661  0.37547185  0.37551494  1
  V  V18  1  0.37599221  0.87581776  0.49990014  1
  V  V19  1  0.62467392  0.49906331  0.12447563  1
  V  V20  1  0.00018693  0.37560661  0.87499192  1
  V  V21  1  0.87492154  0.12488025  0.25045694  1
  V  V22  1  0.74983772  0.87630140  0.62628620  1
  V  V23  1  0.12705034  0.24925943  0.87541640  1
  V  V24  1  0.87451122  0.62662335  0.74954312  1
  V  V25  1  0.87441007  0.87593200  -0.00093898  1
  V  V26  1  0.00074113  0.24960476  0.75015383  1
  V  V27  1  0.24888411  0.87364014  0.12614748  1
  V  V28  1  0.37451980  0.87473579  0.00048738  1
  V  V29  1  0.75209081  0.12604486  0.37566274  1
  V  V30  1  0.25127076  0.49910790  0.25077719  1
  V  V31  1  0.12419515  -0.00096738  0.12434935  1
  V  V32  1  0.12594488  0.87553856  0.74866964  1
  V  V33  1  0.75200331  0.25191222  0.50081195  1
  V  V34  1  0.87579342  0.50009206  0.87504243  1
  V  V35  1  0.50033660  0.00038494  0.49823165  1
  V  V36  1  0.87463185  0.74954953  0.12447762  1
  V  V37  1  0.37547335  0.37432584  0.49951831  1
  V  V38  1  0.37426853  0.62614839  0.74891441  1
  V  V39  1  0.75055375  0.50057600  0.24875151  1
  V  V40  1  0.74895728  0.87543970  0.12659028  1
  V  V41  1  0.12461082  0.62485152  0.49996637  1
  V  V42  1  0.24880576  0.50022079  0.75027502  1
  V  V43  1  0.87306343  0.87548443  0.49996383  1
  V  V44  1  0.37405438  0.49877155  0.87470832  1
  V  V45  1  0.62607370  0.37668426  0.74865247  1
  V  V46  1  0.12531814  0.37565527  0.74983029  1
  V  V47  1  0.87408032  0.75122299  0.62595914  1
  V  V48  1  0.87533074  0.25031102  0.12450870  1
  V  V49  1  0.75085499  0.37642117  0.62479779  1
  V  V50  1  0.12676099  0.12478714  -0.00101419  1
  V  V51  1  0.50021273  0.12513492  0.12639375  1
  V  V52  1  -0.00102574  0.87454544  0.37515729  1
  V  V53  1  0.37563377  0.49827187  0.37583177  1
  V  V54  1  0.87560349  0.12557625  0.74997409  1
  V  V55  1  0.00087236  0.12582744  0.62567445  1
  V  V56  1  0.87568019  0.37621466  0.50008603  1
  V  V57  1  0.49799285  0.74999706  0.75027929  1
  V  V58  1  0.62606938  0.12621792  0.50079137  1
  V  V59  1  -0.00051919  0.75050524  0.74912116  1
  V  V60  1  0.37517183  0.00096148  0.87410076  1
  V  V61  1  0.62401772  0.75019989  0.87599290  1
  V  V62  1  -0.00072569  0.74897616  0.24853722  1
  V  V63  1  0.37645133  0.24878624  0.12583777  1
  V  V64  1  0.00053607  0.12410685  0.12503035  1
  V  V65  1  0.12436985  0.50032410  0.62504007  1
  V  V66  1  0.62512230  0.25041338  0.87435974  1
  V  V67  1  0.62553422  0.12519734  0.00030857  1
  V  V68  1  0.87510209  -0.00051868  0.87618101  1
  V  V69  1  0.74618915  0.62720920  0.37638913  1
  V  V70  1  0.75018941  0.00072831  0.25045189  1
  V  V71  1  0.25031564  -0.00112591  0.25119331  1
  V  V72  1  0.49977220  0.37535696  0.87464128  1
  V  V73  1  0.25024007  0.24944160  0.49962716  1
  V  V74  1  0.00042901  0.24954542  0.24997147  1
  V  V75  1  0.12554366  0.37320574  0.25008153  1
  V  V76  1  0.37457006  0.25051238  0.62418682  1
  V  V77  1  0.74915508  0.00057401  0.75052790  1
  V  V78  1  0.25079702  0.62263564  0.37563860  1
  V  V79  1  0.25197887  0.37156910  0.12327364  1
  V  V80  1  -0.00001550  0.37567971  0.37551534  1
  V  V81  1  0.74931308  0.50020648  0.74924019  1
  V  V82  1  0.50074758  0.12641935  0.62411152  1
  V  V83  1  0.12416350  0.12426383  0.50034846  1
  V  V84  1  0.12618945  -0.00046378  0.62496407  1
  V  V85  1  0.12495980  0.74962762  0.87497221  1
  V  V86  1  0.75026394  0.12556971  0.87471054  1
  V  V87  1  0.25059845  0.75056651  0.50050623  1
  V  V88  1  0.00045534  0.50092348  0.49904007  1
  V  V89  1  0.12507445  0.24870349  0.37519698  1
  V  V90  1  0.49836885  0.49904894  -0.00078262  1
  V  V91  1  0.62576031  0.25232357  0.37527639  1
  V  V92  1  0.74948974  0.74999170  0.00090438  1
  V  V93  1  0.49972497  0.87493693  0.87618470  1
  V  V94  1  0.24989942  0.12283255  0.37359800  1
  V  V95  1  0.37540503  0.12442664  0.75118194  1
  Zn  Zn96  1  0.37589917  0.12170864  0.25141508  1
  Zn  Zn97  1  0.12513521  0.74809953  0.37438787  1
  Zn  Zn98  1  0.12304007  0.62524072  -0.00020159  1
  Zn  Zn99  1  0.62024928  0.62758873  0.50346332  1
  Zn  Zn100  1  0.62588932  0.00110609  0.62570980  1
  Zn  Zn101  1  0.25110822  0.87527400  0.62426915  1
  Zn  Zn102  1  0.24982280  0.37469799  0.62436546  1
  Zn  Zn103  1  -0.00100139  0.87685355  0.87631790  1
  Zn  Zn104  1  0.62494006  0.87512444  0.25314551  1
  Zn  Zn105  1  0.25462491  0.24764316  -0.00210082  1
  Zn  Zn106  1  0.00086449  0.50270288  -0.00081047  1
  Zn  Zn107  1  0.25206256  0.00080607  0.75062465  1
  Zn  Zn108  1  -0.00182146  0.62605132  0.62254502  1
  Zn  Zn109  1  0.74501751  0.74998337  0.50022183  1
  Zn  Zn110  1  0.37679031  0.75072608  0.62526254  1
  Zn  Zn111  1  0.50250027  0.87493032  0.37417065  1
  Zn  Zn112  1  0.50350321  0.62449620  0.62403397  1
  Zn  Zn113  1  0.87504971  0.50163405  0.37429124  1
  Zn  Zn114  1  0.25104686  0.12427306  0.87385773  1
  Zn  Zn115  1  0.50130330  0.50394623  0.50254505  1
  Zn  Zn116  1  0.37526090  0.00039379  0.37298200  1
  Zn  Zn117  1  -0.00054313  -0.00141515  -0.00127439  1
  Zn  Zn118  1  0.24788477  0.62324267  0.87674149  1
  Zn  Zn119  1  0.37510257  0.62384159  0.25077877  1
  Zn  Zn120  1  -0.00066110  0.00079117  0.49887989  1
  Zn  Zn121  1  0.62327808  0.75315961  0.37940740  1
  Zn  Zn122  1  0.62364436  0.50316412  0.62166583  1
  Zn  Zn123  1  0.37561676  0.37299755  -0.00114407  1
  Zn  Zn124  1  0.87637350  0.25038475  0.62551761  1
  Zn  Zn125  1  -0.00025287  0.62430384  0.12298966  1
  Zn  Zn126  1  0.87457324  0.00118590  0.37575884  1
  Zn  Zn127  1  0.62615307  0.37564690  0.25052800  1
  Zn  Zn128  1  0.18836016  0.18546105  0.18787225  1
  Zn  Zn129  1  0.18973852  0.18683900  0.68858247  1
  Zn  Zn130  1  0.18727868  0.68538585  0.18931112  1
  Zn  Zn131  1  0.18830101  0.68602740  0.68552602  1
  Zn  Zn132  1  0.68755719  0.18797862  0.18855122  1
  Zn  Zn133  1  0.68831872  0.18936770  0.68577526  1
  Zn  Zn134  1  0.68596865  0.68580111  0.18822634  1
  Zn  Zn135  1  0.68681576  0.68899402  0.68661254  1
  Zn  Zn136  1  0.31449640  0.31009655  0.31178026  1
  Zn  Zn137  1  0.31155285  0.31241790  0.81161867  1
  Zn  Zn138  1  0.31564634  0.81194644  0.31453041  1
  Zn  Zn139  1  0.31056345  0.81353164  0.81347219  1
  Zn  Zn140  1  0.81333998  0.31408458  0.31288366  1
  Zn  Zn141  1  0.81343822  0.31269539  0.81144023  1
  Zn  Zn142  1  0.81190417  0.81143801  0.31196843  1
  Zn  Zn143  1  0.81157218  0.81312191  0.81317430  1
  Zn  Zn144  1  0.18789629  0.43662306  0.43865391  1
  Zn  Zn145  1  0.18842346  0.43607104  0.93763914  1
  Zn  Zn146  1  0.18629813  0.93680110  0.43671525  1
  Zn  Zn147  1  0.18943814  0.93803712  0.93662593  1
  Zn  Zn148  1  0.68645152  0.44228523  0.43815856  1
  Zn  Zn149  1  0.68751451  0.43783812  0.93696621  1
  Zn  Zn150  1  0.68534301  0.93764571  0.43548806  1
  Zn  Zn151  1  0.68805728  0.93780059  0.93814105  1
  Zn  Zn152  1  0.31269155  0.06163104  0.06384109  1
  Zn  Zn153  1  0.31250076  0.06321338  0.56244463  1
  Zn  Zn154  1  0.31057252  0.56297021  0.06061160  1
  Zn  Zn155  1  0.31300478  0.56089745  0.56328158  1
  Zn  Zn156  1  0.81241821  0.06197590  0.06307200  1
  Zn  Zn157  1  0.81377907  0.06177827  0.56381990  1
  Zn  Zn158  1  0.81287778  0.56259817  0.06194290  1
  Zn  Zn159  1  0.81173136  0.56253242  0.56179050  1
  Zn  Zn160  1  0.43811623  0.43581432  0.18962804  1
  Zn  Zn161  1  0.43742726  0.43896789  0.68551472  1
  Zn  Zn162  1  0.43626168  0.93600576  0.18811668  1
  Zn  Zn163  1  0.43873664  0.93799144  0.68532357  1
  Zn  Zn164  1  0.93753171  0.43784744  0.18823238  1
  Zn  Zn165  1  0.93765636  0.43870543  0.68622983  1
  Zn  Zn166  1  0.93630505  0.93763263  0.18692375  1
  Zn  Zn167  1  0.93859460  0.93870525  0.68813543  1
  Zn  Zn168  1  0.06273440  0.06030666  0.31207995  1
  Zn  Zn169  1  0.06119547  0.06150341  0.81309862  1
  Zn  Zn170  1  0.06346184  0.56249215  0.31168343  1
  Zn  Zn171  1  0.06020192  0.56396798  0.81074949  1
  Zn  Zn172  1  0.56508972  0.06435939  0.31356959  1
  Zn  Zn173  1  0.56158818  0.06262070  0.81293037  1
  Zn  Zn174  1  0.56252883  0.56228269  0.31213281  1
  Zn  Zn175  1  0.56138324  0.56236430  0.81075266  1
  Zn  Zn176  1  0.43643903  0.18717992  0.43544013  1
  Zn  Zn177  1  0.43787683  0.18787852  0.93886479  1
  Zn  Zn178  1  0.43690461  0.68551999  0.43727482  1
  Zn  Zn179  1  0.43513790  0.68598889  0.93640382  1
  Zn  Zn180  1  0.93777843  0.18888903  0.43860485  1
  Zn  Zn181  1  0.93961099  0.18712906  0.93716885  1
  Zn  Zn182  1  0.93404259  0.68787202  0.43658034  1
  Zn  Zn183  1  0.94053130  0.68718468  0.93845649  1
  Zn  Zn184  1  0.06297232  0.31209328  0.06069870  1
  Zn  Zn185  1  0.06277687  0.31300659  0.56335824  1
  Zn  Zn186  1  0.05944726  0.81311423  0.06146691  1
  Zn  Zn187  1  0.06140876  0.81126634  0.56173770  1
  Zn  Zn188  1  0.56258586  0.31326212  0.06240723  1
  Zn  Zn189  1  0.56330013  0.31585759  0.56189177  1
  Zn  Zn190  1  0.56231699  0.81236352  0.06575985  1
  Zn  Zn191  1  0.56386891  0.81008212  0.56453914  1
  O  O192  1  0.12014005  0.11994837  0.11779199  1
  O  O193  1  0.12066958  0.11772966  0.62103611  1
  O  O194  1  0.12508746  0.61095026  0.12579764  1
  O  O195  1  0.12234425  0.61851893  0.61771647  1
  O  O196  1  0.62070016  0.12023701  0.11888840  1
  O  O197  1  0.61860759  0.12539440  0.61837124  1
  O  O198  1  0.61868989  0.61868409  0.11753527  1
  O  O199  1  0.62328441  0.62172540  0.62532231  1
  O  O200  1  0.38024346  0.37806743  0.37995108  1
  O  O201  1  0.38222936  0.38061895  0.87505101  1
  O  O202  1  0.37894052  0.87827656  0.38835842  1
  O  O203  1  0.38087639  0.88008458  0.88104871  1
  O  O204  1  0.88289749  0.37671041  0.38126103  1
  O  O205  1  0.88007852  0.38011508  0.87950683  1
  O  O206  1  0.88176496  0.87552915  0.38306104  1
  O  O207  1  0.87347757  0.88185398  0.88130839  1
  O  O208  1  0.24857792  0.00543586  0.36851970  1
  O  O209  1  0.26018120  0.00163071  0.87220202  1
  O  O210  1  0.25477927  0.50248016  0.36970004  1
  O  O211  1  0.25533051  0.50016536  0.86851955  1
  O  O212  1  0.75181258  0.00882854  0.36889140  1
  O  O213  1  0.75433473  0.00700141  0.87009104  1
  O  O214  1  0.75247757  0.50899678  0.36609735  1
  O  O215  1  0.75610490  0.50575497  0.87012791  1
  O  O216  1  0.24390640  0.49011918  0.12984194  1
  O  O217  1  0.24212078  0.49796197  0.63213385  1
  O  O218  1  0.24401938  0.99261826  0.13042387  1
  O  O219  1  0.23665529  0.99943405  0.62625588  1
  O  O220  1  0.74429532  0.49514425  0.12804203  1
  O  O221  1  0.75077577  0.49312528  0.63332570  1
  O  O222  1  0.74452615  0.99588808  0.13033028  1
  O  O223  1  0.74876548  0.99466884  0.63334630  1
  O  O224  1  0.00539095  0.36820623  0.25507093  1
  O  O225  1  0.00534030  0.36971536  0.75571582  1
  O  O226  1  0.00304064  0.86950401  0.25680981  1
  O  O227  1  0.01118675  0.86962715  0.75063513  1
  O  O228  1  0.50305198  0.36701723  0.25717029  1
  O  O229  1  0.50561924  0.36906529  0.75576520  1
  O  O230  1  0.50054276  0.86401944  0.24975191  1
  O  O231  1  0.50432480  0.87052915  0.75726663  1
  O  O232  1  0.50036346  0.13095010  0.24336536  1
  O  O233  1  0.49608278  0.13141772  0.74441027  1
  O  O234  1  0.49738316  0.63261717  0.24178344  1
  O  O235  1  0.48904572  0.63270142  0.75410891  1
  O  O236  1  0.99578078  0.13050519  0.24494098  1
  O  O237  1  0.99542344  0.13039120  0.74540360  1
  O  O238  1  0.99345790  0.63122725  0.24845227  1
  O  O239  1  0.99168291  0.63281865  0.74740731  1
  O  O240  1  0.37427021  0.25254090  0.00933730  1
  O  O241  1  0.36931283  0.25390503  0.50456185  1
  O  O242  1  0.36877540  0.75571574  0.00434988  1
  O  O243  1  0.36723253  0.75894228  0.50101126  1
  O  O244  1  0.87003675  0.25488816  0.00465813  1
  O  O245  1  0.86947378  0.25777794  0.50182889  1
  O  O246  1  0.86789294  0.75507148  0.00419548  1
  O  O247  1  0.87281357  0.76201308  0.50625829  1
  O  O248  1  0.12990405  0.24427918  0.49434933  1
  O  O249  1  0.12634926  0.23957348  0.99497459  1
  O  O250  1  0.13424892  0.74495497  0.49828929  1
  O  O251  1  0.12926456  0.75331254  0.98989338  1
  O  O252  1  0.63193633  0.24563608  0.49467808  1
  O  O253  1  0.63068276  0.24463803  0.99430009  1
  O  O254  1  0.62877963  0.74642677  0.49703548  1
  O  O255  1  0.62928518  0.74438541  0.99578479  1
  O  O256  1  0.49696663  0.24478326  0.13012436  1
  O  O257  1  0.49471168  0.24581001  0.63023575  1
  O  O258  1  0.49311839  0.74390600  0.12996302  1
  O  O259  1  0.49604549  0.74978508  0.63818875  1
  O  O260  1  0.99495974  0.24496923  0.13073133  1
  O  O261  1  1.00042161  0.24332790  0.63273251  1
  O  O262  1  0.99239637  0.74968948  0.13175135  1
  O  O263  1  0.99239424  0.74910071  0.63124891  1
  O  O264  1  0.00636995  0.25514041  0.36919391  1
  O  O265  1  0.00652672  0.25557209  0.86941999  1
  O  O266  1  -0.00054446  0.76064200  0.36857252  1
  O  O267  1  0.00915324  0.75378159  0.86814489  1
  O  O268  1  0.50632098  0.25421230  0.37016934  1
  O  O269  1  0.50641655  0.25488201  0.86958215  1
  O  O270  1  0.49862132  0.74913784  0.36091371  1
  O  O271  1  0.50480257  0.75621300  0.87152901  1
  O  O272  1  0.24325412  0.12984930  0.49426741  1
  O  O273  1  0.23754251  0.12531858  0.99982528  1
  O  O274  1  0.24589164  0.63204312  0.49562459  1
  O  O275  1  0.24449597  0.63386898  0.99672281  1
  O  O276  1  0.74670582  0.13094058  0.49607835  1
  O  O277  1  0.74502278  0.13112064  0.99473625  1
  O  O278  1  0.75325796  0.62711928  0.48601170  1
  O  O279  1  0.74361475  0.63047100  0.99465422  1
  O  O280  1  0.25144899  0.37148197  0.01340609  1
  O  O281  1  0.25632460  0.36608984  0.50026963  1
  O  O282  1  0.25516682  0.86980689  0.00668163  1
  O  O283  1  0.25712694  0.86728381  0.49918250  1
  O  O284  1  0.75607787  0.36910250  0.00431946  1
  O  O285  1  0.75625718  0.37101404  0.50444209  1
  O  O286  1  0.75405054  0.86892774  0.00607822  1
  O  O287  1  0.75946011  0.87675971  0.50595103  1
  O  O288  1  0.13118250  0.49210918  0.24223390  1
  O  O289  1  0.12870833  0.49552264  0.74553730  1
  O  O290  1  0.13003689  0.99243397  0.24352674  1
  O  O291  1  0.12530166  0.99182917  0.74259699  1
  O  O292  1  0.63188102  0.49847129  0.24089730  1
  O  O293  1  0.63342639  0.49244277  0.75313184  1
  O  O294  1  0.63228935  1.00120182  0.24299748  1
  O  O295  1  0.63088042  0.99392023  0.75075951  1
  O  O296  1  0.36623318  0.00022814  0.25214304  1
  O  O297  1  0.37709115  0.00596637  0.75583787  1
  O  O298  1  0.36783086  0.49938770  0.25696044  1
  O  O299  1  0.36917727  0.50701595  0.75573341  1
  O  O300  1  0.86810239  0.00806241  0.25022848  1
  O  O301  1  0.86890428  0.00574848  0.75586470  1
  O  O302  1  0.86862899  0.50702902  0.24919290  1
  O  O303  1  0.86953182  0.50605164  0.75591489  1
  O  O304  1  0.12035228  0.36818453  0.36943081  1
  O  O305  1  0.11954820  0.36957688  0.86976587  1
  O  O306  1  0.11465355  0.87258180  0.36930481  1
  O  O307  1  0.12438280  0.86765618  0.86538363  1
  O  O308  1  0.61955000  0.36831738  0.37393672  1
  O  O309  1  0.62046824  0.36898493  0.86946049  1
  O  O310  1  0.62020075  0.87169100  0.37022108  1
  O  O311  1  0.61930981  0.86976746  0.87165712  1
  O  O312  1  0.38277117  0.13035980  0.12642685  1
  O  O313  1  0.38163625  0.13097125  0.62969167  1
  O  O314  1  0.38011468  0.63061927  0.12548316  1
  O  O315  1  0.37405041  0.62624843  0.64069072  1
  O  O316  1  0.88000717  0.13147097  0.12978091  1
  O  O317  1  0.88242865  0.12595648  0.63252118  1
  O  O318  1  0.87477808  0.63208585  0.13071514  1
  O  O319  1  0.87410907  0.63319843  0.63193172  1
  O  O320  1  0.25592874  0.25802686  0.12641575  1
  O  O321  1  0.25659619  0.25004468  0.61740193  1
  O  O322  1  0.25343455  0.75496399  0.12050272  1
  O  O323  1  0.25227271  0.75116895  0.61118819  1
  O  O324  1  0.75574258  0.25479370  0.11905537  1
  O  O325  1  0.75333038  0.25738282  0.61838120  1
  O  O326  1  0.75422738  0.75481750  0.11962813  1
  O  O327  1  0.75801898  0.75997916  0.62625276  1
  O  O328  1  0.24326887  0.24359198  0.37897509  1
  O  O329  1  0.24256299  0.24710903  0.87794666  1
  O  O330  1  0.25037657  0.74350980  0.38593984  1
  O  O331  1  0.23937728  0.75143968  0.88101902  1
  O  O332  1  0.74595851  0.24563913  0.38074015  1
  O  O333  1  0.74478694  0.24517112  0.88015972  1
  O  O334  1  0.74831815  0.73922839  0.37365410  1
  O  O335  1  0.74349822  0.74472303  0.88102537  1
  O  O336  1  0.01046462  0.12412994  0.00650738  1
  O  O337  1  0.00668227  0.12361296  0.50626069  1
  O  O338  1  0.00520268  0.62083927  0.00510411  1
  O  O339  1  0.00574326  0.61984841  0.49896725  1
  O  O340  1  0.50706898  0.11910179  0.00584781  1
  O  O341  1  0.50505950  0.11948424  0.50425791  1
  O  O342  1  0.50452496  0.61923793  0.00416215  1
  O  O343  1  0.49928424  0.62316552  0.50521343  1
  O  O344  1  0.49190324  0.37368460  0.49158744  1
  O  O345  1  0.50010914  0.38169774  0.99244565  1
  O  O346  1  0.49248549  0.88430942  0.50178101  1
  O  O347  1  0.49444255  0.87980005  0.99623908  1
  O  O348  1  0.99635061  0.38006576  0.49432948  1
  O  O349  1  0.99364133  0.37572448  0.99268840  1
  O  O350  1  0.99155091  0.87447789  0.49139845  1
  O  O351  1  0.98972739  0.87824803  0.99783986  1
  O  O352  1  0.49220141  0.49239977  0.37349011  1
  O  O353  1  0.49454101  0.49439678  0.87978435  1
  O  O354  1  0.49894992  1.00204026  0.38832492  1
  O  O355  1  0.49585604  0.99421654  0.88259264  1
  O  O356  1  1.00026565  0.49242010  0.38041937  1
  O  O357  1  0.99353455  0.49297370  0.87472244  1
  O  O358  1  0.99751465  0.98663172  0.37523426  1
  O  O359  1  0.99046260  0.99773611  0.87712441  1
  O  O360  1  0.00663453  0.00685148  0.12459101  1
  O  O361  1  0.01155004  0.00630174  0.62520758  1
  O  O362  1  0.01322537  0.49758296  0.12465444  1
  O  O363  1  0.00659367  0.50261524  0.61754989  1
  O  O364  1  0.50525823  0.00486484  0.12004888  1
  O  O365  1  0.50212132  0.00754989  0.61401123  1
  O  O366  1  0.50430567  0.50378368  0.11953922  1
  O  O367  1  0.50379689  0.50338413  0.62352142  1
  O  O368  1  0.24493537  0.37784188  0.24160257  1
  O  O369  1  0.24248842  0.38169271  0.74792645  1
  O  O370  1  0.24407794  0.87764125  0.24567695  1
  O  O371  1  0.23776709  0.87610069  0.74554762  1
  O  O372  1  0.75032758  0.38145480  0.24218821  1
  O  O373  1  0.74599948  0.37997292  0.74551873  1
  O  O374  1  0.75015344  0.88227504  0.24305465  1
  O  O375  1  0.74441900  0.88134232  0.74662788  1
  O  O376  1  0.24911587  0.11647989  0.25595010  1
  O  O377  1  0.26017324  0.12249283  0.75249665  1
  O  O378  1  0.25134880  0.61707259  0.25739894  1
  O  O379  1  0.25754889  0.61980218  0.75304288  1
  O  O380  1  0.75605863  0.12160087  0.25551446  1
  O  O381  1  0.75477559  0.12125023  0.75570424  1
  O  O382  1  0.75549472  0.62009273  0.25487571  1
  O  O383  1  0.75580188  0.62102524  0.75758759  1
  O  O384  1  0.36513545  0.12238312  0.37269569  1
  O  O385  1  0.37751641  0.11847089  0.86943884  1
  O  O386  1  0.36662950  0.61601361  0.37338919  1
  O  O387  1  0.37212956  0.61847704  0.86532508  1
  O  O388  1  0.87034483  0.12481027  0.36856622  1
  O  O389  1  0.86910285  0.12061985  0.87022377  1
  O  O390  1  0.86607270  0.62441637  0.36598388  1
  O  O391  1  0.86923083  0.62076489  0.87011520  1
  O  O392  1  0.13315867  0.37920344  0.13014278  1
  O  O393  1  0.12588199  0.38181587  0.63235261  1
  O  O394  1  0.12957282  0.87918617  0.13019306  1
  O  O395  1  0.12438513  0.88289495  0.63156260  1
  O  O396  1  0.63283575  0.38128485  0.12468640  1
  O  O397  1  0.63346644  0.37519782  0.63272172  1
  O  O398  1  0.63187754  0.88266962  0.12592829  1
  O  O399  1  0.63193255  0.87767912  0.63384824  1
  O  O400  1  0.11953163  0.25373327  0.25502483  1
  O  O401  1  0.12025940  0.25491276  0.75545524  1
  O  O402  1  0.11838290  0.75601492  0.25162141  1
  O  O403  1  0.12148443  0.75738291  0.75475306  1
  O  O404  1  0.62001319  0.25140518  0.25721968  1
  O  O405  1  0.62002008  0.25560745  0.75564116  1
  O  O406  1  0.61146654  0.75150375  0.24648900  1
  O  O407  1  0.61888837  0.75656892  0.75851504  1
  O  O408  1  0.38321589  0.24650912  0.24316368  1
  O  O409  1  0.38181361  0.24511702  0.74468001  1
  O  O410  1  0.38276644  0.74830174  0.24246090  1
  O  O411  1  0.37862797  0.74254197  0.75230325  1
  O  O412  1  0.88076117  0.24495451  0.24390742  1
  O  O413  1  0.88261431  0.24303031  0.75014766  1
  O  O414  1  0.87985589  0.74517032  0.24273118  1
  O  O415  1  0.87966772  0.74670882  0.74596263  1
  O  O416  1  0.37351967  0.49107854  0.49263410  1
  O  O417  1  0.38084889  0.49798104  0.99311760  1
  O  O418  1  0.38312919  0.99354146  0.49981327  1
  O  O419  1  0.38124722  0.99406990  0.99620231  1
  O  O420  1  0.88282544  0.49369412  0.49795407  1
  O  O421  1  0.87543470  0.49306824  0.99293963  1
  O  O422  1  0.87870082  0.98784357  0.49914021  1
  O  O423  1  0.87387190  0.99442987  0.99405495  1
  O  O424  1  0.12403206  0.00811470  0.00555476  1
  O  O425  1  0.12276827  0.00477483  0.50915806  1
  O  O426  1  0.12496504  0.49925045  0.01140670  1
  O  O427  1  0.12041274  0.50483377  0.50505102  1
  O  O428  1  0.62008707  0.00585344  0.00555658  1
  O  O429  1  0.61634580  0.00739642  0.50218010  1
  O  O430  1  0.61899505  0.50588473  0.00377798  1
  O  O431  1  0.62103451  0.50633008  0.50260355  1
  O  O432  1  0.36605810  0.36859896  0.12512464  1
  O  O433  1  0.37304903  0.36678913  0.61865050  1
  O  O434  1  0.36811083  0.86892634  0.11863870  1
  O  O435  1  0.37179021  0.87472373  0.61305163  1
  O  O436  1  0.87033486  0.36924835  0.11902401  1
  O  O437  1  0.86940631  0.37314797  0.61859763  1
  O  O438  1  0.86799216  0.86957734  0.11951355  1
  O  O439  1  0.87091851  0.87205657  0.61863827  1
  O  O440  1  0.12873983  0.12963641  0.38022461  1
  O  O441  1  0.12495057  0.12924774  0.88408917  1
  O  O442  1  0.13290394  0.62571968  0.38178593  1
  O  O443  1  0.12547315  0.63927718  0.87311100  1
  O  O444  1  0.63259916  0.13247545  0.38188908  1
  O  O445  1  0.63032417  0.13069917  0.88052512  1
  O  O446  1  0.63733509  0.62773309  0.37211222  1
  O  O447  1  0.63001083  0.63060238  0.88038418  1
