# generated using pymatgen
data_V3Zn3O8
_symmetry_space_group_name_H-M   'P 1'
_cell_length_a   17.08755148
_cell_length_b   17.08772972
_cell_length_c   17.08805633
_cell_angle_alpha   90.00062114
_cell_angle_beta   90.00146157
_cell_angle_gamma   90.00944681
_symmetry_Int_Tables_number   1
_chemical_formula_structural   V3Zn3O8
_chemical_formula_sum   'V96 Zn96 O256'
_cell_volume   4989.49811409
_cell_formula_units_Z   32
loop_
 _symmetry_equiv_pos_site_id
 _symmetry_equiv_pos_as_xyz
  1  'x, y, z'
loop_
 _atom_site_type_symbol
 _atom_site_label
 _atom_site_symmetry_multiplicity
 _atom_site_fract_x
 _atom_site_fract_y
 _atom_site_fract_z
 _atom_site_occupancy
  V  V0  1  0.37410650  -0.00024659  0.37402155  1
  V  V1  1  0.87494247  0.12451927  0.25045990  1
  V  V2  1  -0.00044133  0.24978615  0.74998227  1
  V  V3  1  0.75000852  0.12435221  0.37496501  1
  V  V4  1  0.62575775  -0.00168216  0.12452833  1
  V  V5  1  0.00124334  0.62477669  0.12599199  1
  V  V6  1  -0.00011737  0.37511383  0.87601068  1
  V  V7  1  0.87525135  0.62454977  0.25147646  1
  V  V8  1  0.12442970  0.75108967  0.87450939  1
  V  V9  1  0.50000399  0.62417159  0.62460939  1
  V  V10  1  0.25011428  0.49959855  0.74951674  1
  V  V11  1  0.12326640  0.12582992  0.50060308  1
  V  V12  1  0.00066276  0.49839763  0.00051045  1
  V  V13  1  0.12569616  0.74953206  0.37534317  1
  V  V14  1  0.24935636  0.24902029  -0.00093920  1
  V  V15  1  0.24924197  0.87723322  0.12582210  1
  V  V16  1  0.62515426  0.87398202  0.74989995  1
  V  V17  1  0.00011223  0.62609805  0.62553901  1
  V  V18  1  0.37579772  0.37559496  -0.00110018  1
  V  V19  1  0.62425031  0.24955323  0.37434995  1
  V  V20  1  0.00094658  0.00079480  0.00086508  1
  V  V21  1  0.62412688  0.12498058  0.49928600  1
  V  V22  1  0.87470789  0.87656465  0.49912037  1
  V  V23  1  0.12387893  0.37417403  0.25139107  1
  V  V24  1  0.25062557  0.12434884  0.37277905  1
  V  V25  1  0.50004527  0.24993042  0.74925022  1
  V  V26  1  0.00006640  0.50118160  0.50086835  1
  V  V27  1  0.25063295  0.25044091  0.50027339  1
  V  V28  1  0.37472719  -0.00050307  0.87353863  1
  V  V29  1  0.75027390  0.74787056  -0.00045277  1
  V  V30  1  0.62444609  0.75066974  0.37611780  1
  V  V31  1  0.87486020  -0.00058572  0.87548517  1
  V  V32  1  0.24960944  0.87499349  0.62458110  1
  V  V33  1  0.12312447  -0.00027966  0.62576772  1
  V  V34  1  0.75002745  0.87525377  0.62575850  1
  V  V35  1  0.74975909  0.62481515  0.87613624  1
  V  V36  1  0.25032216  0.62575998  0.37604963  1
  V  V37  1  0.50030852  0.87520520  0.37602814  1
  V  V38  1  0.87608053  0.87489600  -0.00073801  1
  V  V39  1  0.62496406  0.12466651  -0.00052524  1
  V  V40  1  0.87433510  0.25109642  0.12546899  1
  V  V41  1  0.62546846  0.37490610  0.74936095  1
  V  V42  1  0.74932672  0.49926667  0.24795513  1
  V  V43  1  0.37496225  0.12498520  0.74955157  1
  V  V44  1  0.87470592  0.25038749  0.62576367  1
  V  V45  1  -0.00069959  0.25146883  0.25128889  1
  V  V46  1  0.12597834  0.49943588  0.12562896  1
  V  V47  1  0.62451304  0.50061962  0.62402086  1
  V  V48  1  0.37509280  0.37412397  0.49924122  1
  V  V49  1  0.49969358  0.37600059  0.87549651  1
  V  V50  1  0.87448315  0.12541530  0.74913754  1
  V  V51  1  0.37449492  0.62387315  0.75007776  1
  V  V52  1  0.49953901  0.00062165  0.50002252  1
  V  V53  1  0.75051566  0.25084480  0.00057059  1
  V  V54  1  0.74934029  -0.00070939  0.75029983  1
  V  V55  1  -0.00017615  0.37651010  0.37615654  1
  V  V56  1  0.12468781  0.50069643  0.62569057  1
  V  V57  1  0.12643624  0.62467408  0.00114282  1
  V  V58  1  0.49981080  0.24880446  0.24820198  1
  V  V59  1  0.49963983  0.37480603  0.37414523  1
  V  V60  1  0.12431692  0.12518723  -0.00006064  1
  V  V61  1  0.87537304  0.37438516  0.00046740  1
  V  V62  1  0.49966080  0.75016424  0.75021117  1
  V  V63  1  0.87573249  0.75001975  0.12449474  1
  V  V64  1  0.25018188  0.74952330  0.00136406  1
  V  V65  1  0.37537315  0.49981350  0.87468344  1
  V  V66  1  0.50034292  0.74973281  0.25040975  1
  V  V67  1  0.12573272  0.24975297  0.87492491  1
  V  V68  1  0.37489888  0.49878299  0.37524335  1
  V  V69  1  0.62598987  0.37540717  0.24925248  1
  V  V70  1  0.37507393  0.25070342  0.62419562  1
  V  V71  1  0.49964989  0.87442109  0.87377254  1
  V  V72  1  0.74951927  0.62641315  0.37532208  1
  V  V73  1  0.37342665  0.75006371  0.62478895  1
  V  V74  1  0.25002188  0.00056650  0.74990602  1
  V  V75  1  0.25032795  0.49887925  0.25102861  1
  V  V76  1  0.37554929  0.24881122  0.12391640  1
  V  V77  1  0.75020684  0.37502201  0.62437254  1
  V  V78  1  0.87503497  0.37580366  0.50102218  1
  V  V79  1  0.12496642  0.87620895  0.24969277  1
  V  V80  1  0.37633156  0.74932547  0.12614218  1
  V  V81  1  0.00029993  0.74994993  0.24985181  1
  V  V82  1  0.62476026  0.62537270  0.50033139  1
  V  V83  1  0.49957026  -0.00165012  -0.00126934  1
  V  V84  1  0.74966391  0.12469370  0.87494579  1
  V  V85  1  0.62470517  0.25014659  0.87451936  1
  V  V86  1  0.75118452  0.50080219  0.75017896  1
  V  V87  1  0.74962157  0.87519556  0.12479104  1
  V  V88  1  0.87575785  0.75064490  0.62605700  1
  V  V89  1  -0.00092344  0.87563443  0.37501712  1
  V  V90  1  0.87616660  0.62571123  0.74945177  1
  V  V91  1  0.12527247  0.37533275  0.74945299  1
  V  V92  1  0.50047593  0.12449621  0.62380450  1
  V  V93  1  0.25003059  0.37420051  0.12498168  1
  V  V94  1  0.49958428  0.12404637  0.12434520  1
  V  V95  1  0.37393174  0.87431063  0.50048331  1
  Zn  Zn96  1  0.25038094  0.12437312  0.87420861  1
  Zn  Zn97  1  0.25082847  0.62468548  0.87580235  1
  Zn  Zn98  1  0.37739600  0.62249474  0.25018060  1
  Zn  Zn99  1  0.25007408  0.37537045  0.62396192  1
  Zn  Zn100  1  0.74868951  0.75093829  0.50033052  1
  Zn  Zn101  1  0.24824965  0.75002898  0.50071928  1
  Zn  Zn102  1  0.62459091  0.62223513  0.00366125  1
  Zn  Zn103  1  0.74967437  -0.00191973  0.24918653  1
  Zn  Zn104  1  0.50327901  0.62512403  0.12191342  1
  Zn  Zn105  1  0.00157896  0.75275741  0.74990189  1
  Zn  Zn106  1  0.61830308  0.50065209  0.12430840  1
  Zn  Zn107  1  0.12492715  0.25052141  0.37556174  1
  Zn  Zn108  1  0.12417484  0.62674125  0.50143721  1
  Zn  Zn109  1  0.62261838  0.74773108  0.87735668  1
  Zn  Zn110  1  0.62768422  0.87665182  0.25107319  1
  Zn  Zn111  1  0.87566935  0.00008360  0.37448214  1
  Zn  Zn112  1  0.37439257  0.12285951  0.24795776  1
  Zn  Zn113  1  0.87630901  0.49956801  0.87528976  1
  Zn  Zn114  1  0.12331735  0.87532552  0.75101117  1
  Zn  Zn115  1  0.62463759  -0.00025966  0.62471159  1
  Zn  Zn116  1  0.00158438  0.12508933  0.12751093  1
  Zn  Zn117  1  0.49991796  0.49923122  0.49881766  1
  Zn  Zn118  1  0.37540399  0.87460551  -0.00149109  1
  Zn  Zn119  1  -0.00207714  0.12488868  0.62433077  1
  Zn  Zn120  1  0.50097671  0.50407796  0.00233775  1
  Zn  Zn121  1  0.00044969  0.87437564  0.87282355  1
  Zn  Zn122  1  -0.00143638  0.00189935  0.49879715  1
  Zn  Zn123  1  0.24925613  0.00103505  0.24881676  1
  Zn  Zn124  1  0.87506614  0.50128572  0.37661740  1
  Zn  Zn125  1  0.74996393  0.25049916  0.50054624  1
  Zn  Zn126  1  0.12512130  0.00213110  0.12599676  1
  Zn  Zn127  1  0.74746586  0.37657278  0.12307257  1
  Zn  Zn128  1  0.18536749  0.18821277  0.18616028  1
  Zn  Zn129  1  0.18877239  0.18767049  0.68709662  1
  Zn  Zn130  1  0.18865618  0.68803355  0.18992710  1
  Zn  Zn131  1  0.18811768  0.68625257  0.68896770  1
  Zn  Zn132  1  0.68749123  0.18760140  0.18647916  1
  Zn  Zn133  1  0.68780768  0.18731982  0.68622285  1
  Zn  Zn134  1  0.68618656  0.68680631  0.18704601  1
  Zn  Zn135  1  0.68786469  0.68890020  0.68810974  1
  Zn  Zn136  1  0.31309931  0.31031107  0.31180289  1
  Zn  Zn137  1  0.31183603  0.31338704  0.81205071  1
  Zn  Zn138  1  0.31275058  0.81267774  0.31171997  1
  Zn  Zn139  1  0.31040667  0.81325864  0.81155862  1
  Zn  Zn140  1  0.81294397  0.31323293  0.31461337  1
  Zn  Zn141  1  0.81266695  0.31305991  0.81348400  1
  Zn  Zn142  1  0.81137946  0.81165338  0.31200750  1
  Zn  Zn143  1  0.81326675  0.81127199  0.81292109  1
  Zn  Zn144  1  0.18639931  0.43845051  0.43900395  1
  Zn  Zn145  1  0.18889150  0.43697844  0.93655611  1
  Zn  Zn146  1  0.18712885  0.93770491  0.43799581  1
  Zn  Zn147  1  0.18839298  0.93685073  0.93802265  1
  Zn  Zn148  1  0.68788787  0.43880006  0.43667317  1
  Zn  Zn149  1  0.68669194  0.43952524  0.93866077  1
  Zn  Zn150  1  0.68711452  0.93900474  0.43788454  1
  Zn  Zn151  1  0.68678171  0.93490632  0.93718675  1
  Zn  Zn152  1  0.31312875  0.06265089  0.05921670  1
  Zn  Zn153  1  0.31162720  0.06215145  0.56165238  1
  Zn  Zn154  1  0.31461016  0.56293121  0.06236574  1
  Zn  Zn155  1  0.31213395  0.56076991  0.56174108  1
  Zn  Zn156  1  0.81300771  0.06271805  0.06346266  1
  Zn  Zn157  1  0.81074199  0.06163937  0.56299177  1
  Zn  Zn158  1  0.81418526  0.56174831  0.06288842  1
  Zn  Zn159  1  0.81236118  0.56329328  0.56234958  1
  Zn  Zn160  1  0.43744334  0.43745085  0.18737731  1
  Zn  Zn161  1  0.43749265  0.43737240  0.68674327  1
  Zn  Zn162  1  0.43741004  0.93704023  0.18925605  1
  Zn  Zn163  1  0.43750325  0.93759898  0.68705216  1
  Zn  Zn164  1  0.93571786  0.43763277  0.18768191  1
  Zn  Zn165  1  0.93768783  0.43861758  0.68777173  1
  Zn  Zn166  1  0.93664678  0.93811140  0.18678519  1
  Zn  Zn167  1  0.93939946  0.93620674  0.68885821  1
  Zn  Zn168  1  0.06217045  0.05993282  0.31328141  1
  Zn  Zn169  1  0.06162481  0.06421824  0.81351098  1
  Zn  Zn170  1  0.06340879  0.56163437  0.31406404  1
  Zn  Zn171  1  0.06297127  0.56414216  0.81305339  1
  Zn  Zn172  1  0.56259207  0.06113687  0.31025712  1
  Zn  Zn173  1  0.56231994  0.06092520  0.81141796  1
  Zn  Zn174  1  0.56341317  0.56286679  0.31213168  1
  Zn  Zn175  1  0.56263883  0.56190419  0.81304991  1
  Zn  Zn176  1  0.43722177  0.18771292  0.43644324  1
  Zn  Zn177  1  0.43724258  0.18676490  0.93653034  1
  Zn  Zn178  1  0.43673910  0.68714931  0.43880598  1
  Zn  Zn179  1  0.43753297  0.68649001  0.93806001  1
  Zn  Zn180  1  0.93740538  0.19133954  0.43755518  1
  Zn  Zn181  1  0.93771988  0.18701940  0.93721472  1
  Zn  Zn182  1  0.93703254  0.68904301  0.43856209  1
  Zn  Zn183  1  0.93839403  0.68573784  0.93751967  1
  Zn  Zn184  1  0.06132642  0.31060607  0.06413606  1
  Zn  Zn185  1  0.06163293  0.31321281  0.56378406  1
  Zn  Zn186  1  0.06336996  0.81321944  0.06096874  1
  Zn  Zn187  1  0.06167984  0.81205721  0.56074189  1
  Zn  Zn188  1  0.56291466  0.31482195  0.06261844  1
  Zn  Zn189  1  0.56242228  0.31199579  0.56061651  1
  Zn  Zn190  1  0.56511874  0.81158649  0.06040946  1
  Zn  Zn191  1  0.56212661  0.81218747  0.56330345  1
  O  O192  1  0.12197441  0.12266814  0.11621883  1
  O  O193  1  0.12614871  0.11703514  0.61559901  1
  O  O194  1  0.12073183  0.61947844  0.12178915  1
  O  O195  1  0.11851651  0.61881052  0.62430970  1
  O  O196  1  0.61972422  0.11975569  0.11783866  1
  O  O197  1  0.61819830  0.12439431  0.61795648  1
  O  O198  1  0.62209809  0.62113317  0.12320377  1
  O  O199  1  0.62004597  0.62026529  0.62078959  1
  O  O200  1  0.37983957  0.37864966  0.37943658  1
  O  O201  1  0.38056609  0.37948560  0.87906711  1
  O  O202  1  0.37981486  0.87991532  0.38092979  1
  O  O203  1  0.38156363  0.88163737  0.87468583  1
  O  O204  1  0.88165945  0.37681880  0.38305781  1
  O  O205  1  0.88254090  0.37561872  0.88203325  1
  O  O206  1  0.87914705  0.87477846  0.38334105  1
  O  O207  1  0.87537515  0.88187416  0.88229805  1
  O  O208  1  0.25519421  0.00970927  0.37558114  1
  O  O209  1  0.25622824  0.00071578  0.86819377  1
  O  O210  1  0.25413519  0.50672121  0.37010875  1
  O  O211  1  0.25666769  0.50066334  0.86774283  1
  O  O212  1  0.75120252  0.01339600  0.37208463  1
  O  O213  1  0.75493484  0.00573511  0.87060395  1
  O  O214  1  0.75139918  0.50696943  0.36436766  1
  O  O215  1  0.75290035  0.50840150  0.86832521  1
  O  O216  1  0.24557047  0.49393546  0.13079586  1
  O  O217  1  0.24331397  0.49802009  0.63130798  1
  O  O218  1  0.25036593  0.98786873  0.12458165  1
  O  O219  1  0.24225154  0.99578323  0.62940483  1
  O  O220  1  0.75187129  0.49908536  0.13990570  1
  O  O221  1  0.74405113  0.49492727  0.63082874  1
  O  O222  1  0.74383000  0.99356423  0.12378010  1
  O  O223  1  0.74803001  0.99343892  0.63298645  1
  O  O224  1  0.00439772  0.37163318  0.25576860  1
  O  O225  1  0.00513153  0.36965372  0.75607640  1
  O  O226  1  0.00394763  0.86895622  0.25407815  1
  O  O227  1  0.00538870  0.87150518  0.75516470  1
  O  O228  1  0.50543063  0.36786571  0.25551309  1
  O  O229  1  0.50613118  0.36873234  0.75453432  1
  O  O230  1  0.50108940  0.86503795  0.25757956  1
  O  O231  1  0.50481974  0.86986173  0.75369419  1
  O  O232  1  0.49891556  0.13133136  0.24201806  1
  O  O233  1  0.49523108  0.13065006  0.74417692  1
  O  O234  1  0.49742394  0.64014700  0.25199337  1
  O  O235  1  0.49452795  0.62986733  0.74418501  1
  O  O236  1  0.98993842  0.13129894  0.25230085  1
  O  O237  1  0.99193194  0.13209793  0.74933891  1
  O  O238  1  0.99600139  0.62987784  0.24503791  1
  O  O239  1  0.99334201  0.62637159  0.74350110  1
  O  O240  1  0.36945624  0.25500099  0.00409522  1
  O  O241  1  0.37044909  0.25446365  0.50478805  1
  O  O242  1  0.36921540  0.75243341  0.01036442  1
  O  O243  1  0.37318731  0.75682061  0.50723838  1
  O  O244  1  0.87020032  0.25412279  0.00494118  1
  O  O245  1  0.87357094  0.25760259  0.50793195  1
  O  O246  1  0.87136251  0.75461433  0.00592506  1
  O  O247  1  0.87296605  0.76176581  0.50614473  1
  O  O248  1  0.13055552  0.24022870  0.50077818  1
  O  O249  1  0.12935026  0.24546473  0.99480910  1
  O  O250  1  0.12805094  0.74754774  0.49097189  1
  O  O251  1  0.13047587  0.74391070  0.99468283  1
  O  O252  1  0.62604153  0.24276080  0.49189431  1
  O  O253  1  0.62985455  0.24437789  0.99375872  1
  O  O254  1  0.62533752  0.74345053  0.49391856  1
  O  O255  1  0.63641715  0.74695857  0.99624163  1
  O  O256  1  0.49530613  0.24367690  0.12836008  1
  O  O257  1  0.49508002  0.24441128  0.63009566  1
  O  O258  1  0.49128601  0.75435048  0.13390277  1
  O  O259  1  0.49307742  0.74422419  0.63087768  1
  O  O260  1  0.99225221  0.24807628  0.13321669  1
  O  O261  1  0.99299359  0.24857649  0.63280181  1
  O  O262  1  0.99580955  0.74445300  0.12987449  1
  O  O263  1  0.99378879  0.74370231  0.62581007  1
  O  O264  1  0.00240265  0.25850223  0.36893494  1
  O  O265  1  0.00562231  0.25554117  0.86964007  1
  O  O266  1  0.00522436  0.75527266  0.36859162  1
  O  O267  1  0.01268141  0.75024042  0.87681743  1
  O  O268  1  0.50459512  0.25430502  0.36807722  1
  O  O269  1  0.50558542  0.25492589  0.86836493  1
  O  O270  1  0.50315764  0.75560016  0.36875628  1
  O  O271  1  0.49940890  0.75652802  0.86695835  1
  O  O272  1  0.24266835  0.12951112  0.49234940  1
  O  O273  1  0.24284591  0.13138367  0.99746280  1
  O  O274  1  0.24837245  0.62550449  0.48693612  1
  O  O275  1  0.24338736  0.63162107  1.00088822  1
  O  O276  1  0.74449446  0.12620373  0.49032953  1
  O  O277  1  0.74474010  0.13030038  0.99402412  1
  O  O278  1  0.74338557  0.62681412  0.49373039  1
  O  O279  1  0.75388080  0.62946873  0.99008790  1
  O  O280  1  0.25479394  0.36871969  0.00589833  1
  O  O281  1  0.25647464  0.36781659  0.50004623  1
  O  O282  1  0.25136913  0.86846354  0.01098704  1
  O  O283  1  0.25693204  0.87450943  0.50639669  1
  O  O284  1  0.75705324  0.36786341  -0.00026337  1
  O  O285  1  0.75587876  0.37437289  0.50657294  1
  O  O286  1  0.75707957  0.86864219  0.00442817  1
  O  O287  1  0.75896725  0.87508888  0.50552066  1
  O  O288  1  0.13051520  0.49379765  0.24417444  1
  O  O289  1  0.12976702  0.49492096  0.74569783  1
  O  O290  1  0.12736250  0.99207069  0.24593407  1
  O  O291  1  0.13051043  1.00299576  0.74002795  1
  O  O292  1  0.63478668  0.49374720  0.25096011  1
  O  O293  1  0.63100040  0.49409017  0.74383707  1
  O  O294  1  0.62745276  0.99760415  0.24019505  1
  O  O295  1  0.63184445  0.99308982  0.74851445  1
  O  O296  1  0.37118298  0.00293951  0.25828344  1
  O  O297  1  0.37005695  0.00602140  0.75373085  1
  O  O298  1  0.36671671  0.49961384  0.25743475  1
  O  O299  1  0.36982861  0.50400465  0.75439765  1
  O  O300  1  0.87334850  0.01296510  0.25113127  1
  O  O301  1  0.86936415  0.00542014  0.75566804  1
  O  O302  1  0.86719803  0.50644753  0.25273422  1
  O  O303  1  0.86825483  0.50695102  0.75117528  1
  O  O304  1  0.11872387  0.37397623  0.36894287  1
  O  O305  1  0.11922142  0.36905741  0.86983544  1
  O  O306  1  0.12017747  0.86972015  0.36970088  1
  O  O307  1  0.12456280  0.86289877  0.87567818  1
  O  O308  1  0.61984576  0.36903334  0.36964702  1
  O  O309  1  0.62058488  0.36874800  0.86813730  1
  O  O310  1  0.61807372  0.86925898  0.37546032  1
  O  O311  1  0.61811964  0.87266428  0.86734686  1
  O  O312  1  0.38152186  0.13099860  0.12424452  1
  O  O313  1  0.38086324  0.13046964  0.62908249  1
  O  O314  1  0.37317551  0.63966984  0.12953606  1
  O  O315  1  0.38005978  0.62929701  0.62976137  1
  O  O316  1  0.87484009  0.13177440  0.13584964  1
  O  O317  1  0.87473503  0.13126441  0.63124040  1
  O  O318  1  0.88212521  0.63059810  0.13105330  1
  O  O319  1  0.87948673  0.63114125  0.63003663  1
  O  O320  1  0.25519354  0.25525652  0.11905998  1
  O  O321  1  0.25774383  0.25102528  0.61802742  1
  O  O322  1  0.25678586  0.75799296  0.12300237  1
  O  O323  1  0.25576650  0.75628414  0.62430296  1
  O  O324  1  0.75605582  0.25117038  0.11760377  1
  O  O325  1  0.75633154  0.25748940  0.62442557  1
  O  O326  1  0.75747772  0.75459765  0.11982701  1
  O  O327  1  0.75737615  0.75742710  0.62350271  1
  O  O328  1  0.24882209  0.23978197  0.38106926  1
  O  O329  1  0.24361130  0.24948370  0.88131100  1
  O  O330  1  0.24543332  0.74097692  0.37395546  1
  O  O331  1  0.24216469  0.74882035  0.88251778  1
  O  O332  1  0.74354559  0.23948987  0.37581981  1
  O  O333  1  0.74411309  0.24414692  0.88001593  1
  O  O334  1  0.74201691  0.74363924  0.37574034  1
  O  O335  1  0.75127939  0.73958125  0.88066115  1
  O  O336  1  0.00473148  0.11674506  0.00122645  1
  O  O337  1  0.01157871  0.12470703  0.50070576  1
  O  O338  1  0.00611539  0.61857564  0.00753118  1
  O  O339  1  0.00009001  0.61907575  0.50696265  1
  O  O340  1  0.50614113  0.11916343  0.00422466  1
  O  O341  1  0.50417357  0.12020376  0.50402491  1
  O  O342  1  0.50441956  0.62380241  0.00191713  1
  O  O343  1  0.50608382  0.62283658  0.50692152  1
  O  O344  1  0.49364607  0.37517089  0.49159395  1
  O  O345  1  0.49216334  0.37344579  0.99161198  1
  O  O346  1  0.49360467  0.88059302  0.49552356  1
  O  O347  1  0.49925283  0.88113966  0.99232607  1
  O  O348  1  0.99483943  0.38111266  0.49630181  1
  O  O349  1  0.99590801  0.37899294  0.99553014  1
  O  O350  1  0.98978514  0.87587506  0.49382273  1
  O  O351  1  0.99452426  0.88448425  0.99872921  1
  O  O352  1  0.49312439  0.49283532  0.37421833  1
  O  O353  1  0.49257901  0.49190854  0.87319227  1
  O  O354  1  0.49432114  0.99537583  0.38030502  1
  O  O355  1  0.49454909  0.99459983  0.87883191  1
  O  O356  1  0.99863239  0.49434640  0.38218101  1
  O  O357  1  1.00048362  0.49328277  0.88287145  1
  O  O358  1  0.99665577  0.99101656  0.37847930  1
  O  O359  1  0.99357146  1.00042043  0.88590625  1
  O  O360  1  -0.00002136  0.00193740  0.11173097  1
  O  O361  1  0.01169117  0.00337361  0.62282080  1
  O  O362  1  0.00675082  0.50495093  0.12075009  1
  O  O363  1  0.00520997  0.50613922  0.62071714  1
  O  O364  1  0.50462849  0.00382030  0.11868587  1
  O  O365  1  0.50017065  0.00705548  0.61785869  1
  O  O366  1  0.49783785  0.50594892  0.12324760  1
  O  O367  1  0.50713115  0.50631766  0.62416268  1
  O  O368  1  0.24426514  0.37882988  0.24489398  1
  O  O369  1  0.24275618  0.38108854  0.74779701  1
  O  O370  1  0.24371323  0.87486837  0.24111992  1
  O  O371  1  0.24680574  0.88310017  0.74173391  1
  O  O372  1  0.74527254  0.38403942  0.25158964  1
  O  O373  1  0.74475111  0.38029274  0.74507596  1
  O  O374  1  0.74938781  0.87729667  0.24103087  1
  O  O375  1  0.74573516  0.88013621  0.74588057  1
  O  O376  1  0.24943619  0.12500641  0.26187940  1
  O  O377  1  0.25762247  0.11887251  0.75052090  1
  O  O378  1  0.25109523  0.61866213  0.26050890  1
  O  O379  1  0.25777943  0.61722541  0.75159353  1
  O  O380  1  0.75859902  0.12609130  0.25826023  1
  O  O381  1  0.75439891  0.12002112  0.75604517  1
  O  O382  1  0.75546027  0.61843657  0.25564623  1
  O  O383  1  0.75600003  0.62059615  0.75661803  1
  O  O384  1  0.36485870  0.11933474  0.37558476  1
  O  O385  1  0.37460950  0.11831502  0.86705030  1
  O  O386  1  0.36609669  0.61917759  0.37405222  1
  O  O387  1  0.37301343  0.61853914  0.86721242  1
  O  O388  1  0.86665436  0.12685599  0.36786944  1
  O  O389  1  0.86821763  0.11993046  0.86958649  1
  O  O390  1  0.86862710  0.62547048  0.36864578  1
  O  O391  1  0.86632117  0.62314011  0.86920866  1
  O  O392  1  0.13046882  0.37996161  0.13053346  1
  O  O393  1  0.12558439  0.38204557  0.63251533  1
  O  O394  1  0.13495882  0.87379096  0.13033286  1
  O  O395  1  0.13024396  0.88591600  0.62311195  1
  O  O396  1  0.62816927  0.37609127  0.13497628  1
  O  O397  1  0.62970357  0.37953591  0.62994089  1
  O  O398  1  0.63251546  0.88114148  0.12453695  1
  O  O399  1  0.63148100  0.87632352  0.63135330  1
  O  O400  1  0.11772476  0.25698126  0.25138284  1
  O  O401  1  0.12009385  0.25471311  0.75461224  1
  O  O402  1  0.11864484  0.75584199  0.25523329  1
  O  O403  1  0.12533312  0.75019108  0.76260954  1
  O  O404  1  0.61962119  0.25447857  0.25512259  1
  O  O405  1  0.61985908  0.25506702  0.75503430  1
  O  O406  1  0.61519771  0.75283809  0.25672039  1
  O  O407  1  0.61716370  0.75607148  0.75160592  1
  O  O408  1  0.38168280  0.24772922  0.24169082  1
  O  O409  1  0.38077166  0.24543096  0.74448004  1
  O  O410  1  0.38376483  0.75099931  0.24270636  1
  O  O411  1  0.37947453  0.74427649  0.74391271  1
  O  O412  1  0.87914977  0.24313021  0.24635172  1
  O  O413  1  0.87958528  0.24516351  0.74586135  1
  O  O414  1  0.88136855  0.74431374  0.24375221  1
  O  O415  1  0.87708511  0.74344040  0.74356472  1
  O  O416  1  0.37654561  0.49190313  0.49291112  1
  O  O417  1  0.37388955  0.49211194  0.99241286  1
  O  O418  1  0.38022695  0.99457973  0.49436753  1
  O  O419  1  0.38224758  0.99797436  0.99202254  1
  O  O420  1  0.88186873  0.49354976  0.50019263  1
  O  O421  1  0.88359284  0.49273256  1.00001985  1
  O  O422  1  0.87664095  0.98844245  0.49924914  1
  O  O423  1  0.88206325  0.99622848  0.99507227  1
  O  O424  1  0.11589833  0.00567105  -0.00027059  1
  O  O425  1  0.12564256  0.00970408  0.50920970  1
  O  O426  1  0.12115320  0.50404085  0.00674186  1
  O  O427  1  0.11785586  0.50184750  0.50787536  1
  O  O428  1  0.61948190  0.00587977  0.00390416  1
  O  O429  1  0.61688452  0.00728563  0.50110792  1
  O  O430  1  0.62132853  0.50152191  0.00485873  1
  O  O431  1  0.62330709  0.50668609  0.50645461  1
  O  O432  1  0.36852494  0.36799565  0.11919946  1
  O  O433  1  0.37495396  0.36793810  0.61796558  1
  O  O434  1  0.36598670  0.86592496  0.12535755  1
  O  O435  1  0.36964504  0.87008581  0.62004124  1
  O  O436  1  0.87291045  0.36808677  0.11851012  1
  O  O437  1  0.86934887  0.37018699  0.62129933  1
  O  O438  1  0.87036618  0.86899806  0.11868232  1
  O  O439  1  0.87046786  0.87111158  0.61791818  1
  O  O440  1  0.13338613  0.12461005  0.38479127  1
  O  O441  1  0.12671397  0.13251152  0.88182620  1
  O  O442  1  0.13449155  0.63037130  0.37499923  1
  O  O443  1  0.12762895  0.63326682  0.88295100  1
  O  O444  1  0.63159895  0.12955979  0.37835548  1
  O  O445  1  0.62967106  0.13020361  0.87973675  1
  O  O446  1  0.62949975  0.63095229  0.38079504  1
  O  O447  1  0.64021215  0.62592095  0.87320525  1
