# generated using pymatgen
data_V3Zn3O8
_symmetry_space_group_name_H-M   'P 1'
_cell_length_a   17.08868831
_cell_length_b   17.08877950
_cell_length_c   17.08855238
_cell_angle_alpha   89.98274038
_cell_angle_beta   89.99167010
_cell_angle_gamma   89.99088143
_symmetry_Int_Tables_number   1
_chemical_formula_structural   V3Zn3O8
_chemical_formula_sum   'V96 Zn96 O256'
_cell_volume   4990.28120077
_cell_formula_units_Z   32
loop_
 _symmetry_equiv_pos_site_id
 _symmetry_equiv_pos_as_xyz
  1  'x, y, z'
loop_
 _atom_site_type_symbol
 _atom_site_label
 _atom_site_symmetry_multiplicity
 _atom_site_fract_x
 _atom_site_fract_y
 _atom_site_fract_z
 _atom_site_occupancy
  V  V0  1  0.00055106  0.74926558  0.75043212  1
  V  V1  1  0.12392393  0.50023040  0.12768318  1
  V  V2  1  0.87373337  0.87398490  0.49985136  1
  V  V3  1  0.62403344  0.75154397  0.37378626  1
  V  V4  1  -0.00020026  -0.00129702  -0.00080935  1
  V  V5  1  0.49990284  0.87509025  0.37423948  1
  V  V6  1  0.00271750  0.37358976  0.87460446  1
  V  V7  1  -0.00037432  0.87521964  0.87649844  1
  V  V8  1  0.00026321  0.12488811  0.12518281  1
  V  V9  1  0.74897290  0.62555464  0.37473177  1
  V  V10  1  0.24947861  0.37596174  0.12654822  1
  V  V11  1  0.74962404  0.12578999  0.37537521  1
  V  V12  1  0.24909252  0.49787748  0.75010472  1
  V  V13  1  0.62597479  0.49883949  0.62462957  1
  V  V14  1  0.74990897  0.75074629  0.49993167  1
  V  V15  1  0.87577928  0.37727422  0.00175498  1
  V  V16  1  0.75060879  0.49931726  0.75008988  1
  V  V17  1  0.37345850  0.12281154  0.75210744  1
  V  V18  1  0.87520078  0.12530513  0.25079449  1
  V  V19  1  0.12539796  0.12576584  -0.00008922  1
  V  V20  1  0.25028555  0.12402135  0.37455520  1
  V  V21  1  0.75131299  0.37761942  0.12568450  1
  V  V22  1  0.75116633  0.37331812  0.62536138  1
  V  V23  1  -0.00065467  0.87461991  0.37422774  1
  V  V24  1  0.50021414  0.12666150  0.12323559  1
  V  V25  1  0.50068564  0.37425376  0.87474400  1
  V  V26  1  0.62383393  0.00178457  0.12066724  1
  V  V27  1  0.00055078  0.50155649  0.00236448  1
  V  V28  1  0.49978990  0.49944800  -0.00001699  1
  V  V29  1  0.12497098  0.37482447  0.25181245  1
  V  V30  1  0.49976304  0.62631562  0.12480857  1
  V  V31  1  0.74996277  0.50179078  0.25061517  1
  V  V32  1  0.37409088  0.87335669  0.49956901  1
  V  V33  1  0.24928888  0.74881823  0.49952795  1
  V  V34  1  0.87469623  -0.00018375  0.37422854  1
  V  V35  1  0.25026548  -0.00039025  0.75051226  1
  V  V36  1  0.87489770  0.12264568  0.75315103  1
  V  V37  1  0.87582293  0.50137565  0.87592656  1
  V  V38  1  0.87468560  0.24937787  0.62478076  1
  V  V39  1  0.50004917  0.25035602  0.74982256  1
  V  V40  1  0.25014869  0.24916177  0.49969701  1
  V  V41  1  0.12551725  0.87399414  0.74966194  1
  V  V42  1  0.12450791  0.25010789  0.37545367  1
  V  V43  1  0.12622348  0.74851652  0.87491784  1
  V  V44  1  0.24857055  0.24953663  -0.00033802  1
  V  V45  1  0.87312442  0.75321370  0.12233103  1
  V  V46  1  0.12553092  0.00010440  0.12503448  1
  V  V47  1  0.12539848  0.49809133  0.62531872  1
  V  V48  1  0.37537919  0.50009981  0.37451387  1
  V  V49  1  -0.00075757  0.75042740  0.24881033  1
  V  V50  1  0.87577660  0.62480549  0.75012249  1
  V  V51  1  0.12428257  -0.00149809  0.62497540  1
  V  V52  1  0.49969859  0.62385513  0.62505026  1
  V  V53  1  0.62527050  0.37613855  0.25069495  1
  V  V54  1  0.24953204  0.87302628  0.62406525  1
  V  V55  1  0.37420366  0.49863344  0.87541247  1
  V  V56  1  0.37455559  0.37451570  0.00158369  1
  V  V57  1  0.74982466  0.62539518  0.87448497  1
  V  V58  1  0.00064504  0.25013849  0.25179014  1
  V  V59  1  0.62600854  0.50219843  0.12465252  1
  V  V60  1  0.00047085  0.62361865  0.62535588  1
  V  V61  1  0.37406491  -0.00017454  0.37426112  1
  V  V62  1  0.12492406  0.12376491  0.50036034  1
  V  V63  1  0.12544530  0.62438131  0.49941767  1
  V  V64  1  0.12443400  0.74881316  0.37513837  1
  V  V65  1  0.00005078  0.62583165  0.12586345  1
  V  V66  1  0.49937982  0.75092533  0.74952157  1
  V  V67  1  0.62400256  0.87676808  0.24910545  1
  V  V68  1  0.37432189  0.24944605  0.62403209  1
  V  V69  1  0.87508814  0.49947378  0.37664376  1
  V  V70  1  0.24933145  0.62372570  0.87573540  1
  V  V71  1  0.62582465  0.12510585  0.49889219  1
  V  V72  1  0.12522708  0.87486296  0.24976341  1
  V  V73  1  0.49992297  0.12377849  0.62344807  1
  V  V74  1  0.37506973  0.62306708  0.74924455  1
  V  V75  1  0.87462997  0.74961203  0.62403324  1
  V  V76  1  0.37619242  0.37482238  0.49964860  1
  V  V77  1  0.49961282  -0.00027424  0.49961913  1
  V  V78  1  0.25042186  0.00019071  0.25029424  1
  V  V79  1  0.74818337  -0.00167697  0.74942873  1
  V  V80  1  0.74924639  0.00063068  0.24804302  1
  V  V81  1  0.37494394  0.62605149  0.24881195  1
  V  V82  1  -0.00024664  0.12384254  0.62606387  1
  V  V83  1  0.24933502  0.37455554  0.62565506  1
  V  V84  1  0.87556375  0.25137877  0.12658409  1
  V  V85  1  -0.00077784  -0.00117357  0.49990693  1
  V  V86  1  0.62444357  0.62522730  0.49951679  1
  V  V87  1  0.62470680  0.37383373  0.75038046  1
  V  V88  1  0.50055004  0.49890882  0.50023775  1
  V  V89  1  0.25147424  0.87478173  0.12393734  1
  V  V90  1  0.74901514  0.24995916  -0.00198714  1
  V  V91  1  0.62488498  0.62538585  -0.00182195  1
  V  V92  1  0.62348400  0.75111844  0.87244553  1
  V  V93  1  -0.00066641  0.49833012  0.50052851  1
  V  V94  1  0.50122059  0.25166288  0.25072812  1
  V  V95  1  0.25307896  0.75077530  0.00092057  1
  Zn  Zn96  1  0.62555894  -0.00327685  0.62438869  1
  Zn  Zn97  1  0.87369520  0.62731230  0.24973617  1
  Zn  Zn98  1  -0.00041902  0.37387232  0.37799033  1
  Zn  Zn99  1  0.49793007  0.88100300  0.87587541  1
  Zn  Zn100  1  0.74951263  0.25098652  0.49881184  1
  Zn  Zn101  1  0.62781545  0.25257109  0.37518577  1
  Zn  Zn102  1  0.74780538  0.87588960  0.12012030  1
  Zn  Zn103  1  0.37548337  -0.00256458  0.87699203  1
  Zn  Zn104  1  0.37726884  0.75308267  0.12514235  1
  Zn  Zn105  1  0.00276152  0.24891187  0.75127944  1
  Zn  Zn106  1  0.37885805  0.88082083  -0.00064472  1
  Zn  Zn107  1  0.62344455  0.87797951  0.74730509  1
  Zn  Zn108  1  0.74906966  0.75339140  -0.00150959  1
  Zn  Zn109  1  0.74779827  0.12359080  0.87611066  1
  Zn  Zn110  1  0.12501801  0.37143443  0.75043509  1
  Zn  Zn111  1  0.37434075  0.74828183  0.62408950  1
  Zn  Zn112  1  0.62641682  0.24964254  0.87441423  1
  Zn  Zn113  1  0.37500996  0.25049064  0.12666354  1
  Zn  Zn114  1  0.49981967  0.75218720  0.24734094  1
  Zn  Zn115  1  0.49767753  0.00248915  -0.00686406  1
  Zn  Zn116  1  0.37517826  0.12710471  0.25025583  1
  Zn  Zn117  1  0.74755139  0.87429547  0.62559742  1
  Zn  Zn118  1  0.24816383  0.12328199  0.87571450  1
  Zn  Zn119  1  0.62462321  0.12685110  -0.00419133  1
  Zn  Zn120  1  0.24922313  0.62470565  0.37388551  1
  Zn  Zn121  1  0.87262860  -0.00209861  0.87761025  1
  Zn  Zn122  1  0.87040689  0.87755273  -0.00221502  1
  Zn  Zn123  1  0.12599648  0.62436072  0.00198034  1
  Zn  Zn124  1  0.24866684  0.50031293  0.25120681  1
  Zn  Zn125  1  0.50326098  0.37379579  0.37596017  1
  Zn  Zn126  1  0.12429586  0.24780165  0.87264046  1
  Zn  Zn127  1  0.87464501  0.37283014  0.50073795  1
  Zn  Zn128  1  0.18768019  0.18794734  0.18754273  1
  Zn  Zn129  1  0.18600017  0.18831776  0.68853340  1
  Zn  Zn130  1  0.18852749  0.68677303  0.18741761  1
  Zn  Zn131  1  0.18801707  0.68569715  0.68706218  1
  Zn  Zn132  1  0.68705411  0.18856945  0.18668392  1
  Zn  Zn133  1  0.68757134  0.18544079  0.68691704  1
  Zn  Zn134  1  0.68776720  0.68945318  0.18761398  1
  Zn  Zn135  1  0.68783635  0.68647482  0.68662487  1
  Zn  Zn136  1  0.31354177  0.31268639  0.31229021  1
  Zn  Zn137  1  0.31271214  0.31143583  0.81365935  1
  Zn  Zn138  1  0.31182747  0.81132550  0.31271339  1
  Zn  Zn139  1  0.31494780  0.81304307  0.81438251  1
  Zn  Zn140  1  0.81175286  0.31336960  0.31379900  1
  Zn  Zn141  1  0.81596455  0.31301907  0.81248168  1
  Zn  Zn142  1  0.81031568  0.81410616  0.30947735  1
  Zn  Zn143  1  0.81271575  0.81394789  0.81231072  1
  Zn  Zn144  1  0.18880843  0.43705815  0.43746961  1
  Zn  Zn145  1  0.18603605  0.43732027  0.94038168  1
  Zn  Zn146  1  0.18737402  0.93607916  0.43691977  1
  Zn  Zn147  1  0.18951890  0.93762579  0.93638194  1
  Zn  Zn148  1  0.68930989  0.43559904  0.43837884  1
  Zn  Zn149  1  0.68744973  0.43693645  0.93709350  1
  Zn  Zn150  1  0.68768852  0.93816575  0.43648790  1
  Zn  Zn151  1  0.68699846  0.93576317  0.93524960  1
  Zn  Zn152  1  0.31524265  0.06370059  0.06348255  1
  Zn  Zn153  1  0.31198985  0.06049558  0.56308100  1
  Zn  Zn154  1  0.31122201  0.56200931  0.06385341  1
  Zn  Zn155  1  0.31190715  0.56269408  0.56259245  1
  Zn  Zn156  1  0.81340113  0.06342661  0.06257355  1
  Zn  Zn157  1  0.81115328  0.06168003  0.56404091  1
  Zn  Zn158  1  0.81289465  0.56748616  0.06192638  1
  Zn  Zn159  1  0.81179647  0.56270505  0.56185542  1
  Zn  Zn160  1  0.43806610  0.43811484  0.18690593  1
  Zn  Zn161  1  0.43693878  0.43657477  0.68731500  1
  Zn  Zn162  1  0.43683380  0.93882016  0.18606025  1
  Zn  Zn163  1  0.43662287  0.93645217  0.68558423  1
  Zn  Zn164  1  0.93838132  0.43801168  0.19123721  1
  Zn  Zn165  1  0.93804500  0.43643985  0.68906614  1
  Zn  Zn166  1  0.93742276  0.93687516  0.18571517  1
  Zn  Zn167  1  0.93569212  0.93599673  0.68825109  1
  Zn  Zn168  1  0.06296912  0.06257862  0.31247032  1
  Zn  Zn169  1  0.06292397  0.06151053  0.81455243  1
  Zn  Zn170  1  0.05997359  0.56322204  0.31208396  1
  Zn  Zn171  1  0.06417632  0.56093282  0.81314510  1
  Zn  Zn172  1  0.56245226  0.06352050  0.31150135  1
  Zn  Zn173  1  0.56521715  0.06555475  0.81468115  1
  Zn  Zn174  1  0.56098424  0.56331156  0.31221307  1
  Zn  Zn175  1  0.56216603  0.56194839  0.81209555  1
  Zn  Zn176  1  0.43839487  0.18731797  0.43478423  1
  Zn  Zn177  1  0.43688720  0.18867215  0.93747862  1
  Zn  Zn178  1  0.43810705  0.68835168  0.43660565  1
  Zn  Zn179  1  0.43662686  0.68658579  0.93651076  1
  Zn  Zn180  1  0.93771042  0.18606761  0.43871136  1
  Zn  Zn181  1  0.93633019  0.18766448  0.93894838  1
  Zn  Zn182  1  0.93765368  0.68605915  0.43750592  1
  Zn  Zn183  1  0.93863395  0.68851105  0.93945781  1
  Zn  Zn184  1  0.06354043  0.31337589  0.06355323  1
  Zn  Zn185  1  0.06092313  0.31230890  0.56268796  1
  Zn  Zn186  1  0.06364754  0.81228062  0.06122674  1
  Zn  Zn187  1  0.06169325  0.81140233  0.56204240  1
  Zn  Zn188  1  0.56407877  0.31428638  0.06437003  1
  Zn  Zn189  1  0.56267724  0.31102187  0.56327316  1
  Zn  Zn190  1  0.55922377  0.81469218  0.05972893  1
  Zn  Zn191  1  0.56318337  0.81336251  0.56386541  1
  O  O192  1  0.11909419  0.11957445  0.12072596  1
  O  O193  1  0.12002538  0.11803561  0.61921298  1
  O  O194  1  0.11775136  0.61847604  0.12580503  1
  O  O195  1  0.11934078  0.61817921  0.61979908  1
  O  O196  1  0.61741875  0.11810522  0.12453133  1
  O  O197  1  0.61831770  0.12314185  0.61439676  1
  O  O198  1  0.62027031  0.62070321  0.11867367  1
  O  O199  1  0.62035218  0.61774874  0.61886481  1
  O  O200  1  0.37745291  0.38462476  0.38082125  1
  O  O201  1  0.38067649  0.38023621  0.88116106  1
  O  O202  1  0.37938181  0.88016862  0.38011669  1
  O  O203  1  0.37878739  0.87789578  0.87839775  1
  O  O204  1  0.87509478  0.38788236  0.37762463  1
  O  O205  1  0.88308424  0.38246117  0.88121168  1
  O  O206  1  0.88025635  0.88036488  0.37911394  1
  O  O207  1  0.88552863  0.87545012  0.87651596  1
  O  O208  1  0.25383283  0.00429992  0.37027002  1
  O  O209  1  0.25116218  0.00332622  0.86419102  1
  O  O210  1  0.26353985  0.50202187  0.37477130  1
  O  O211  1  0.25482255  0.50318692  0.87105333  1
  O  O212  1  0.75629692  0.00583738  0.36834114  1
  O  O213  1  0.75245441  0.00234613  0.86402756  1
  O  O214  1  0.75688258  0.50589946  0.37132504  1
  O  O215  1  0.75621967  0.50471824  0.86949356  1
  O  O216  1  0.24241632  0.49316928  0.12711687  1
  O  O217  1  0.24528665  0.49389741  0.62988411  1
  O  O218  1  0.24373822  0.99557443  0.13111415  1
  O  O219  1  0.24302468  0.99284580  0.62907757  1
  O  O220  1  0.74599169  0.49747123  0.13006329  1
  O  O221  1  0.74543273  0.49493913  0.63088897  1
  O  O222  1  0.73992959  1.00260198  0.13071977  1
  O  O223  1  0.74963385  0.99746802  0.63570357  1
  O  O224  1  0.00643247  0.36718428  0.25346905  1
  O  O225  1  0.00025757  0.37466985  0.76324119  1
  O  O226  1  0.00597526  0.87088708  0.25552517  1
  O  O227  1  0.00623964  0.86849002  0.75447350  1
  O  O228  1  0.50688564  0.36733537  0.24860648  1
  O  O229  1  0.50447769  0.37020436  0.75430744  1
  O  O230  1  0.50578020  0.87530491  0.25691331  1
  O  O231  1  0.49952018  0.85986833  0.74850636  1
  O  O232  1  0.50142416  0.13553228  0.24203376  1
  O  O233  1  0.49145244  0.13078601  0.74266420  1
  O  O234  1  0.49109789  0.62556681  0.24343620  1
  O  O235  1  0.49470383  0.62979983  0.74442923  1
  O  O236  1  0.99504751  0.12993045  0.24513953  1
  O  O237  1  0.99066559  0.12303806  0.74398413  1
  O  O238  1  0.99698174  0.63328968  0.24389081  1
  O  O239  1  0.99527267  0.62917838  0.74510668  1
  O  O240  1  0.36541273  0.25642759  0.00260056  1
  O  O241  1  0.37015748  0.25418591  0.50406770  1
  O  O242  1  0.36150868  0.74844967  0.00100371  1
  O  O243  1  0.36816909  0.75550320  0.50038038  1
  O  O244  1  0.86887386  0.25733985  0.00783474  1
  O  O245  1  0.87352155  0.24798617  0.51372917  1
  O  O246  1  0.87431753  0.75180625  0.01103097  1
  O  O247  1  0.87008505  0.75407583  0.50396117  1
  O  O248  1  0.13038509  0.24317494  0.49587211  1
  O  O249  1  0.13347744  0.24485016  1.00076653  1
  O  O250  1  0.12853342  0.74434390  0.49448361  1
  O  O251  1  0.13607589  0.74784827  0.99378554  1
  O  O252  1  0.62503614  0.23676067  0.49849794  1
  O  O253  1  0.63904505  0.25362646  1.00101077  1
  O  O254  1  0.62995984  0.74435828  0.49387584  1
  O  O255  1  0.62298633  0.74275917  0.98718135  1
  O  O256  1  0.50160684  0.24394623  0.13389925  1
  O  O257  1  0.49292661  0.24433699  0.63004078  1
  O  O258  1  0.49742948  0.74122774  0.12628819  1
  O  O259  1  0.49946856  0.74152479  0.63352944  1
  O  O260  1  0.99496278  0.24484083  0.13121063  1
  O  O261  1  0.99103645  0.24267507  0.62655159  1
  O  O262  1  0.99373732  0.74645010  0.12966829  1
  O  O263  1  0.99527591  0.74318020  0.63044393  1
  O  O264  1  0.00624214  0.24935005  0.37006045  1
  O  O265  1  -0.00128092  0.26293562  0.87652841  1
  O  O266  1  0.00424588  0.75543451  0.36980786  1
  O  O267  1  0.00647752  0.75363292  0.86918806  1
  O  O268  1  0.50313339  0.25174460  0.36323908  1
  O  O269  1  0.49988207  0.25798337  0.86758211  1
  O  O270  1  0.50715710  0.75744518  0.37406285  1
  O  O271  1  0.50857697  0.74354020  0.86385074  1
  O  O272  1  0.24420135  0.12922183  0.49517694  1
  O  O273  1  0.24418409  0.13526342  1.00170903  1
  O  O274  1  0.24273792  0.63062196  0.49922134  1
  O  O275  1  0.24865178  0.63256953  0.99446145  1
  O  O276  1  0.74079187  0.12369158  0.49472486  1
  O  O277  1  0.75188371  0.13944095  1.00066844  1
  O  O278  1  0.74342245  0.63051647  0.49453247  1
  O  O279  1  0.74265522  0.62753959  0.99158876  1
  O  O280  1  0.25409267  0.36813261  0.00623674  1
  O  O281  1  0.25632916  0.36851110  0.50578917  1
  O  O282  1  0.24903274  0.86497145  0.00597739  1
  O  O283  1  0.25380278  0.86900127  0.50448759  1
  O  O284  1  0.75674826  0.37104911  0.00629938  1
  O  O285  1  0.75303986  0.37163902  0.50975384  1
  O  O286  1  0.75229142  0.87044128  0.00234424  1
  O  O287  1  0.75696434  0.86841147  0.49895082  1
  O  O288  1  0.12520877  0.49316761  0.24627997  1
  O  O289  1  0.13188845  0.49763495  0.74288238  1
  O  O290  1  0.13003475  0.99431883  0.24536609  1
  O  O291  1  0.12960910  0.99380435  0.74335354  1
  O  O292  1  0.63036768  0.49677447  0.24425702  1
  O  O293  1  0.63062937  0.49450355  0.74411257  1
  O  O294  1  0.62986579  0.99697777  0.24198510  1
  O  O295  1  0.63647312  1.00154119  0.74693648  1
  O  O296  1  0.36757098  0.00175661  0.25735383  1
  O  O297  1  0.36845380  0.01044280  0.74571597  1
  O  O298  1  0.37592723  0.50749542  0.25904589  1
  O  O299  1  0.36933367  0.50341423  0.75581398  1
  O  O300  1  0.87084300  0.00591026  0.25447425  1
  O  O301  1  0.86822257  0.00865729  0.74969928  1
  O  O302  1  0.86911693  0.50237845  0.26036320  1
  O  O303  1  0.87013453  0.50589592  0.75581080  1
  O  O304  1  0.12445348  0.36730973  0.37052652  1
  O  O305  1  0.11281643  0.37502557  0.87610237  1
  O  O306  1  0.11855713  0.86944847  0.36967446  1
  O  O307  1  0.12037337  0.86810212  0.86794568  1
  O  O308  1  0.62344402  0.37388299  0.36711047  1
  O  O309  1  0.61841753  0.37435672  0.86782561  1
  O  O310  1  0.61926385  0.87146914  0.36968296  1
  O  O311  1  0.62185611  0.86066183  0.86857218  1
  O  O312  1  0.38742818  0.12833703  0.13013817  1
  O  O313  1  0.37896689  0.13020101  0.63117334  1
  O  O314  1  0.38070542  0.62306880  0.13465476  1
  O  O315  1  0.38171671  0.62441017  0.63129499  1
  O  O316  1  0.88134722  0.13139135  0.13210249  1
  O  O317  1  0.87974471  0.13078819  0.63282929  1
  O  O318  1  0.88102333  0.63556952  0.12705250  1
  O  O319  1  0.88101318  0.62917265  0.63032438  1
  O  O320  1  0.25040384  0.25640517  0.11581056  1
  O  O321  1  0.25496292  0.25428553  0.61816972  1
  O  O322  1  0.25000118  0.75538948  0.11594256  1
  O  O323  1  0.25006008  0.75536426  0.61803108  1
  O  O324  1  0.75658926  0.25767637  0.11913002  1
  O  O325  1  0.75981779  0.25434216  0.62530921  1
  O  O326  1  0.76037856  0.75135277  0.12327389  1
  O  O327  1  0.75744269  0.74850806  0.61771325  1
  O  O328  1  0.24496015  0.24425450  0.38091740  1
  O  O329  1  0.24822083  0.24991084  0.88916952  1
  O  O330  1  0.24175903  0.74843063  0.38159328  1
  O  O331  1  0.24533964  0.74371513  0.88147488  1
  O  O332  1  0.74919910  0.24151675  0.37802628  1
  O  O333  1  0.75264903  0.25330728  0.88788858  1
  O  O334  1  0.74424697  0.74537218  0.37992476  1
  O  O335  1  0.73932985  0.74270220  0.87091713  1
  O  O336  1  0.00484666  0.12034207  0.00685083  1
  O  O337  1  0.00538160  0.11753453  0.50569508  1
  O  O338  1  0.00236902  0.61851907  0.00726221  1
  O  O339  1  0.00571502  0.61937555  0.50650787  1
  O  O340  1  0.50280367  0.12936362  0.01271629  1
  O  O341  1  0.50648489  0.11966073  0.50288697  1
  O  O342  1  0.50461789  0.61794562  0.00389793  1
  O  O343  1  0.50562538  0.61912160  0.50515244  1
  O  O344  1  0.49408313  0.38080415  0.50010100  1
  O  O345  1  0.49509608  0.38043907  0.99569413  1
  O  O346  1  0.49398990  0.87981350  0.49419549  1
  O  O347  1  0.49716897  0.88147427  0.99563991  1
  O  O348  1  0.99569792  0.38262063  0.49822968  1
  O  O349  1  0.99445275  0.38122715  0.99489470  1
  O  O350  1  0.99421703  0.87939123  0.49376438  1
  O  O351  1  1.00172751  0.88187371  0.99332445  1
  O  O352  1  0.49045490  0.49881440  0.38125637  1
  O  O353  1  0.49406571  0.49443761  0.88004818  1
  O  O354  1  0.49385817  0.99497287  0.37986650  1
  O  O355  1  0.49661051  1.00001448  0.87414198  1
  O  O356  1  0.98958354  0.50033210  0.38115440  1
  O  O357  1  0.99488636  0.49393787  0.88141113  1
  O  O358  1  0.99466251  0.99457661  0.37993543  1
  O  O359  1  0.99985149  0.99233444  0.88179720  1
  O  O360  1  0.00636232  0.00571222  0.12064143  1
  O  O361  1  0.00469942  0.00339093  0.61901720  1
  O  O362  1  0.00342333  0.50526184  0.12180577  1
  O  O363  1  0.00474993  0.50481805  0.62104538  1
  O  O364  1  0.50960542  0.01185656  0.12845219  1
  O  O365  1  0.49974214  0.00660895  0.61670712  1
  O  O366  1  0.50685901  0.50546887  0.11879711  1
  O  O367  1  0.50618767  0.50388903  0.62016264  1
  O  O368  1  0.24296967  0.37525575  0.24446254  1
  O  O369  1  0.25052880  0.38061414  0.74358012  1
  O  O370  1  0.24380585  0.88005664  0.24525023  1
  O  O371  1  0.24414601  0.87849525  0.74335808  1
  O  O372  1  0.74572780  0.38195852  0.24422474  1
  O  O373  1  0.74556649  0.38055199  0.74559542  1
  O  O374  1  0.74195166  0.88389123  0.24729638  1
  O  O375  1  0.75017465  0.88591437  0.74793241  1
  O  O376  1  0.25005056  0.11868444  0.25677222  1
  O  O377  1  0.25898629  0.11927026  0.74771834  1
  O  O378  1  0.26138592  0.62194913  0.25186347  1
  O  O379  1  0.25526569  0.61791959  0.75525278  1
  O  O380  1  0.75633707  0.12083044  0.25466817  1
  O  O381  1  0.76005288  0.11760168  0.74900996  1
  O  O382  1  0.75032232  0.61898362  0.25740404  1
  O  O383  1  0.75640105  0.61821413  0.75427552  1
  O  O384  1  0.36760327  0.11795183  0.37420798  1
  O  O385  1  0.37239054  0.12745782  0.85944398  1
  O  O386  1  0.37604858  0.61593230  0.36723359  1
  O  O387  1  0.36903437  0.61707848  0.86929302  1
  O  O388  1  0.87089073  0.11846561  0.37007680  1
  O  O389  1  0.87415166  0.12459584  0.86292663  1
  O  O390  1  0.86831497  0.61554236  0.37477290  1
  O  O391  1  0.87085718  0.62076480  0.86946844  1
  O  O392  1  0.12923667  0.38046321  0.13228421  1
  O  O393  1  0.13180009  0.38069215  0.62522366  1
  O  O394  1  0.13029977  0.88075952  0.13124660  1
  O  O395  1  0.12881194  0.87940065  0.62975312  1
  O  O396  1  0.63203641  0.38399469  0.13043286  1
  O  O397  1  0.63033723  0.37995604  0.63087861  1
  O  O398  1  0.62340745  0.88642733  0.13091578  1
  O  O399  1  0.62918855  0.87816240  0.62880693  1
  O  O400  1  0.11955002  0.25401898  0.25620177  1
  O  O401  1  0.12048816  0.25348769  0.75440600  1
  O  O402  1  0.11961566  0.75572030  0.25507293  1
  O  O403  1  0.11992954  0.75399935  0.75439721  1
  O  O404  1  0.61760536  0.25751953  0.24983129  1
  O  O405  1  0.61794833  0.25672447  0.74834750  1
  O  O406  1  0.62349953  0.75768505  0.25650996  1
  O  O407  1  0.61532660  0.74470009  0.75692807  1
  O  O408  1  0.38693628  0.24989431  0.24795762  1
  O  O409  1  0.37879703  0.24280775  0.74318468  1
  O  O410  1  0.37695675  0.73787102  0.24981849  1
  O  O411  1  0.38389339  0.74110701  0.74900706  1
  O  O412  1  0.88038848  0.24507552  0.24589264  1
  O  O413  1  0.87649660  0.24040106  0.74104697  1
  O  O414  1  0.88083410  0.75053109  0.24108815  1
  O  O415  1  0.88121630  0.74358121  0.74440445  1
  O  O416  1  0.38049206  0.49560501  0.49318281  1
  O  O417  1  0.38015677  0.49458505  0.99448350  1
  O  O418  1  0.37899431  0.99344808  0.49391736  1
  O  O419  1  0.37782200  1.00106768  0.99574779  1
  O  O420  1  0.87964320  0.50029121  0.49161512  1
  O  O421  1  0.88018302  0.49652750  0.99551215  1
  O  O422  1  0.88007783  0.99496861  0.49407848  1
  O  O423  1  0.88420507  0.99932461  0.99883189  1
  O  O424  1  0.12101229  0.00590301  0.00659036  1
  O  O425  1  0.11903761  0.00372398  0.50480055  1
  O  O426  1  0.11785359  0.50108180  0.00953285  1
  O  O427  1  0.12012466  0.50455564  0.50538128  1
  O  O428  1  0.62484362  0.00399375  0.01198111  1
  O  O429  1  0.61866507  0.01025561  0.49879014  1
  O  O430  1  0.61970271  0.50507310  0.00475455  1
  O  O431  1  0.62069074  0.50521375  0.50521006  1
  O  O432  1  0.36835933  0.37514813  0.11834079  1
  O  O433  1  0.36952029  0.36934746  0.61923707  1
  O  O434  1  0.36577236  0.87254695  0.12364949  1
  O  O435  1  0.36713245  0.87200112  0.61709432  1
  O  O436  1  0.87069609  0.37132117  0.12144298  1
  O  O437  1  0.87009407  0.36480813  0.62739927  1
  O  O438  1  0.87377674  0.86476384  0.12320268  1
  O  O439  1  0.87487289  0.86662282  0.61721992  1
  O  O440  1  0.13017444  0.12957528  0.38121598  1
  O  O441  1  0.12676976  0.12785162  0.88442008  1
  O  O442  1  0.12516657  0.63080236  0.38131447  1
  O  O443  1  0.13218277  0.63031632  0.87638947  1
  O  O444  1  0.63084235  0.12527455  0.38361521  1
  O  O445  1  0.63076738  0.13386369  0.87905062  1
  O  O446  1  0.62903473  0.63012436  0.38051498  1
  O  O447  1  0.63002661  0.63004223  0.87828577  1
