# generated using pymatgen
data_V3Zn3O8
_symmetry_space_group_name_H-M   'P 1'
_cell_length_a   17.08899110
_cell_length_b   17.08879207
_cell_length_c   17.08918941
_cell_angle_alpha   89.98904338
_cell_angle_beta   90.00836619
_cell_angle_gamma   90.00618748
_symmetry_Int_Tables_number   1
_chemical_formula_structural   V3Zn3O8
_chemical_formula_sum   'V96 Zn96 O256'
_cell_volume   4990.55949605
_cell_formula_units_Z   32
loop_
 _symmetry_equiv_pos_site_id
 _symmetry_equiv_pos_as_xyz
  1  'x, y, z'
loop_
 _atom_site_type_symbol
 _atom_site_label
 _atom_site_symmetry_multiplicity
 _atom_site_fract_x
 _atom_site_fract_y
 _atom_site_fract_z
 _atom_site_occupancy
  V  V0  1  -0.00107973  0.12586904  0.62552476  1
  V  V1  1  0.37644801  0.49863719  0.87480498  1
  V  V2  1  0.12464166  0.12369847  0.49966583  1
  V  V3  1  0.50115340  0.74944797  0.75063882  1
  V  V4  1  0.87535236  0.75044779  0.12471478  1
  V  V5  1  0.37443419  0.49992085  0.37483152  1
  V  V6  1  0.75208857  0.62509582  0.87439546  1
  V  V7  1  0.75092927  0.24992559  0.00095067  1
  V  V8  1  0.87480685  0.62422666  0.25027452  1
  V  V9  1  0.74932693  0.87589548  0.12614556  1
  V  V10  1  0.12520223  0.25134692  0.87441434  1
  V  V11  1  -0.00072430  0.24961034  0.24787826  1
  V  V12  1  0.62566469  0.12465110  0.00085507  1
  V  V13  1  0.25024181  0.00021199  0.75067108  1
  V  V14  1  0.49888693  0.12486611  0.62627087  1
  V  V15  1  0.12458208  0.00073354  0.12430899  1
  V  V16  1  0.12428749  0.24884044  0.37439647  1
  V  V17  1  0.12474969  0.87499139  0.25018198  1
  V  V18  1  0.24917909  0.50022048  0.24938110  1
  V  V19  1  0.75040184  0.37569789  0.62586404  1
  V  V20  1  0.24923273  0.49835410  0.75016371  1
  V  V21  1  0.00072489  0.62556344  0.62444978  1
  V  V22  1  0.12496580  0.75026174  0.37429774  1
  V  V23  1  -0.00064152  -0.00017069  0.50029278  1
  V  V24  1  0.75009708  0.37456977  0.12546700  1
  V  V25  1  0.12455171  0.12504106  0.00053149  1
  V  V26  1  0.87527296  0.37488063  0.00104395  1
  V  V27  1  0.87528732  0.87654316  0.00004803  1
  V  V28  1  0.37572316  0.62337159  0.75047852  1
  V  V29  1  0.62608140  0.62497713  0.00043103  1
  V  V30  1  0.24965754  0.24908172  0.49951301  1
  V  V31  1  0.25046916  0.87366144  0.62495550  1
  V  V32  1  0.62434629  0.87542907  0.25043864  1
  V  V33  1  0.37323009  0.37413433  0.49992790  1
  V  V34  1  0.62393802  0.12559034  0.50026913  1
  V  V35  1  0.62503686  0.37517823  0.25024852  1
  V  V36  1  0.12532257  0.50023852  0.62490099  1
  V  V37  1  0.87502270  0.37509942  0.50005801  1
  V  V38  1  0.25127350  0.37461157  0.12442559  1
  V  V39  1  0.75109917  0.12457484  0.87453625  1
  V  V40  1  0.49969151  -0.00085675  -0.00019930  1
  V  V41  1  0.62621523  0.37608174  0.74896513  1
  V  V42  1  0.62520840  0.25072521  0.87556348  1
  V  V43  1  0.00080530  0.37486965  0.87359834  1
  V  V44  1  0.37600763  0.62533586  0.24896598  1
  V  V45  1  0.87297879  0.12424021  0.25047075  1
  V  V46  1  0.49972056  0.75019110  0.24963887  1
  V  V47  1  0.25072470  0.74964769  0.50059055  1
  V  V48  1  0.37359143  0.24922522  0.62407046  1
  V  V49  1  0.50077806  0.62513758  0.12576556  1
  V  V50  1  0.74858257  0.24993949  0.50021651  1
  V  V51  1  0.87600676  0.24897667  0.62586872  1
  V  V52  1  0.62410833  0.75061301  0.87403533  1
  V  V53  1  0.74916199  0.00098881  0.74975395  1
  V  V54  1  0.62652447  0.49965525  0.12616377  1
  V  V55  1  0.12456430  0.87485110  0.75032252  1
  V  V56  1  -0.00030459  0.87652862  0.87549178  1
  V  V57  1  0.00040746  0.87481754  0.37425492  1
  V  V58  1  0.24947345  0.00016035  0.24979228  1
  V  V59  1  0.00051107  0.75124028  0.74979200  1
  V  V60  1  0.87545584  0.75093687  0.62511450  1
  V  V61  1  -0.00033435  0.50029724  -0.00064390  1
  V  V62  1  0.87343999  0.00032983  0.37501031  1
  V  V63  1  0.50148121  0.37448382  0.87537636  1
  V  V64  1  0.12630240  0.74938193  0.87594420  1
  V  V65  1  0.74865287  0.87581085  0.62546285  1
  V  V66  1  -0.00126179  0.37618224  0.37564098  1
  V  V67  1  0.49944323  -0.00118278  0.49986297  1
  V  V68  1  -0.00012518  0.62592088  0.12454676  1
  V  V69  1  0.62426091  0.25050440  0.37622312  1
  V  V70  1  0.74982944  0.62487238  0.37661681  1
  V  V71  1  0.87463462  0.87565757  0.49966012  1
  V  V72  1  0.50018382  0.50043626  0.50094593  1
  V  V73  1  0.24950256  0.62476669  0.37435089  1
  V  V74  1  0.12556226  0.50135850  0.12450815  1
  V  V75  1  0.12475779  -0.00061026  0.62513271  1
  V  V76  1  0.24888854  0.12352449  0.37440543  1
  V  V77  1  0.00016259  0.00069613  -0.00015676  1
  V  V78  1  0.62471144  0.00037903  0.12536961  1
  V  V79  1  0.37473855  0.12637467  0.24926034  1
  V  V80  1  0.25108348  0.25109013  0.00023443  1
  V  V81  1  0.12610107  0.62681277  -0.00103998  1
  V  V82  1  0.25270007  0.87295184  0.12201192  1
  V  V83  1  0.37555247  -0.00066580  0.87546381  1
  V  V84  1  0.50091375  0.62309855  0.62383995  1
  V  V85  1  0.37509481  0.74925018  0.62540148  1
  V  V86  1  0.49993734  0.87456389  0.37485477  1
  V  V87  1  0.74995102  0.74976551  0.49979549  1
  V  V88  1  0.87470830  0.62591100  0.75087879  1
  V  V89  1  0.24999061  0.12555758  0.87499935  1
  V  V90  1  0.37464872  -0.00141270  0.37502080  1
  V  V91  1  0.74961070  0.75061463  0.00016558  1
  V  V92  1  0.49938796  0.37540067  0.37523726  1
  V  V93  1  0.50093982  0.49914133  -0.00033079  1
  V  V94  1  0.49836972  0.24947649  0.24976705  1
  V  V95  1  0.12450132  0.62441742  0.49995261  1
  Zn  Zn96  1  0.62400489  0.74980462  0.37638496  1
  Zn  Zn97  1  0.12411761  0.37352516  0.74709849  1
  Zn  Zn98  1  0.37506233  0.74844288  0.12120122  1
  Zn  Zn99  1  0.62535181  0.62453335  0.50087367  1
  Zn  Zn100  1  0.87472204  0.24893370  0.12482633  1
  Zn  Zn101  1  0.74783246  0.12406173  0.37586581  1
  Zn  Zn102  1  0.37464685  0.12666768  0.75006659  1
  Zn  Zn103  1  0.12420012  0.37555687  0.24985314  1
  Zn  Zn104  1  0.74771876  0.00073290  0.25207094  1
  Zn  Zn105  1  0.24702066  0.37280891  0.62424963  1
  Zn  Zn106  1  0.87730056  0.12660167  0.75215397  1
  Zn  Zn107  1  0.62321520  -0.00238894  0.62490694  1
  Zn  Zn108  1  0.87544053  0.50054930  0.37723729  1
  Zn  Zn109  1  0.87432985  0.50013105  0.87343387  1
  Zn  Zn110  1  0.75070116  0.49783452  0.25271181  1
  Zn  Zn111  1  0.87555423  0.00199476  0.87503470  1
  Zn  Zn112  1  0.62765870  0.50119531  0.62333845  1
  Zn  Zn113  1  0.49728871  0.24987208  0.75119766  1
  Zn  Zn114  1  -0.00016168  0.49978162  0.50053441  1
  Zn  Zn115  1  0.00086007  0.24983358  0.74880325  1
  Zn  Zn116  1  0.37625100  0.87336406  0.50005064  1
  Zn  Zn117  1  -0.00107773  0.12513432  0.12326619  1
  Zn  Zn118  1  0.37690099  0.37320558  -0.00072885  1
  Zn  Zn119  1  0.49870941  0.12685761  0.12545974  1
  Zn  Zn120  1  0.25382588  0.74843729  -0.00244831  1
  Zn  Zn121  1  0.37626887  0.87090799  -0.00091959  1
  Zn  Zn122  1  0.25133606  0.62563268  0.87707739  1
  Zn  Zn123  1  0.62307349  0.87516397  0.74966857  1
  Zn  Zn124  1  0.50054000  0.87393772  0.87328018  1
  Zn  Zn125  1  0.37653214  0.24930825  0.12347188  1
  Zn  Zn126  1  0.00102406  0.75036746  0.24968807  1
  Zn  Zn127  1  0.75226503  0.50118420  0.74937718  1
  Zn  Zn128  1  0.18670478  0.18807240  0.18674427  1
  Zn  Zn129  1  0.18652778  0.18714472  0.68854611  1
  Zn  Zn130  1  0.18771753  0.68874458  0.18693206  1
  Zn  Zn131  1  0.18814435  0.68590736  0.68902329  1
  Zn  Zn132  1  0.68658659  0.18815776  0.18764940  1
  Zn  Zn133  1  0.68677709  0.18819107  0.68754634  1
  Zn  Zn134  1  0.68723253  0.68889162  0.18941106  1
  Zn  Zn135  1  0.68677458  0.68709074  0.68696369  1
  Zn  Zn136  1  0.31203230  0.31236738  0.31180954  1
  Zn  Zn137  1  0.31377790  0.31297140  0.81167970  1
  Zn  Zn138  1  0.31367039  0.81191583  0.31059249  1
  Zn  Zn139  1  0.31286886  0.81202182  0.81248642  1
  Zn  Zn140  1  0.81159150  0.31108208  0.31352504  1
  Zn  Zn141  1  0.81390453  0.31119816  0.81201412  1
  Zn  Zn142  1  0.81173106  0.81171933  0.31187713  1
  Zn  Zn143  1  0.81190583  0.81415799  0.81285405  1
  Zn  Zn144  1  0.18594929  0.43670301  0.43737636  1
  Zn  Zn145  1  0.18751721  0.43839782  0.93765296  1
  Zn  Zn146  1  0.18783273  0.93606951  0.43823543  1
  Zn  Zn147  1  0.18712913  0.93753122  0.93818769  1
  Zn  Zn148  1  0.68744232  0.43890764  0.43869776  1
  Zn  Zn149  1  0.68957010  0.43876408  0.93693568  1
  Zn  Zn150  1  0.68643452  0.93855270  0.43722237  1
  Zn  Zn151  1  0.68663033  0.93678759  0.93567019  1
  Zn  Zn152  1  0.31295487  0.06330922  0.06267761  1
  Zn  Zn153  1  0.31341573  0.06104299  0.56171347  1
  Zn  Zn154  1  0.31380975  0.56187962  0.06062853  1
  Zn  Zn155  1  0.31258588  0.56207202  0.56332116  1
  Zn  Zn156  1  0.81264703  0.06200936  0.06392894  1
  Zn  Zn157  1  0.81141557  0.06363815  0.56368064  1
  Zn  Zn158  1  0.81269203  0.56061105  0.06212340  1
  Zn  Zn159  1  0.81474620  0.56030893  0.56273263  1
  Zn  Zn160  1  0.43744531  0.43820257  0.18723526  1
  Zn  Zn161  1  0.43729968  0.43577714  0.68653324  1
  Zn  Zn162  1  0.43757803  0.93869377  0.18769784  1
  Zn  Zn163  1  0.43706800  0.93599677  0.68874793  1
  Zn  Zn164  1  0.93615279  0.43879183  0.18651909  1
  Zn  Zn165  1  0.93692756  0.43919269  0.68809385  1
  Zn  Zn166  1  0.93810291  0.93865077  0.18737341  1
  Zn  Zn167  1  0.93504632  0.93935326  0.68826740  1
  Zn  Zn168  1  0.06058467  0.06149922  0.31170684  1
  Zn  Zn169  1  0.06260043  0.06396674  0.81242250  1
  Zn  Zn170  1  0.06259950  0.56194793  0.31104453  1
  Zn  Zn171  1  0.06277460  0.56275033  0.81258815  1
  Zn  Zn172  1  0.56089537  0.06297166  0.31290648  1
  Zn  Zn173  1  0.56392537  0.06348234  0.81233574  1
  Zn  Zn174  1  0.56408491  0.56245991  0.31302975  1
  Zn  Zn175  1  0.56404043  0.56195968  0.81197406  1
  Zn  Zn176  1  0.43685924  0.18649019  0.43722032  1
  Zn  Zn177  1  0.43733314  0.18745312  0.93864751  1
  Zn  Zn178  1  0.43759519  0.68752460  0.43747281  1
  Zn  Zn179  1  0.43729354  0.68651612  0.93763974  1
  Zn  Zn180  1  0.93571622  0.18796029  0.43788145  1
  Zn  Zn181  1  0.93677800  0.18814762  0.93663220  1
  Zn  Zn182  1  0.93801588  0.68892590  0.43776437  1
  Zn  Zn183  1  0.93820679  0.68934168  0.93718308  1
  Zn  Zn184  1  0.06390685  0.31311302  0.06198470  1
  Zn  Zn185  1  0.06281167  0.31218974  0.56235638  1
  Zn  Zn186  1  0.06335310  0.81242398  0.06215245  1
  Zn  Zn187  1  0.06338016  0.81215974  0.56163293  1
  Zn  Zn188  1  0.56311330  0.31204558  0.06363571  1
  Zn  Zn189  1  0.56112728  0.31254730  0.56351651  1
  Zn  Zn190  1  0.56238353  0.81280968  0.06311338  1
  Zn  Zn191  1  0.56447971  0.81086379  0.56222314  1
  O  O192  1  0.12445237  0.11828801  0.11837244  1
  O  O193  1  0.11989956  0.11840775  0.61841642  1
  O  O194  1  0.11943719  0.62050671  0.12018119  1
  O  O195  1  0.12006508  0.62072874  0.61957733  1
  O  O196  1  0.62394183  0.11825094  0.11826905  1
  O  O197  1  0.61362976  0.12547880  0.61887423  1
  O  O198  1  0.62102232  0.61983075  0.12022694  1
  O  O199  1  0.61681397  0.62156024  0.62289282  1
  O  O200  1  0.37967897  0.38067175  0.37978530  1
  O  O201  1  0.38367835  0.38128930  0.87546925  1
  O  O202  1  0.38095235  0.88131820  0.37525285  1
  O  O203  1  0.37542077  0.88862123  0.87675113  1
  O  O204  1  0.88394356  0.37425572  0.38000273  1
  O  O205  1  0.88511638  0.37485279  0.88186061  1
  O  O206  1  0.88041225  0.87961891  0.38003125  1
  O  O207  1  0.88198098  0.87620652  0.88258054  1
  O  O208  1  0.25370027  0.00420124  0.36943137  1
  O  O209  1  0.25670808  0.00496763  0.87131406  1
  O  O210  1  0.25437598  0.50524937  0.36956477  1
  O  O211  1  0.25600667  0.50057859  0.86589781  1
  O  O212  1  0.75817549  0.00307836  0.37290768  1
  O  O213  1  0.75035704  0.00588385  0.86677040  1
  O  O214  1  0.75384924  0.51106687  0.37406964  1
  O  O215  1  0.75359722  0.50974325  0.87336008  1
  O  O216  1  0.24518296  0.49296157  0.12953331  1
  O  O217  1  0.24422772  0.49937022  0.63393517  1
  O  O218  1  0.24428194  0.99290473  0.13032026  1
  O  O219  1  0.24430149  0.99455867  0.62981378  1
  O  O220  1  0.74330874  0.49303335  0.12647079  1
  O  O221  1  0.74830492  0.49101584  0.62737254  1
  O  O222  1  0.74247179  0.99286396  0.12662146  1
  O  O223  1  0.74833221  0.99493042  0.63298411  1
  O  O224  1  -0.00110238  0.36606635  0.25771806  1
  O  O225  1  0.00131142  0.37468051  0.76275179  1
  O  O226  1  0.00657640  0.87422784  0.25649759  1
  O  O227  1  0.00517546  0.87097198  0.75444176  1
  O  O228  1  0.50470686  0.37051019  0.25627703  1
  O  O229  1  0.50985686  0.37332724  0.75557859  1
  O  O230  1  0.50453168  0.87026184  0.25470487  1
  O  O231  1  0.50200403  0.86567692  0.75211935  1
  O  O232  1  0.49256679  0.13185381  0.24996090  1
  O  O233  1  0.49909395  0.12647281  0.73812028  1
  O  O234  1  0.49579251  0.62942579  0.24541514  1
  O  O235  1  0.49467782  0.62870598  0.74412779  1
  O  O236  1  0.99167666  0.13388085  0.25042949  1
  O  O237  1  0.99864324  0.12680459  0.74120287  1
  O  O238  1  0.99106408  0.62637157  0.24411296  1
  O  O239  1  0.99571375  0.63268741  0.74446351  1
  O  O240  1  0.36676817  0.25251249  0.00243619  1
  O  O241  1  0.36841902  0.25424027  0.50336782  1
  O  O242  1  0.37232827  0.75352459  0.00315845  1
  O  O243  1  0.36754374  0.75006731  0.50704591  1
  O  O244  1  0.86874352  0.25630683  0.00296103  1
  O  O245  1  0.86855121  0.25542287  0.50548059  1
  O  O246  1  0.86952384  0.75626227  0.00579998  1
  O  O247  1  0.87081124  0.75691213  0.50606507  1
  O  O248  1  0.12987705  0.24256005  0.49391050  1
  O  O249  1  0.13103026  0.24470152  0.99445831  1
  O  O250  1  0.13127863  0.74433629  0.49447355  1
  O  O251  1  0.12583232  0.74401256  0.99315859  1
  O  O252  1  0.62860106  0.24598353  0.49504007  1
  O  O253  1  0.63119429  0.24462983  0.99500253  1
  O  O254  1  0.63482854  0.74597038  0.49681421  1
  O  O255  1  0.63026338  0.74407055  0.99545317  1
  O  O256  1  0.49766207  0.24847590  0.13347510  1
  O  O257  1  0.49235356  0.23976625  0.62397521  1
  O  O258  1  0.49928797  0.74278027  0.13130439  1
  O  O259  1  0.49404213  0.74329910  0.62981326  1
  O  O260  1  0.99938064  0.24961079  0.13681187  1
  O  O261  1  0.99424907  0.24331914  0.62429442  1
  O  O262  1  0.99338716  0.74367244  0.12597233  1
  O  O263  1  0.99544637  0.74612256  0.63018049  1
  O  O264  1  0.00387232  0.25673277  0.36721419  1
  O  O265  1  0.00661497  0.26015782  0.87605812  1
  O  O266  1  0.00738863  0.75740711  0.37414116  1
  O  O267  1  0.00599349  0.75723205  0.86888178  1
  O  O268  1  0.50428319  0.25666531  0.37069165  1
  O  O269  1  0.50754386  0.25538784  0.87453440  1
  O  O270  1  0.50031903  0.75587541  0.36796524  1
  O  O271  1  0.50648260  0.74919607  0.86862619  1
  O  O272  1  0.24378733  0.12853371  0.49346502  1
  O  O273  1  0.24421961  0.13037741  0.99441572  1
  O  O274  1  0.24488840  0.62994474  0.49382216  1
  O  O275  1  0.24137824  0.62584222  0.99820737  1
  O  O276  1  0.74224691  0.13240729  0.50009402  1
  O  O277  1  0.74491360  0.12951872  0.99496391  1
  O  O278  1  0.75388230  0.63084456  0.49106774  1
  O  O279  1  0.74543872  0.63159879  0.99607828  1
  O  O280  1  0.25072313  0.37088179  0.00912663  1
  O  O281  1  0.25574970  0.36692791  0.49885680  1
  O  O282  1  0.25073810  0.87526405  0.01179593  1
  O  O283  1  0.25055311  0.86748505  0.50718339  1
  O  O284  1  0.75490650  0.36937268  0.00511246  1
  O  O285  1  0.75503269  0.36925062  0.50526416  1
  O  O286  1  0.75488291  0.86970225  0.00587713  1
  O  O287  1  0.75631522  0.87049495  0.50471028  1
  O  O288  1  0.13145036  0.49932728  0.24239530  1
  O  O289  1  0.13425414  0.50059739  0.74390104  1
  O  O290  1  0.13033428  0.99507617  0.24517144  1
  O  O291  1  0.13029511  0.99396079  0.74452824  1
  O  O292  1  0.62657901  0.49286133  0.24402480  1
  O  O293  1  0.62769715  0.48633412  0.74911556  1
  O  O294  1  0.62456348  0.99419744  0.24361119  1
  O  O295  1  0.63684372  0.99845589  0.74812872  1
  O  O296  1  0.36886183  0.00603087  0.25594168  1
  O  O297  1  0.36892443  0.00189226  0.75962654  1
  O  O298  1  0.36944821  0.50558087  0.25602284  1
  O  O299  1  0.36808933  0.50356973  0.75398949  1
  O  O300  1  0.87561686  0.00960751  0.25590475  1
  O  O301  1  0.86210197  0.00306458  0.75198904  1
  O  O302  1  0.87325857  0.51323621  0.25117912  1
  O  O303  1  0.87372111  0.51047160  0.75267412  1
  O  O304  1  0.11530446  0.36783705  0.37297010  1
  O  O305  1  0.11496089  0.37029413  0.87630921  1
  O  O306  1  0.12028814  0.87032158  0.36987361  1
  O  O307  1  0.11959358  0.87063525  0.86910625  1
  O  O308  1  0.61850374  0.37033811  0.37019674  1
  O  O309  1  0.62180747  0.37023486  0.86807610  1
  O  O310  1  0.61785610  0.87418974  0.36806179  1
  O  O311  1  0.62276623  0.86514543  0.87264847  1
  O  O312  1  0.37571923  0.12727931  0.13414141  1
  O  O313  1  0.38378475  0.12999274  0.62407240  1
  O  O314  1  0.38297124  0.62306532  0.13203983  1
  O  O315  1  0.38023132  0.62994487  0.63115494  1
  O  O316  1  0.87777420  0.12681852  0.13689783  1
  O  O317  1  0.88207975  0.13184081  0.62421945  1
  O  O318  1  0.87901266  0.63014860  0.13172232  1
  O  O319  1  0.88110283  0.63241836  0.62987175  1
  O  O320  1  0.24902591  0.26019308  0.12028871  1
  O  O321  1  0.25501672  0.24883432  0.61675245  1
  O  O322  1  0.25124990  0.76194131  0.12412553  1
  O  O323  1  0.25482539  0.75376074  0.62094809  1
  O  O324  1  0.75013804  0.25708001  0.11839665  1
  O  O325  1  0.75521629  0.25593851  0.61908750  1
  O  O326  1  0.75501997  0.75576110  0.11906835  1
  O  O327  1  0.75723790  0.75526407  0.61996640  1
  O  O328  1  0.24386793  0.24303124  0.37895862  1
  O  O329  1  0.24548163  0.24605296  0.88051263  1
  O  O330  1  0.24491301  0.74427779  0.37970166  1
  O  O331  1  0.24143492  0.74746375  0.87525465  1
  O  O332  1  0.74190605  0.24933327  0.38282968  1
  O  O333  1  0.74458768  0.24489722  0.88143878  1
  O  O334  1  0.75102405  0.74064137  0.38133081  1
  O  O335  1  0.74484302  0.74520153  0.88144806  1
  O  O336  1  0.00687308  0.11978497  0.00088477  1
  O  O337  1  0.00539666  0.11894104  0.50415767  1
  O  O338  1  0.00491765  0.62029496  0.00561089  1
  O  O339  1  0.00681181  0.62497687  0.50627531  1
  O  O340  1  0.50657419  0.11462480  0.00053599  1
  O  O341  1  0.50359459  0.11974172  0.50763376  1
  O  O342  1  0.50739191  0.61865111  0.00592683  1
  O  O343  1  0.49936923  0.61805108  0.50551730  1
  O  O344  1  0.49288333  0.37952982  0.49408331  1
  O  O345  1  0.50127021  0.38163422  0.99361407  1
  O  O346  1  0.49863935  0.88048717  0.49364322  1
  O  O347  1  0.49933487  0.88848850  0.99792021  1
  O  O348  1  0.99479624  0.37281773  0.48878567  1
  O  O349  1  0.99600236  0.38000238  0.99333461  1
  O  O350  1  0.99481992  0.88042565  0.49486953  1
  O  O351  1  0.99538840  0.88073723  0.99491150  1
  O  O352  1  0.49346016  0.49487517  0.37951548  1
  O  O353  1  0.49683115  0.49429156  0.88031102  1
  O  O354  1  0.49345132  0.99447682  0.38005762  1
  O  O355  1  0.49227870  1.00093136  0.88223361  1
  O  O356  1  0.99994216  0.48731853  0.37544103  1
  O  O357  1  0.99997419  0.49070137  0.88124411  1
  O  O358  1  0.99463333  0.99428785  0.38141045  1
  O  O359  1  0.99972785  0.99381164  0.88139675  1
  O  O360  1  0.00766615  0.00101406  0.11812522  1
  O  O361  1  0.00546806  0.00418354  0.61924334  1
  O  O362  1  0.00585485  0.50557377  0.11945097  1
  O  O363  1  0.00790419  0.50786952  0.62437994  1
  O  O364  1  0.50538414  0.00178539  0.11532304  1
  O  O365  1  0.49893828  0.00903940  0.61990272  1
  O  O366  1  0.50706691  0.50488049  0.12022779  1
  O  O367  1  0.49910514  0.50561205  0.61787893  1
  O  O368  1  0.24760795  0.38105599  0.24201488  1
  O  O369  1  0.24851432  0.38792371  0.74822834  1
  O  O370  1  0.24457082  0.88089657  0.24271811  1
  O  O371  1  0.24367771  0.88041830  0.74446225  1
  O  O372  1  0.74351400  0.37539005  0.24490105  1
  O  O373  1  0.74173314  0.37485437  0.74504694  1
  O  O374  1  0.74360327  0.87602208  0.24347295  1
  O  O375  1  0.74983793  0.88409397  0.74393057  1
  O  O376  1  0.25319665  0.11948337  0.25578449  1
  O  O377  1  0.25000608  0.11693754  0.75737238  1
  O  O378  1  0.25506603  0.61964434  0.25485752  1
  O  O379  1  0.25649951  0.61359482  0.75089594  1
  O  O380  1  0.76111498  0.12500441  0.25292509  1
  O  O381  1  0.74955188  0.11705588  0.75531162  1
  O  O382  1  0.75892592  0.62552387  0.25832441  1
  O  O383  1  0.75740922  0.62631094  0.75633830  1
  O  O384  1  0.36786251  0.11867217  0.36991396  1
  O  O385  1  0.36900129  0.11489578  0.87429495  1
  O  O386  1  0.36863208  0.61898290  0.36902988  1
  O  O387  1  0.37486116  0.61606659  0.86738963  1
  O  O388  1  0.87458138  0.11950962  0.36656075  1
  O  O389  1  0.86625872  0.12299054  0.87324223  1
  O  O390  1  0.86895354  0.62579076  0.36664870  1
  O  O391  1  0.86988580  0.62703456  0.86873628  1
  O  O392  1  0.13498879  0.38175521  0.12604728  1
  O  O393  1  0.12690510  0.38356840  0.62614512  1
  O  O394  1  0.13272026  0.88061375  0.13018522  1
  O  O395  1  0.13002923  0.87985940  0.63062490  1
  O  O396  1  0.63041417  0.38036776  0.13102116  1
  O  O397  1  0.63046948  0.37389550  0.63426161  1
  O  O398  1  0.62989475  0.88065777  0.13039978  1
  O  O399  1  0.63379227  0.87685681  0.62754273  1
  O  O400  1  0.11462035  0.24967902  0.25602870  1
  O  O401  1  0.12335248  0.25358948  0.75873474  1
  O  O402  1  0.12393924  0.75642474  0.25706107  1
  O  O403  1  0.11946601  0.75570503  0.75444223  1
  O  O404  1  0.61867898  0.25567140  0.25643098  1
  O  O405  1  0.62410191  0.26065969  0.75659410  1
  O  O406  1  0.61758233  0.75737154  0.25184440  1
  O  O407  1  0.61840960  0.74912587  0.75702691  1
  O  O408  1  0.38060073  0.24368061  0.25045518  1
  O  O409  1  0.37648978  0.24646474  0.74108308  1
  O  O410  1  0.38146962  0.74212119  0.24716307  1
  O  O411  1  0.38010122  0.74312391  0.74516925  1
  O  O412  1  0.88359548  0.24144694  0.25085182  1
  O  O413  1  0.87796619  0.24750535  0.74061407  1
  O  O414  1  0.87653215  0.73987763  0.24353561  1
  O  O415  1  0.88164094  0.74687985  0.74420350  1
  O  O416  1  0.37880190  0.49444811  0.49346751  1
  O  O417  1  0.38352860  0.49801613  0.99280911  1
  O  O418  1  0.38075571  0.99733362  0.49238486  1
  O  O419  1  0.38311009  1.00072594  0.99165998  1
  O  O420  1  0.88044684  0.49065384  0.49782531  1
  O  O421  1  0.88279208  0.49336415  0.99838341  1
  O  O422  1  0.88039806  0.99498280  0.49540626  1
  O  O423  1  0.88170780  0.99356128  0.99958865  1
  O  O424  1  0.11968047  0.00574382  0.00466691  1
  O  O425  1  0.11927087  0.00407620  0.50543241  1
  O  O426  1  0.11900827  0.50662535  0.00538325  1
  O  O427  1  0.12438801  0.50731391  0.50651592  1
  O  O428  1  0.61747766  0.00469512  0.00382129  1
  O  O429  1  0.61705388  0.00738919  0.50162853  1
  O  O430  1  0.62062533  0.50580765  0.00593491  1
  O  O431  1  0.61502909  0.50187682  0.50187760  1
  O  O432  1  0.36191446  0.37510435  0.12374553  1
  O  O433  1  0.37247964  0.36725089  0.61701430  1
  O  O434  1  0.36306697  0.87589431  0.12458713  1
  O  O435  1  0.36752423  0.86724768  0.62438995  1
  O  O436  1  0.86847037  0.37321485  0.11934950  1
  O  O437  1  0.87114224  0.36899527  0.61971961  1
  O  O438  1  0.86989182  0.87015869  0.12034893  1
  O  O439  1  0.87013121  0.87011383  0.61858517  1
  O  O440  1  0.12911972  0.12835401  0.38030931  1
  O  O441  1  0.13109518  0.13061262  0.88124954  1
  O  O442  1  0.13023358  0.62971133  0.37938840  1
  O  O443  1  0.12477047  0.63195115  0.88140004  1
  O  O444  1  0.62396795  0.13275790  0.38218632  1
  O  O445  1  0.63092382  0.13111318  0.88118854  1
  O  O446  1  0.63807743  0.62706156  0.37585204  1
  O  O447  1  0.63116606  0.63043455  0.88136007  1
