# generated using pymatgen
data_V3Zn3O8
_symmetry_space_group_name_H-M   'P 1'
_cell_length_a   17.08776129
_cell_length_b   17.08609537
_cell_length_c   17.08492749
_cell_angle_alpha   90.00209996
_cell_angle_beta   90.00306215
_cell_angle_gamma   90.00066242
_symmetry_Int_Tables_number   1
_chemical_formula_structural   V3Zn3O8
_chemical_formula_sum   'V96 Zn96 O256'
_cell_volume   4988.16870758
_cell_formula_units_Z   32
loop_
 _symmetry_equiv_pos_site_id
 _symmetry_equiv_pos_as_xyz
  1  'x, y, z'
loop_
 _atom_site_type_symbol
 _atom_site_label
 _atom_site_symmetry_multiplicity
 _atom_site_fract_x
 _atom_site_fract_y
 _atom_site_fract_z
 _atom_site_occupancy
  V  V0  1  0.12666871  0.24741213  0.37885121  1
  V  V1  1  0.87534898  0.12538994  0.25086372  1
  V  V2  1  0.62337767  0.62253248  0.50141835  1
  V  V3  1  0.75123119  0.87555942  0.12515009  1
  V  V4  1  0.49935713  0.50111517  0.00070033  1
  V  V5  1  0.12578931  0.74966382  0.37352650  1
  V  V6  1  0.37629361  0.74750993  0.62509592  1
  V  V7  1  0.12444249  0.49928519  0.12464120  1
  V  V8  1  0.25036155  0.87625701  0.12474258  1
  V  V9  1  0.24948888  0.49948918  0.74998162  1
  V  V10  1  -0.00031608  0.74962543  0.74986272  1
  V  V11  1  0.25039589  0.37331147  0.62475777  1
  V  V12  1  0.87428900  0.12554003  0.75079677  1
  V  V13  1  0.62346749  0.37506030  0.75038724  1
  V  V14  1  0.62625841  0.87547215  0.25019178  1
  V  V15  1  0.24972830  0.74793917  0.49876573  1
  V  V16  1  0.74920902  0.50084937  0.24867349  1
  V  V17  1  0.50097059  0.87495757  0.87453992  1
  V  V18  1  0.25103341  0.00076054  0.25065854  1
  V  V19  1  0.74971469  0.25053926  0.00069926  1
  V  V20  1  0.50035264  0.75069166  0.24940770  1
  V  V21  1  0.12434712  0.37398696  0.25040826  1
  V  V22  1  0.00098222  0.87436632  0.37509822  1
  V  V23  1  0.12637800  0.12590983  -0.00220278  1
  V  V24  1  0.37395858  0.37503753  0.00020252  1
  V  V25  1  0.87456008  0.25056610  0.12575171  1
  V  V26  1  0.49979786  0.62538834  0.12437128  1
  V  V27  1  0.37472592  0.62502827  0.25008952  1
  V  V28  1  0.74955980  0.62547507  0.87452971  1
  V  V29  1  0.24942666  0.37462802  0.12489116  1
  V  V30  1  0.87522149  0.62523748  0.24955727  1
  V  V31  1  0.12535721  0.62526084  -0.00075021  1
  V  V32  1  0.75085919  0.62555442  0.37475030  1
  V  V33  1  0.62579302  0.75048856  0.87458273  1
  V  V34  1  0.87323996  0.25118774  0.62520707  1
  V  V35  1  0.49933204  0.25042463  0.25007819  1
  V  V36  1  0.37543537  0.25014526  0.12648788  1
  V  V37  1  0.37393129  0.37188843  0.50158895  1
  V  V38  1  0.75149818  0.00088883  0.25128378  1
  V  V39  1  0.62469540  0.37653943  0.25024349  1
  V  V40  1  0.87659252  -0.00010961  0.37522360  1
  V  V41  1  0.62588301  0.00100895  0.12537042  1
  V  V42  1  -0.00078535  0.49997349  -0.00065070  1
  V  V43  1  0.00002411  0.37477750  0.87425870  1
  V  V44  1  0.00049939  0.87516361  0.87412295  1
  V  V45  1  0.87585779  0.87650743  0.00023849  1
  V  V46  1  0.49954181  0.37452245  0.87451576  1
  V  V47  1  0.50115675  0.00177072  0.00086873  1
  V  V48  1  0.50049565  0.87589498  0.37502263  1
  V  V49  1  0.24965094  0.49954268  0.24968701  1
  V  V50  1  0.74847184  0.37506790  0.62565373  1
  V  V51  1  0.74966625  0.75056507  -0.00081879  1
  V  V52  1  0.50128436  -0.00093454  0.49968293  1
  V  V53  1  0.24741908  0.87354886  0.62510521  1
  V  V54  1  0.24943316  0.24932345  -0.00102529  1
  V  V55  1  0.49920937  0.37592152  0.37623139  1
  V  V56  1  0.24984207  0.75031876  -0.00067136  1
  V  V57  1  0.62492132  -0.00039308  0.62459767  1
  V  V58  1  0.75122113  0.75055547  0.50030312  1
  V  V59  1  0.00080727  0.00053516  -0.00004395  1
  V  V60  1  0.37512830  0.75048366  0.12478735  1
  V  V61  1  0.37433693  0.50003483  0.87516115  1
  V  V62  1  -0.00117969  0.37555985  0.37583987  1
  V  V63  1  0.87563517  0.49962278  0.37487667  1
  V  V64  1  0.62537079  0.87428279  0.75019604  1
  V  V65  1  0.87414670  0.37477078  0.00072490  1
  V  V66  1  0.62755247  0.24876943  0.37673503  1
  V  V67  1  0.87359233  0.37536017  0.50031255  1
  V  V68  1  0.12439140  0.37426123  0.75003961  1
  V  V69  1  0.37521650  0.12578145  0.25113564  1
  V  V70  1  0.12407201  0.49976217  0.62439233  1
  V  V71  1  0.25153882  -0.00014183  0.75048479  1
  V  V72  1  0.37574517  0.87596927  -0.00074170  1
  V  V73  1  0.49814196  0.12495251  0.62726466  1
  V  V74  1  0.87596377  0.87486762  0.49972871  1
  V  V75  1  0.00134797  0.75075316  0.24957436  1
  V  V76  1  0.62388304  0.25085013  0.87633870  1
  V  V77  1  0.87534605  0.75038443  0.12466067  1
  V  V78  1  0.00003164  0.25062108  0.75072711  1
  V  V79  1  0.74936521  0.12597574  0.87556796  1
  V  V80  1  0.74857533  0.49989656  0.75035969  1
  V  V81  1  0.37584982  -0.00004653  0.37474529  1
  V  V82  1  0.75043551  0.00078301  0.75072609  1
  V  V83  1  0.75151262  0.87491986  0.62482966  1
  V  V84  1  0.37475182  0.49888702  0.37514893  1
  V  V85  1  0.62549700  0.75007153  0.37443083  1
  V  V86  1  0.12662605  0.00044142  0.12510180  1
  V  V87  1  0.24916054  0.62505721  0.37441560  1
  V  V88  1  0.37490116  0.62520302  0.74956991  1
  V  V89  1  -0.00010806  0.62538596  0.12392381  1
  V  V90  1  0.24912438  0.62549223  0.87527364  1
  V  V91  1  0.62405646  0.50109490  0.12526126  1
  V  V92  1  0.00199531  0.12312885  0.62264748  1
  V  V93  1  -0.00106185  0.24938317  0.24974722  1
  V  V94  1  0.87340462  0.50062391  0.87483178  1
  V  V95  1  -0.00094233  0.62367944  0.62438294  1
  Zn  Zn96  1  0.62526675  0.12711142  0.00218070  1
  Zn  Zn97  1  0.87481102  0.00230800  0.87595448  1
  Zn  Zn98  1  0.74949461  0.24807033  0.50129416  1
  Zn  Zn99  1  0.75141763  0.12482261  0.37847394  1
  Zn  Zn100  1  0.37377511  0.24755515  0.62844659  1
  Zn  Zn101  1  0.50213630  0.12677825  0.12528589  1
  Zn  Zn102  1  0.50100287  0.74901471  0.74988378  1
  Zn  Zn103  1  0.49744213  0.24869715  0.75077047  1
  Zn  Zn104  1  0.25059287  0.12345462  0.37901552  1
  Zn  Zn105  1  0.25307180  0.12540080  0.87229299  1
  Zn  Zn106  1  0.37544373  0.87380951  0.49889681  1
  Zn  Zn107  1  0.12414743  0.62207125  0.49811506  1
  Zn  Zn108  1  0.74902617  0.37596728  0.12475915  1
  Zn  Zn109  1  0.62428244  0.62571258  -0.00044049  1
  Zn  Zn110  1  0.00061431  0.50045892  0.49931844  1
  Zn  Zn111  1  0.12650844  0.24949616  0.87383557  1
  Zn  Zn112  1  0.25008887  0.24462197  0.50340586  1
  Zn  Zn113  1  0.12823073  0.11941818  0.50016626  1
  Zn  Zn114  1  0.00255986  -0.00168844  0.50040351  1
  Zn  Zn115  1  0.12429621  0.87565388  0.75017180  1
  Zn  Zn116  1  0.62228337  0.49894178  0.62537496  1
  Zn  Zn117  1  0.37494519  0.12655354  0.75342401  1
  Zn  Zn118  1  0.62776973  0.12473168  0.50083038  1
  Zn  Zn119  1  0.12599807  0.87648846  0.24995075  1
  Zn  Zn120  1  0.87327946  0.62468950  0.74907891  1
  Zn  Zn121  1  0.12550498  0.74966586  0.87462759  1
  Zn  Zn122  1  0.50154911  0.62333501  0.62724421  1
  Zn  Zn123  1  0.12462531  -0.00122322  0.62357239  1
  Zn  Zn124  1  0.87535050  0.74916764  0.62459656  1
  Zn  Zn125  1  0.37500263  0.00109574  0.87441635  1
  Zn  Zn126  1  0.00004973  0.12490402  0.12447815  1
  Zn  Zn127  1  0.49914295  0.50018704  0.50281588  1
  Zn  Zn128  1  0.18805949  0.18586013  0.18822443  1
  Zn  Zn129  1  0.18782232  0.18751677  0.68726700  1
  Zn  Zn130  1  0.18737649  0.68810451  0.18674168  1
  Zn  Zn131  1  0.18511238  0.68702314  0.68760729  1
  Zn  Zn132  1  0.68854421  0.18702422  0.18839158  1
  Zn  Zn133  1  0.68485381  0.18826217  0.68888218  1
  Zn  Zn134  1  0.68728502  0.68739382  0.18612122  1
  Zn  Zn135  1  0.68867846  0.68817027  0.68737968  1
  Zn  Zn136  1  0.31098878  0.31162998  0.31411606  1
  Zn  Zn137  1  0.31319646  0.30937435  0.81157341  1
  Zn  Zn138  1  0.31271804  0.81434503  0.31198409  1
  Zn  Zn139  1  0.31389225  0.81354282  0.81219102  1
  Zn  Zn140  1  0.81098276  0.31374058  0.31161328  1
  Zn  Zn141  1  0.81137757  0.31277975  0.81279143  1
  Zn  Zn142  1  0.81395731  0.81315261  0.31308774  1
  Zn  Zn143  1  0.81447382  0.81275172  0.81192941  1
  Zn  Zn144  1  0.18714690  0.43629297  0.43919950  1
  Zn  Zn145  1  0.18675664  0.43698281  0.93653678  1
  Zn  Zn146  1  0.18673947  0.93733270  0.43919773  1
  Zn  Zn147  1  0.18679828  0.93823473  0.93630034  1
  Zn  Zn148  1  0.68917807  0.43697169  0.43757257  1
  Zn  Zn149  1  0.68634862  0.43777992  0.93802356  1
  Zn  Zn150  1  0.68868508  0.93836659  0.43817778  1
  Zn  Zn151  1  0.68708217  0.93867725  0.93692472  1
  Zn  Zn152  1  0.31399923  0.06429238  0.06355304  1
  Zn  Zn153  1  0.31335365  0.06073633  0.56076699  1
  Zn  Zn154  1  0.31196640  0.56308650  0.06262659  1
  Zn  Zn155  1  0.31115515  0.56073882  0.56124286  1
  Zn  Zn156  1  0.81343936  0.06459875  0.06297099  1
  Zn  Zn157  1  0.81305738  0.06330511  0.56083058  1
  Zn  Zn158  1  0.81095044  0.56327530  0.06137564  1
  Zn  Zn159  1  0.81201250  0.56085872  0.56309119  1
  Zn  Zn160  1  0.43786022  0.43693999  0.18800987  1
  Zn  Zn161  1  0.43952133  0.43923332  0.68590843  1
  Zn  Zn162  1  0.43783676  0.93856274  0.18704474  1
  Zn  Zn163  1  0.43617961  0.93667402  0.68721243  1
  Zn  Zn164  1  0.93697301  0.43636447  0.18764390  1
  Zn  Zn165  1  0.93562801  0.43815434  0.68797722  1
  Zn  Zn166  1  0.93962527  0.93864871  0.18790063  1
  Zn  Zn167  1  0.93519495  0.93879907  0.68772068  1
  Zn  Zn168  1  0.06187599  0.06260566  0.31186831  1
  Zn  Zn169  1  0.06549657  0.06077617  0.80991779  1
  Zn  Zn170  1  0.06211669  0.56257212  0.31177862  1
  Zn  Zn171  1  0.06232252  0.56222665  0.81156338  1
  Zn  Zn172  1  0.56217189  0.06462695  0.31191302  1
  Zn  Zn173  1  0.56425351  0.06265428  0.81329421  1
  Zn  Zn174  1  0.56126632  0.56238764  0.31394442  1
  Zn  Zn175  1  0.56211697  0.56352146  0.81201898  1
  Zn  Zn176  1  0.44041887  0.18563357  0.43903999  1
  Zn  Zn177  1  0.43541395  0.18583133  0.93603389  1
  Zn  Zn178  1  0.43757346  0.68773887  0.43736497  1
  Zn  Zn179  1  0.43771360  0.68830702  0.93632202  1
  Zn  Zn180  1  0.93696560  0.18835023  0.43862753  1
  Zn  Zn181  1  0.93750682  0.18816361  0.93739137  1
  Zn  Zn182  1  0.93846835  0.68815729  0.43822920  1
  Zn  Zn183  1  0.93591143  0.68788640  0.93619930  1
  Zn  Zn184  1  0.06116300  0.31125344  0.06235253  1
  Zn  Zn185  1  0.06033869  0.31243220  0.56243510  1
  Zn  Zn186  1  0.06421602  0.81366468  0.06200895  1
  Zn  Zn187  1  0.06350196  0.80899636  0.55984085  1
  Zn  Zn188  1  0.56227743  0.31422452  0.06282619  1
  Zn  Zn189  1  0.56111468  0.31147379  0.56297980  1
  Zn  Zn190  1  0.56372900  0.81436063  0.06163067  1
  Zn  Zn191  1  0.56295257  0.81200114  0.56198823  1
  O  O192  1  0.12408390  0.11964348  0.11421195  1
  O  O193  1  0.11114322  0.12646423  0.62437845  1
  O  O194  1  0.11968574  0.61870096  0.11960107  1
  O  O195  1  0.11524485  0.61847532  0.62474163  1
  O  O196  1  0.62279852  0.11676729  0.12354459  1
  O  O197  1  0.61632280  0.11718669  0.62547253  1
  O  O198  1  0.61704053  0.61974392  0.12384909  1
  O  O199  1  0.62563353  0.62585190  0.61234671  1
  O  O200  1  0.37856822  0.37927797  0.38192446  1
  O  O201  1  0.37885751  0.38137780  0.88143585  1
  O  O202  1  0.38368600  0.88089949  0.37458167  1
  O  O203  1  0.38271024  0.87644017  0.88258057  1
  O  O204  1  0.87945301  0.38026655  0.37899899  1
  O  O205  1  0.88043487  0.38071587  0.88104888  1
  O  O206  1  0.88112554  0.87952092  0.37975415  1
  O  O207  1  0.88573852  0.87615092  0.88132468  1
  O  O208  1  0.25776978  -0.00124016  0.36807523  1
  O  O209  1  0.25077824  -0.00190855  0.86294501  1
  O  O210  1  0.25437848  0.50424149  0.36797402  1
  O  O211  1  0.25523546  0.50525666  0.87033098  1
  O  O212  1  0.75783569  -0.00100684  0.36760748  1
  O  O213  1  0.75092111  0.00689909  0.86877929  1
  O  O214  1  0.75589194  0.50638036  0.36806841  1
  O  O215  1  0.75435828  0.50547457  0.87094039  1
  O  O216  1  0.24409792  0.49478880  0.12985387  1
  O  O217  1  0.24418293  0.49430103  0.63147330  1
  O  O218  1  0.24632969  0.99498713  0.12992204  1
  O  O219  1  0.25189566  0.98721783  0.63148516  1
  O  O220  1  0.74284302  0.50093762  0.13135210  1
  O  O221  1  0.74759207  0.49302374  0.63252018  1
  O  O222  1  0.74624826  0.99396006  0.13064507  1
  O  O223  1  0.74501472  0.99453489  0.63097226  1
  O  O224  1  0.00520433  0.36994765  0.25581035  1
  O  O225  1  0.00449293  0.37034331  0.75455831  1
  O  O226  1  0.00132126  0.86733051  0.25618558  1
  O  O227  1  -0.00089002  0.86795073  0.75745837  1
  O  O228  1  0.50443520  0.37033746  0.25663929  1
  O  O229  1  0.50570162  0.37562938  0.75810542  1
  O  O230  1  0.50671393  0.86974331  0.25440230  1
  O  O231  1  0.50764530  0.87415732  0.75625778  1
  O  O232  1  0.49299383  0.13292770  0.24797937  1
  O  O233  1  0.49958676  0.12248780  0.73893993  1
  O  O234  1  0.49399952  0.63114855  0.24501394  1
  O  O235  1  0.49065497  0.62859639  0.74885550  1
  O  O236  1  0.99315584  0.13205155  0.24733241  1
  O  O237  1  0.99484975  0.13044505  0.74378787  1
  O  O238  1  0.99441607  0.63017042  0.24294066  1
  O  O239  1  0.99855201  0.63215758  0.74257681  1
  O  O240  1  0.36949326  0.25629316  0.00650308  1
  O  O241  1  0.37490856  0.26293733  0.49989153  1
  O  O242  1  0.36960635  0.75544267  0.00599836  1
  O  O243  1  0.36857732  0.74937702  0.50851759  1
  O  O244  1  0.87007145  0.25570319  0.00548955  1
  O  O245  1  0.87333754  0.25815548  0.50711255  1
  O  O246  1  0.87000816  0.75631392  0.00593142  1
  O  O247  1  0.86775820  0.75638570  0.49985788  1
  O  O248  1  0.12403733  0.25067538  0.48780639  1
  O  O249  1  0.12990527  0.24128501  1.00049906  1
  O  O250  1  0.13259695  0.74534721  0.49106868  1
  O  O251  1  0.13206312  0.74237913  0.99978988  1
  O  O252  1  0.62522715  0.25082550  0.48695267  1
  O  O253  1  0.63150399  0.25101646  0.99470923  1
  O  O254  1  0.63121272  0.74289765  0.49345562  1
  O  O255  1  0.63268952  0.75050726  0.99377140  1
  O  O256  1  0.49294536  0.25165757  0.13205964  1
  O  O257  1  0.49975378  0.23692995  0.62625147  1
  O  O258  1  0.49494859  0.74625967  0.13001841  1
  O  O259  1  0.48734674  0.74858191  0.62528608  1
  O  O260  1  0.99281470  0.24978584  0.13235209  1
  O  O261  1  0.99319179  0.24370604  0.63164127  1
  O  O262  1  0.99483549  0.74493894  0.12864183  1
  O  O263  1  0.99999991  0.74110944  0.63279449  1
  O  O264  1  0.00676220  0.25632506  0.36919221  1
  O  O265  1  0.00119021  0.25765190  0.86854475  1
  O  O266  1  0.00542013  0.75356632  0.36837178  1
  O  O267  1  -0.00015354  0.75764462  0.86800793  1
  O  O268  1  0.50794155  0.25627314  0.36953311  1
  O  O269  1  0.50603152  0.25775751  0.87713461  1
  O  O270  1  0.50553722  0.75512875  0.36819683  1
  O  O271  1  0.50721291  0.75753220  0.87496467  1
  O  O272  1  0.24665475  0.12778528  0.49714559  1
  O  O273  1  0.24086023  0.13037027  1.00080638  1
  O  O274  1  0.24860249  0.62993742  0.49134563  1
  O  O275  1  0.24526823  0.63010168  0.99542473  1
  O  O276  1  0.74596966  0.12959034  0.49653201  1
  O  O277  1  0.74921100  0.13239509  0.99360921  1
  O  O278  1  0.74346552  0.63013541  0.49378536  1
  O  O279  1  0.74840790  0.63295014  0.99328259  1
  O  O280  1  0.25426350  0.37077340  0.00597195  1
  O  O281  1  0.25926198  0.37366601  0.50580308  1
  O  O282  1  0.25559405  0.87041405  0.00511284  1
  O  O283  1  0.25316475  0.86682804  0.50919552  1
  O  O284  1  0.75699924  0.36926329  0.00114654  1
  O  O285  1  0.75623947  0.37347669  0.50731669  1
  O  O286  1  0.75612083  0.87069954  0.00552096  1
  O  O287  1  0.75525661  0.86952117  0.50509524  1
  O  O288  1  0.12980958  0.49409899  0.24387194  1
  O  O289  1  0.13046390  0.49409313  0.74468811  1
  O  O290  1  0.13242843  0.99985141  0.24295556  1
  O  O291  1  0.13600635  0.99522411  0.74432231  1
  O  O292  1  0.62930332  0.49659585  0.24575791  1
  O  O293  1  0.63177486  0.49307760  0.75077533  1
  O  O294  1  0.63075933  0.99398887  0.24594696  1
  O  O295  1  0.63169789  0.99316128  0.74459236  1
  O  O296  1  0.37137779  0.00564804  0.25446543  1
  O  O297  1  0.36325428  -0.00104178  0.75091631  1
  O  O298  1  0.36889053  0.50501675  0.25443753  1
  O  O299  1  0.36820423  0.50474200  0.75613491  1
  O  O300  1  0.87062891  0.00487660  0.25478408  1
  O  O301  1  0.86730430  0.00758507  0.75270245  1
  O  O302  1  0.86990045  0.50632963  0.25420438  1
  O  O303  1  0.86683838  0.50001627  0.75820064  1
  O  O304  1  0.11955559  0.36825548  0.36921025  1
  O  O305  1  0.11730052  0.37546902  0.86817356  1
  O  O306  1  0.11931997  0.86701485  0.37217241  1
  O  O307  1  0.11072470  0.87192628  0.87551969  1
  O  O308  1  0.61948106  0.36913588  0.36976966  1
  O  O309  1  0.61871605  0.37060491  0.87063231  1
  O  O310  1  0.62094577  0.86927827  0.36893974  1
  O  O311  1  0.62134866  0.86968727  0.86935560  1
  O  O312  1  0.37746413  0.13345638  0.13242967  1
  O  O313  1  0.38820431  0.12344210  0.62519108  1
  O  O314  1  0.37950817  0.63075129  0.13073369  1
  O  O315  1  0.37224091  0.63369568  0.63015954  1
  O  O316  1  0.87735038  0.13248671  0.13221510  1
  O  O317  1  0.88189924  0.13093660  0.63154463  1
  O  O318  1  0.88054783  0.63063098  0.12955097  1
  O  O319  1  0.88599108  0.62585908  0.62719081  1
  O  O320  1  0.25516892  0.25648321  0.12032986  1
  O  O321  1  0.25218560  0.25889409  0.62307505  1
  O  O322  1  0.25618851  0.75482914  0.11950850  1
  O  O323  1  0.25669973  0.75415516  0.62077497  1
  O  O324  1  0.75642834  0.25287390  0.11938430  1
  O  O325  1  0.75615407  0.25719410  0.62650765  1
  O  O326  1  0.75595036  0.75578054  0.12028180  1
  O  O327  1  0.75242507  0.75711545  0.61842718  1
  O  O328  1  0.23748232  0.24940079  0.37612444  1
  O  O329  1  0.24634978  0.24833889  0.88403938  1
  O  O330  1  0.24652951  0.74466060  0.37797985  1
  O  O331  1  0.24893332  0.74393523  0.88158449  1
  O  O332  1  0.73799545  0.25061165  0.37455038  1
  O  O333  1  0.74416928  0.24576072  0.88084358  1
  O  O334  1  0.74489891  0.74499360  0.37910979  1
  O  O335  1  0.74611336  0.74621196  0.87993452  1
  O  O336  1  0.00940674  0.12001289  0.00054741  1
  O  O337  1  -0.00103771  0.12454970  0.51308195  1
  O  O338  1  0.00437482  0.61970828  0.00495958  1
  O  O339  1  0.00172809  0.62372025  0.51148136  1
  O  O340  1  0.50208192  0.11285117  0.00276753  1
  O  O341  1  0.50418579  0.11706704  0.50913353  1
  O  O342  1  0.49944502  0.61892363  0.00678842  1
  O  O343  1  0.51257397  0.62519364  0.49859396  1
  O  O344  1  0.49035073  0.37662027  0.49436388  1
  O  O345  1  0.49263523  0.38179066  0.99514269  1
  O  O346  1  0.49981681  0.88011860  0.49233383  1
  O  O347  1  0.49573450  0.88287644  0.99562970  1
  O  O348  1  0.99157208  0.37741423  0.49355308  1
  O  O349  1  0.99491045  0.38113231  0.99474672  1
  O  O350  1  0.99317536  0.87256443  0.49299985  1
  O  O351  1  0.99549907  0.87910265  0.99269262  1
  O  O352  1  0.49200839  0.49356583  0.37596358  1
  O  O353  1  0.49307204  0.49531709  0.88115651  1
  O  O354  1  0.49671883  0.99447028  0.37902363  1
  O  O355  1  0.50247933  0.99306671  0.88616545  1
  O  O356  1  0.99319007  0.49380856  0.37411481  1
  O  O357  1  0.99403154  0.49517997  0.88038768  1
  O  O358  1  0.99383885  0.99186404  0.37483927  1
  O  O359  1  0.99921129  0.99056140  0.87980729  1
  O  O360  1  0.00782980  0.00085746  0.11776348  1
  O  O361  1  -0.00003142  0.01141431  0.62603461  1
  O  O362  1  0.00481413  0.50551130  0.11966594  1
  O  O363  1  0.00497878  0.50887110  0.62663171  1
  O  O364  1  0.50714024  -0.00128783  0.11599697  1
  O  O365  1  0.50554144  0.00392538  0.61966352  1
  O  O366  1  0.50343871  0.50607071  0.12075661  1
  O  O367  1  0.50429945  0.50588095  0.62009944  1
  O  O368  1  0.24434898  0.38046739  0.24414640  1
  O  O369  1  0.24458756  0.38102475  0.74517598  1
  O  O370  1  0.25016131  0.88202849  0.24164474  1
  O  O371  1  0.24836504  0.87945557  0.74147234  1
  O  O372  1  0.74287706  0.38401543  0.24834987  1
  O  O373  1  0.74346254  0.38046591  0.74605822  1
  O  O374  1  0.74582477  0.87975740  0.24429221  1
  O  O375  1  0.74593207  0.88020323  0.74501774  1
  O  O376  1  0.25774258  0.11824268  0.25239493  1
  O  O377  1  0.25044069  0.11213611  0.74840573  1
  O  O378  1  0.25576899  0.61915971  0.25350381  1
  O  O379  1  0.25400839  0.61895947  0.75568710  1
  O  O380  1  0.75762553  0.11777606  0.25296441  1
  O  O381  1  0.75466368  0.12045728  0.75540356  1
  O  O382  1  0.75587381  0.62153555  0.25508121  1
  O  O383  1  0.75134185  0.61890913  0.75652878  1
  O  O384  1  0.37597086  0.11814009  0.36846393  1
  O  O385  1  0.37073371  0.11810206  0.87276470  1
  O  O386  1  0.36939096  0.61988513  0.36858630  1
  O  O387  1  0.36837272  0.61960550  0.87044046  1
  O  O388  1  0.87544418  0.11864125  0.36833178  1
  O  O389  1  0.86795028  0.12539559  0.86830486  1
  O  O390  1  0.87047280  0.62052236  0.36885600  1
  O  O391  1  0.86794806  0.61802910  0.87399972  1
  O  O392  1  0.12952148  0.38010473  0.13009421  1
  O  O393  1  0.12904308  0.38003368  0.63098436  1
  O  O394  1  0.13307818  0.88217878  0.12511923  1
  O  O395  1  0.13827404  0.87081854  0.62587140  1
  O  O396  1  0.62494582  0.38347934  0.13288382  1
  O  O397  1  0.63053396  0.37506738  0.63185773  1
  O  O398  1  0.63196130  0.87994193  0.13132453  1
  O  O399  1  0.63133591  0.87926473  0.63028135  1
  O  O400  1  0.11981387  0.25524175  0.25695539  1
  O  O401  1  0.11795479  0.25710944  0.75177783  1
  O  O402  1  0.11876691  0.75129839  0.25446123  1
  O  O403  1  0.11197845  0.75177729  0.75328937  1
  O  O404  1  0.61974379  0.25659333  0.25692202  1
  O  O405  1  0.62216492  0.25774000  0.75914161  1
  O  O406  1  0.62031042  0.75544171  0.25465971  1
  O  O407  1  0.62453916  0.75703435  0.75620069  1
  O  O408  1  0.37958450  0.24672779  0.24620620  1
  O  O409  1  0.37982610  0.24583372  0.74615063  1
  O  O410  1  0.38063846  0.74470603  0.24432583  1
  O  O411  1  0.37460615  0.74381091  0.74029153  1
  O  O412  1  0.87963041  0.24613354  0.24601252  1
  O  O413  1  0.88030161  0.24563863  0.74496521  1
  O  O414  1  0.88048878  0.74433761  0.24406229  1
  O  O415  1  0.88762371  0.74781687  0.74792073  1
  O  O416  1  0.37428880  0.48961503  0.49260491  1
  O  O417  1  0.37874075  0.49475827  0.99541704  1
  O  O418  1  0.38368089  0.99573703  0.49232782  1
  O  O419  1  0.38549461  0.99349576  1.00242680  1
  O  O420  1  0.87580482  0.49386251  0.49165568  1
  O  O421  1  0.88038800  0.49512630  0.99535442  1
  O  O422  1  0.87751167  0.99217815  0.49298088  1
  O  O423  1  0.88211733  0.99395463  0.99915039  1
  O  O424  1  0.12154208  0.00792191  0.00507184  1
  O  O425  1  0.11987536  0.00154646  0.50556213  1
  O  O426  1  0.11913449  0.50480334  0.00581987  1
  O  O427  1  0.12171272  0.50146883  0.50819772  1
  O  O428  1  0.61653636  -0.00084410  0.00693416  1
  O  O429  1  0.61891705  -0.00057464  0.50687273  1
  O  O430  1  0.61682349  0.50163722  0.00664001  1
  O  O431  1  0.62529710  0.51231278  0.49832897  1
  O  O432  1  0.36869364  0.37082657  0.12002641  1
  O  O433  1  0.36942427  0.37639937  0.61554682  1
  O  O434  1  0.37060136  0.86895826  0.11954241  1
  O  O435  1  0.36561766  0.86309587  0.62450518  1
  O  O436  1  0.87338543  0.36938390  0.11838703  1
  O  O437  1  0.86923351  0.37037148  0.62074312  1
  O  O438  1  0.87038704  0.86953351  0.12037842  1
  O  O439  1  0.86872110  0.87348466  0.61806850  1
  O  O440  1  0.12415707  0.13694451  0.37564223  1
  O  O441  1  0.12736857  0.12515402  0.88754402  1
  O  O442  1  0.13191853  0.63067363  0.37359492  1
  O  O443  1  0.13135049  0.62464310  0.88216154  1
  O  O444  1  0.62573605  0.13750082  0.37475425  1
  O  O445  1  0.63174979  0.13262055  0.87757483  1
  O  O446  1  0.63108877  0.63088696  0.38085689  1
  O  O447  1  0.63138637  0.63242247  0.87710596  1
