# generated using pymatgen
data_V3Zn3O8
_symmetry_space_group_name_H-M   'P 1'
_cell_length_a   17.08844722
_cell_length_b   17.08909777
_cell_length_c   17.08803715
_cell_angle_alpha   89.99143241
_cell_angle_beta   89.99968256
_cell_angle_gamma   89.99380101
_symmetry_Int_Tables_number   1
_chemical_formula_structural   V3Zn3O8
_chemical_formula_sum   'V96 Zn96 O256'
_cell_volume   4990.15353127
_cell_formula_units_Z   32
loop_
 _symmetry_equiv_pos_site_id
 _symmetry_equiv_pos_as_xyz
  1  'x, y, z'
loop_
 _atom_site_type_symbol
 _atom_site_label
 _atom_site_symmetry_multiplicity
 _atom_site_fract_x
 _atom_site_fract_y
 _atom_site_fract_z
 _atom_site_occupancy
  V  V0  1  0.24999597  0.25063278  0.00081403  1
  V  V1  1  0.49976846  0.37548631  0.37531302  1
  V  V2  1  0.49947145  0.87504425  0.87483219  1
  V  V3  1  0.87515747  0.87414209  0.50080931  1
  V  V4  1  0.12452939  0.25033609  0.87472531  1
  V  V5  1  0.62550233  0.62648513  0.49947117  1
  V  V6  1  0.87382108  0.75099485  0.12404760  1
  V  V7  1  0.62431711  0.62471779  0.00044001  1
  V  V8  1  0.12617936  0.62636655  0.49840304  1
  V  V9  1  0.50129183  0.25110232  0.75033097  1
  V  V10  1  0.62318833  0.37471097  0.25111568  1
  V  V11  1  0.24950210  0.00062383  0.25118289  1
  V  V12  1  0.12546434  0.74919427  0.37548238  1
  V  V13  1  0.62459356  0.75067226  0.37460621  1
  V  V14  1  0.25055604  0.12441316  0.37586904  1
  V  V15  1  0.50049467  0.62573453  0.62498613  1
  V  V16  1  -0.00109147  0.87559844  0.37525350  1
  V  V17  1  0.12565746  0.49934652  0.62383672  1
  V  V18  1  0.25032779  0.00040708  0.74948580  1
  V  V19  1  0.25004251  0.87421345  0.12436903  1
  V  V20  1  0.49934852  0.49997244  0.49978663  1
  V  V21  1  0.62502191  0.12530396  -0.00030627  1
  V  V22  1  0.49966243  0.00051623  -0.00073994  1
  V  V23  1  0.12578589  0.12513077  0.50003280  1
  V  V24  1  0.50078874  0.37597046  0.87600734  1
  V  V25  1  -0.00006431  0.12531388  0.62514467  1
  V  V26  1  0.87409593  0.12497469  0.25064957  1
  V  V27  1  0.25121846  0.49930721  0.74973060  1
  V  V28  1  0.74927978  0.62571460  0.37439552  1
  V  V29  1  0.49913419  0.49884986  -0.00032136  1
  V  V30  1  0.75024652  0.62403890  0.87507820  1
  V  V31  1  -0.00071531  0.37493283  0.87488019  1
  V  V32  1  0.12499463  0.75194572  0.87319495  1
  V  V33  1  0.37535318  0.75046992  0.62317193  1
  V  V34  1  0.62458565  0.25024521  0.37531416  1
  V  V35  1  0.25070934  0.87424123  0.62406816  1
  V  V36  1  0.62382014  0.87529754  0.25015871  1
  V  V37  1  0.37681389  0.25012461  0.62588061  1
  V  V38  1  0.00137576  0.74923275  0.74991169  1
  V  V39  1  0.87488457  0.37460681  0.49959532  1
  V  V40  1  0.74921584  0.50088909  0.25023247  1
  V  V41  1  0.00073632  0.49954555  0.49905991  1
  V  V42  1  0.62414588  0.49961534  0.12563050  1
  V  V43  1  0.12423564  0.62390816  -0.00060085  1
  V  V44  1  0.00069677  0.24967665  0.74991586  1
  V  V45  1  0.75131528  0.12456241  0.87447772  1
  V  V46  1  0.25154995  0.62360565  0.87512692  1
  V  V47  1  0.37451279  0.00037201  0.87440819  1
  V  V48  1  0.75046727  0.25029816  0.00062331  1
  V  V49  1  0.87429840  0.25068070  0.12501441  1
  V  V50  1  0.25011746  0.37494496  0.62456411  1
  V  V51  1  0.62542605  0.25042174  0.87393283  1
  V  V52  1  0.50035469  0.74982864  0.74957580  1
  V  V53  1  0.12375001  0.00076011  0.12502528  1
  V  V54  1  0.62574167  0.50044103  0.62522158  1
  V  V55  1  0.74998805  0.37518973  0.62513956  1
  V  V56  1  0.12446983  0.87551916  0.24980157  1
  V  V57  1  0.24949351  0.12585465  0.87552806  1
  V  V58  1  0.62476052  0.00050170  0.12467584  1
  V  V59  1  0.62423059  0.74973571  0.87577636  1
  V  V60  1  0.37570897  0.37546566  0.49924775  1
  V  V61  1  0.87383408  0.62534220  0.25015583  1
  V  V62  1  0.62576034  0.87609610  0.74993782  1
  V  V63  1  0.37340307  0.87430798  0.00061322  1
  V  V64  1  -0.00033743  -0.00031626  0.50020678  1
  V  V65  1  0.49717214  0.74990367  0.24883985  1
  V  V66  1  0.49893956  0.12558920  0.12524942  1
  V  V67  1  0.87479712  0.62355067  0.75005970  1
  V  V68  1  0.12393158  0.37431715  0.25065207  1
  V  V69  1  0.87488703  0.12251714  0.75112582  1
  V  V70  1  0.75039036  0.87419147  0.62542760  1
  V  V71  1  0.12616574  -0.00061193  0.62562292  1
  V  V72  1  -0.00015220  0.62485760  0.12439267  1
  V  V73  1  0.37602691  0.12672579  0.75019781  1
  V  V74  1  0.25017637  0.50133708  0.25228819  1
  V  V75  1  0.00029601  0.12475164  0.12470415  1
  V  V76  1  -0.00036796  0.37514825  0.37429269  1
  V  V77  1  0.74991173  0.75067829  0.00079791  1
  V  V78  1  0.74991586  0.87472636  0.12399045  1
  V  V79  1  0.25009561  0.37430299  0.12466813  1
  V  V80  1  0.49826558  0.62513993  0.12572191  1
  V  V81  1  0.12380820  0.12435697  0.00077468  1
  V  V82  1  0.50041229  -0.00084713  0.49915520  1
  V  V83  1  0.74922581  0.00078170  0.24981490  1
  V  V84  1  0.87512960  0.50008630  0.87495035  1
  V  V85  1  0.62705861  0.00058945  0.62589001  1
  V  V86  1  0.00012579  0.62398259  0.62437262  1
  V  V87  1  0.37557513  0.12549234  0.24999414  1
  V  V88  1  -0.00071987  0.49993759  -0.00017596  1
  V  V89  1  0.74954826  0.37454149  0.12550343  1
  V  V90  1  0.74938531  0.12509159  0.37473294  1
  V  V91  1  -0.00083877  0.75041684  0.24921273  1
  V  V92  1  0.25072353  0.24913790  0.50030457  1
  V  V93  1  0.62693837  0.12526039  0.50045898  1
  V  V94  1  -0.00030582  0.25072615  0.25031949  1
  V  V95  1  0.87506138  0.74907434  0.62485639  1
  Zn  Zn96  1  0.12291964  0.87569485  0.75032675  1
  Zn  Zn97  1  0.87611164  -0.00291335  0.87968628  1
  Zn  Zn98  1  0.37578361  0.87666281  0.49737783  1
  Zn  Zn99  1  0.12390329  0.50083838  0.12505417  1
  Zn  Zn100  1  0.87800347  0.87638868  -0.00161518  1
  Zn  Zn101  1  0.37194825  0.74813149  0.12382190  1
  Zn  Zn102  1  0.87483302  0.24909605  0.62455934  1
  Zn  Zn103  1  0.37485803  0.37482481  -0.00037480  1
  Zn  Zn104  1  0.12432204  0.37362899  0.74916213  1
  Zn  Zn105  1  0.12488542  0.24920903  0.37557725  1
  Zn  Zn106  1  0.37642914  0.49924171  0.87650343  1
  Zn  Zn107  1  0.37618475  0.25008796  0.12346142  1
  Zn  Zn108  1  0.74927814  0.49887100  0.75134214  1
  Zn  Zn109  1  0.62615784  0.37611258  0.74957873  1
  Zn  Zn110  1  0.25179367  0.74966939  0.49669036  1
  Zn  Zn111  1  0.37463415  0.50280708  0.37531049  1
  Zn  Zn112  1  0.75090145  0.24876021  0.49985675  1
  Zn  Zn113  1  0.25214045  0.62692516  0.37541682  1
  Zn  Zn114  1  -0.00499290  0.87615298  0.87386755  1
  Zn  Zn115  1  0.00010100  -0.00490837  -0.00263003  1
  Zn  Zn116  1  0.75153883  -0.00154594  0.75278705  1
  Zn  Zn117  1  0.37274279  0.62526960  0.25117344  1
  Zn  Zn118  1  0.87463045  0.37524262  -0.00007740  1
  Zn  Zn119  1  0.37686162  0.62427579  0.75062810  1
  Zn  Zn120  1  0.50290205  0.12605840  0.62581607  1
  Zn  Zn121  1  0.87468162  0.50168289  0.37399136  1
  Zn  Zn122  1  0.74963968  0.75004004  0.49971275  1
  Zn  Zn123  1  0.87402791  -0.00012113  0.37555318  1
  Zn  Zn124  1  0.49840190  0.25121601  0.24902332  1
  Zn  Zn125  1  0.37596686  -0.00209438  0.37663880  1
  Zn  Zn126  1  0.49755215  0.87495068  0.37494020  1
  Zn  Zn127  1  0.25137544  0.74806385  0.00159327  1
  Zn  Zn128  1  0.18672819  0.18851092  0.18841049  1
  Zn  Zn129  1  0.18754454  0.18755204  0.68760089  1
  Zn  Zn130  1  0.18616278  0.68796848  0.18711151  1
  Zn  Zn131  1  0.18794810  0.68617687  0.68737348  1
  Zn  Zn132  1  0.68605915  0.18854252  0.18854346  1
  Zn  Zn133  1  0.68900913  0.18904288  0.68687364  1
  Zn  Zn134  1  0.68559766  0.68791949  0.18755364  1
  Zn  Zn135  1  0.68862714  0.68778975  0.68816866  1
  Zn  Zn136  1  0.31267246  0.31188483  0.31374159  1
  Zn  Zn137  1  0.31482736  0.31425623  0.81399622  1
  Zn  Zn138  1  0.31316082  0.81483618  0.31428296  1
  Zn  Zn139  1  0.31256868  0.81207796  0.81045714  1
  Zn  Zn140  1  0.81146314  0.31209516  0.31323783  1
  Zn  Zn141  1  0.81444694  0.31144876  0.81165837  1
  Zn  Zn142  1  0.81154992  0.81302248  0.31249503  1
  Zn  Zn143  1  0.81290684  0.81166344  0.81270559  1
  Zn  Zn144  1  0.18681866  0.43653425  0.43633873  1
  Zn  Zn145  1  0.18459684  0.43674037  0.93772645  1
  Zn  Zn146  1  0.18710893  0.93758868  0.43757361  1
  Zn  Zn147  1  0.18745378  0.93765537  0.93921449  1
  Zn  Zn148  1  0.68701872  0.43915724  0.43749774  1
  Zn  Zn149  1  0.68703682  0.43692471  0.93844011  1
  Zn  Zn150  1  0.68744227  0.93694842  0.43733660  1
  Zn  Zn151  1  0.68962205  0.93825860  0.93695476  1
  Zn  Zn152  1  0.31117832  0.06174392  0.06345038  1
  Zn  Zn153  1  0.31498822  0.06360987  0.56368323  1
  Zn  Zn154  1  0.31433711  0.56057219  0.06396608  1
  Zn  Zn155  1  0.31269040  0.56396704  0.56131878  1
  Zn  Zn156  1  0.81424450  0.06182879  0.06182234  1
  Zn  Zn157  1  0.81256867  0.06036137  0.56338449  1
  Zn  Zn158  1  0.81304513  0.56275145  0.06226953  1
  Zn  Zn159  1  0.81198062  0.56139472  0.56116902  1
  Zn  Zn160  1  0.43510417  0.43803214  0.18778140  1
  Zn  Zn161  1  0.43787212  0.43675747  0.68784367  1
  Zn  Zn162  1  0.43615859  0.93783662  0.18665004  1
  Zn  Zn163  1  0.43887094  0.93855982  0.68598720  1
  Zn  Zn164  1  0.93584080  0.43856338  0.18692803  1
  Zn  Zn165  1  0.93724661  0.43752936  0.68828570  1
  Zn  Zn166  1  0.93608004  0.93877936  0.18596508  1
  Zn  Zn167  1  0.93856186  0.93620709  0.68898452  1
  Zn  Zn168  1  0.06204571  0.06284433  0.31353230  1
  Zn  Zn169  1  0.06159816  0.06067158  0.81368300  1
  Zn  Zn170  1  0.06337023  0.56169235  0.31245235  1
  Zn  Zn171  1  0.06344857  0.56182214  0.81184378  1
  Zn  Zn172  1  0.56231819  0.06299797  0.31380328  1
  Zn  Zn173  1  0.56315641  0.06340561  0.81185204  1
  Zn  Zn174  1  0.56160495  0.56315622  0.31325009  1
  Zn  Zn175  1  0.56407043  0.56131375  0.81105261  1
  Zn  Zn176  1  0.43921584  0.18652257  0.43719797  1
  Zn  Zn177  1  0.43628839  0.18991049  0.93805375  1
  Zn  Zn178  1  0.43643225  0.68591036  0.43519268  1
  Zn  Zn179  1  0.43598910  0.68711735  0.93874383  1
  Zn  Zn180  1  0.93719303  0.18837614  0.43651638  1
  Zn  Zn181  1  0.93753262  0.18692543  0.93795378  1
  Zn  Zn182  1  0.93741250  0.68811670  0.43712584  1
  Zn  Zn183  1  0.93744670  0.68845057  0.93750949  1
  Zn  Zn184  1  0.06277315  0.31316444  0.06242121  1
  Zn  Zn185  1  0.06333672  0.31140698  0.56285628  1
  Zn  Zn186  1  0.06327523  0.81199057  0.05975602  1
  Zn  Zn187  1  0.06320710  0.81181789  0.56230334  1
  Zn  Zn188  1  0.56228012  0.31142185  0.06284610  1
  Zn  Zn189  1  0.56358722  0.31222312  0.56154071  1
  Zn  Zn190  1  0.56164713  0.81288273  0.06311940  1
  Zn  Zn191  1  0.56370360  0.81397152  0.56220490  1
  O  O192  1  0.12019200  0.12035219  0.12105081  1
  O  O193  1  0.12077346  0.11867209  0.61949136  1
  O  O194  1  0.11702971  0.62471564  0.11711122  1
  O  O195  1  0.11922754  0.61942765  0.61883984  1
  O  O196  1  0.61954002  0.11973234  0.11924198  1
  O  O197  1  0.62614305  0.11905064  0.61871515  1
  O  O198  1  0.61924824  0.61882930  0.11966620  1
  O  O199  1  0.62007837  0.62133787  0.61945010  1
  O  O200  1  0.38167864  0.37601865  0.38247637  1
  O  O201  1  0.38479692  0.37814975  0.87824802  1
  O  O202  1  0.37922388  0.88009497  0.37999291  1
  O  O203  1  0.37971809  0.88095778  0.87881301  1
  O  O204  1  0.87943993  0.37723105  0.38393210  1
  O  O205  1  0.88122014  0.38153883  0.87646943  1
  O  O206  1  0.88135982  0.87559148  0.38147709  1
  O  O207  1  0.87509769  0.87696842  0.87839195  1
  O  O208  1  0.25063836  0.00664748  0.36875391  1
  O  O209  1  0.25516662  0.00592277  0.86944067  1
  O  O210  1  0.25013869  0.49920590  0.36314972  1
  O  O211  1  0.24785268  0.50743549  0.86621673  1
  O  O212  1  0.75026769  0.00659820  0.36699562  1
  O  O213  1  0.75107194  0.01026198  0.87222400  1
  O  O214  1  0.75007641  0.50762259  0.36748119  1
  O  O215  1  0.75594912  0.50649466  0.87526195  1
  O  O216  1  0.24704952  0.49024085  0.13275769  1
  O  O217  1  0.24548991  0.49543823  0.63176333  1
  O  O218  1  0.24297798  0.99485117  0.13178550  1
  O  O219  1  0.24684660  0.99301234  0.62962016  1
  O  O220  1  0.74362850  0.49521377  0.13011475  1
  O  O221  1  0.74461549  0.49086212  0.62500019  1
  O  O222  1  0.74283544  0.99558181  0.13029055  1
  O  O223  1  0.74397321  0.99198439  0.62820273  1
  O  O224  1  0.00373028  0.37072839  0.25406507  1
  O  O225  1  0.00133272  0.36827989  0.75598236  1
  O  O226  1  0.00483495  0.87014521  0.25454708  1
  O  O227  1  0.00387650  0.86410083  0.75108253  1
  O  O228  1  0.50575973  0.37477370  0.25619772  1
  O  O229  1  0.50203245  0.36875941  0.75739601  1
  O  O230  1  0.50621603  0.86650587  0.24825777  1
  O  O231  1  0.50540917  0.86997889  0.75583454  1
  O  O232  1  0.49084323  0.12418322  0.24446495  1
  O  O233  1  0.49349214  0.13259954  0.74999368  1
  O  O234  1  0.50143585  0.63462641  0.24382360  1
  O  O235  1  0.49929550  0.63192602  0.74322081  1
  O  O236  1  0.99463010  0.13079146  0.24511104  1
  O  O237  1  0.99332010  0.13001206  0.74482140  1
  O  O238  1  0.99439066  0.63065841  0.24466550  1
  O  O239  1  0.99502966  0.62861370  0.74343611  1
  O  O240  1  0.36502903  0.25196518  0.00306623  1
  O  O241  1  0.37045920  0.25485147  0.50617556  1
  O  O242  1  0.37248115  0.75905901  0.00154413  1
  O  O243  1  0.37556181  0.75253062  0.51307167  1
  O  O244  1  0.86781103  0.25057687  0.00753159  1
  O  O245  1  0.87447751  0.26323475  0.50171414  1
  O  O246  1  0.86661063  0.74847676  0.00763511  1
  O  O247  1  0.87472260  0.75599646  0.50782834  1
  O  O248  1  0.13264805  0.24243262  0.50016039  1
  O  O249  1  0.13063522  0.24418192  0.99441275  1
  O  O250  1  0.12516526  0.74374617  0.49328993  1
  O  O251  1  0.12840487  0.74154817  0.98880696  1
  O  O252  1  0.62672427  0.24324633  0.49309369  1
  O  O253  1  0.63081823  0.24353104  0.99458143  1
  O  O254  1  0.62518603  0.74375470  0.49308105  1
  O  O255  1  0.62890827  0.74430711  0.99491880  1
  O  O256  1  0.49724115  0.24140398  0.12765555  1
  O  O257  1  0.49441192  0.25007110  0.63168669  1
  O  O258  1  0.50095535  0.74401653  0.13424459  1
  O  O259  1  0.49363674  0.74649315  0.62985491  1
  O  O260  1  0.99440092  0.24528642  0.13102578  1
  O  O261  1  0.99954389  0.24278577  0.63145885  1
  O  O262  1  0.99452230  0.74423425  0.13058732  1
  O  O263  1  0.99551737  0.74284519  0.62994898  1
  O  O264  1  0.00098118  0.25700384  0.36762108  1
  O  O265  1  0.00530569  0.25479870  0.86993563  1
  O  O266  1  0.00487923  0.75622083  0.36832478  1
  O  O267  1  0.01166213  0.74605412  0.86812115  1
  O  O268  1  0.50689446  0.25740439  0.37362433  1
  O  O269  1  0.50607894  0.25570368  0.87082474  1
  O  O270  1  0.50646338  0.75038290  0.36449459  1
  O  O271  1  0.50479803  0.75532370  0.86992028  1
  O  O272  1  0.24582507  0.12917856  0.49614774  1
  O  O273  1  0.24394462  0.12994327  0.99474203  1
  O  O274  1  0.24068116  0.62769232  0.49855941  1
  O  O275  1  0.24449523  0.62244585  0.98945760  1
  O  O276  1  0.74507158  0.12494830  0.49332869  1
  O  O277  1  0.74367418  0.13125056  0.99559675  1
  O  O278  1  0.74345971  0.62628064  0.49315499  1
  O  O279  1  0.74317353  0.63055665  0.99548939  1
  O  O280  1  0.24801105  0.37045954  0.00943460  1
  O  O281  1  0.25540423  0.36958120  0.50543514  1
  O  O282  1  0.25628814  0.87420746  0.00655608  1
  O  O283  1  0.25162853  0.87436406  0.51383001  1
  O  O284  1  0.75049507  0.36798049  0.00785046  1
  O  O285  1  0.75925335  0.37664647  0.50676462  1
  O  O286  1  0.74748368  0.86694207  0.00790790  1
  O  O287  1  0.75668141  0.87297685  0.50679890  1
  O  O288  1  0.13283576  0.49263849  0.24742714  1
  O  O289  1  0.13548804  0.49908686  0.74315396  1
  O  O290  1  0.12989248  0.99500070  0.24520582  1
  O  O291  1  0.13336192  0.99966490  0.74287612  1
  O  O292  1  0.62967760  0.49484072  0.24451498  1
  O  O293  1  0.62866350  0.49710023  0.74043132  1
  O  O294  1  0.62918382  0.99582584  0.24345311  1
  O  O295  1  0.62540657  0.99340411  0.74409645  1
  O  O296  1  0.36879777  0.01056389  0.25037234  1
  O  O297  1  0.37065041  0.00595783  0.75525224  1
  O  O298  1  0.36219857  0.50022164  0.25179725  1
  O  O299  1  0.36221236  0.50207649  0.75005223  1
  O  O300  1  0.86707056  0.00726449  0.25061716  1
  O  O301  1  0.87481274  0.01373331  0.74996236  1
  O  O302  1  0.86709408  0.50757520  0.25072343  1
  O  O303  1  0.87411746  0.50704790  0.75689709  1
  O  O304  1  0.11704120  0.37176496  0.36915612  1
  O  O305  1  0.11770823  0.36783391  0.87258251  1
  O  O306  1  0.11850694  0.87019093  0.36947082  1
  O  O307  1  0.13126600  0.85976307  0.87162957  1
  O  O308  1  0.61988179  0.37059285  0.37059185  1
  O  O309  1  0.61929136  0.36806968  0.87359761  1
  O  O310  1  0.62384957  0.86840925  0.36686143  1
  O  O311  1  0.61886018  0.86944536  0.87071615  1
  O  O312  1  0.37965590  0.12413989  0.13426106  1
  O  O313  1  0.37691110  0.13299838  0.63316119  1
  O  O314  1  0.38316279  0.62799604  0.12894522  1
  O  O315  1  0.38119626  0.63511699  0.62604796  1
  O  O316  1  0.87961360  0.13186969  0.13201340  1
  O  O317  1  0.88084694  0.12632063  0.63310763  1
  O  O318  1  0.87943331  0.63137491  0.13101509  1
  O  O319  1  0.88071739  0.62848048  0.62931503  1
  O  O320  1  0.24883687  0.25928164  0.11982712  1
  O  O321  1  0.25654305  0.25519925  0.62050056  1
  O  O322  1  0.25088826  0.75854021  0.12325960  1
  O  O323  1  0.25869124  0.75764689  0.62618646  1
  O  O324  1  0.75397618  0.25496035  0.12051355  1
  O  O325  1  0.75239170  0.26245487  0.62067722  1
  O  O326  1  0.75346527  0.75466942  0.12045871  1
  O  O327  1  0.75732625  0.75595108  0.62374364  1
  O  O328  1  0.24867283  0.24274955  0.38299899  1
  O  O329  1  0.24464430  0.24530194  0.87990344  1
  O  O330  1  0.24040528  0.74976814  0.37623927  1
  O  O331  1  0.24307607  0.73829168  0.87204559  1
  O  O332  1  0.74257533  0.24350633  0.37660659  1
  O  O333  1  0.74520471  0.24496644  0.88045033  1
  O  O334  1  0.74220792  0.74326317  0.37485564  1
  O  O335  1  0.74281838  0.74319564  0.88068196  1
  O  O336  1  0.00807246  0.12690194  0.00847111  1
  O  O337  1  0.00473864  0.12005231  0.50507036  1
  O  O338  1  0.00454584  0.61984224  0.00476722  1
  O  O339  1  0.00490609  0.61888484  0.50533413  1
  O  O340  1  0.50498387  0.11939322  0.00400155  1
  O  O341  1  0.50815107  0.11629288  0.50218591  1
  O  O342  1  0.50595759  0.62000090  0.00522465  1
  O  O343  1  0.50597260  0.62002819  0.50585937  1
  O  O344  1  0.49516837  0.38094303  0.49549624  1
  O  O345  1  0.50087379  0.38087745  0.99388369  1
  O  O346  1  0.50100734  0.88755039  0.49959549  1
  O  O347  1  0.49518791  0.88132302  0.99408718  1
  O  O348  1  0.99314476  0.37947931  0.49593122  1
  O  O349  1  0.99820940  0.38133965  0.99358336  1
  O  O350  1  0.99540893  0.88025528  0.49565341  1
  O  O351  1  0.99797747  0.87509297  0.99448117  1
  O  O352  1  0.50014982  0.49337222  0.38256135  1
  O  O353  1  0.50125580  0.49385497  0.88108802  1
  O  O354  1  0.50107994  0.99863160  0.38702533  1
  O  O355  1  0.49436509  0.99486836  0.87995818  1
  O  O356  1  0.99796234  0.49319163  0.38132036  1
  O  O357  1  0.99516388  0.49548015  0.87955993  1
  O  O358  1  0.99873818  0.99322323  0.38205482  1
  O  O359  1  0.99789513  0.99538706  0.87793305  1
  O  O360  1  0.00777035  0.00792826  0.12633090  1
  O  O361  1  0.00668331  0.00511584  0.62021723  1
  O  O362  1  0.00018263  0.50703888  0.11855176  1
  O  O363  1  0.00606824  0.50468858  0.61947866  1
  O  O364  1  0.50557974  0.00537194  0.11820281  1
  O  O365  1  0.50824686  0.00218087  0.61706520  1
  O  O366  1  0.50588636  0.50472179  0.12087090  1
  O  O367  1  0.50521799  0.50565670  0.61970027  1
  O  O368  1  0.24460977  0.37981206  0.24349435  1
  O  O369  1  0.24895211  0.38376529  0.74432614  1
  O  O370  1  0.24345874  0.88147549  0.24486127  1
  O  O371  1  0.24989040  0.88136971  0.73884725  1
  O  O372  1  0.74346434  0.38085601  0.24527351  1
  O  O373  1  0.75077871  0.37644640  0.73741021  1
  O  O374  1  0.74329426  0.88042483  0.24373307  1
  O  O375  1  0.74276957  0.87517866  0.74373400  1
  O  O376  1  0.25647204  0.12034715  0.25474526  1
  O  O377  1  0.25638864  0.12048863  0.75597067  1
  O  O378  1  0.24799466  0.61265955  0.24937794  1
  O  O379  1  0.25051521  0.61551201  0.75754476  1
  O  O380  1  0.75399632  0.12006748  0.25452201  1
  O  O381  1  0.76019447  0.12625185  0.75526174  1
  O  O382  1  0.75371762  0.62027107  0.25398057  1
  O  O383  1  0.75682785  0.62378172  0.75725738  1
  O  O384  1  0.36975284  0.12271581  0.36577431  1
  O  O385  1  0.36908719  0.11966545  0.87030367  1
  O  O386  1  0.37008938  0.62092687  0.37010380  1
  O  O387  1  0.36349185  0.62290603  0.87244257  1
  O  O388  1  0.86830401  0.12392623  0.36817960  1
  O  O389  1  0.86956388  0.12587638  0.86546716  1
  O  O390  1  0.86831169  0.62505957  0.36786668  1
  O  O391  1  0.86974366  0.62038268  0.86955319  1
  O  O392  1  0.13443907  0.37621530  0.13127472  1
  O  O393  1  0.13233834  0.38153473  0.62556911  1
  O  O394  1  0.12979810  0.88021593  0.13121597  1
  O  O395  1  0.13482809  0.87990821  0.62642755  1
  O  O396  1  0.62994105  0.38018350  0.13114896  1
  O  O397  1  0.63519787  0.38126939  0.62301399  1
  O  O398  1  0.62974277  0.88127775  0.13005251  1
  O  O399  1  0.63093841  0.87941027  0.63121782  1
  O  O400  1  0.11748561  0.25631642  0.25195981  1
  O  O401  1  0.11893250  0.24994550  0.75683110  1
  O  O402  1  0.11775101  0.75630945  0.25479457  1
  O  O403  1  0.11992248  0.74754662  0.75805542  1
  O  O404  1  0.62261448  0.25715778  0.25696512  1
  O  O405  1  0.61928522  0.25139484  0.75651747  1
  O  O406  1  0.61618777  0.75515927  0.25385142  1
  O  O407  1  0.61922952  0.75566730  0.75598552  1
  O  O408  1  0.37512109  0.23647926  0.24799911  1
  O  O409  1  0.38055921  0.24557194  0.74561468  1
  O  O410  1  0.38783700  0.75064154  0.24793632  1
  O  O411  1  0.38164630  0.74925159  0.73924718  1
  O  O412  1  0.87957212  0.24494219  0.24451968  1
  O  O413  1  0.88208149  0.23897827  0.74809032  1
  O  O414  1  0.87980563  0.74491084  0.24398292  1
  O  O415  1  0.88137943  0.74211485  0.74418799  1
  O  O416  1  0.38173057  0.49289372  0.50075874  1
  O  O417  1  0.38432707  0.49681310  0.99814198  1
  O  O418  1  0.38797551  1.00092742  0.50096340  1
  O  O419  1  0.38001945  0.99570522  0.99346223  1
  O  O420  1  0.88198302  0.49028469  0.49836391  1
  O  O421  1  0.88161580  0.49965067  0.99295149  1
  O  O422  1  0.88266609  0.99226723  0.49944777  1
  O  O423  1  0.88010706  0.99655680  0.99974714  1
  O  O424  1  0.12569738  0.00790233  0.00790837  1
  O  O425  1  0.11959791  0.00535989  0.50651188  1
  O  O426  1  0.11697499  0.50694512  0.00060357  1
  O  O427  1  0.11984225  0.50489307  0.50499727  1
  O  O428  1  0.61904553  0.00590118  0.00481110  1
  O  O429  1  0.61930115  0.00524197  0.50583434  1
  O  O430  1  0.61980392  0.50593231  0.00692008  1
  O  O431  1  0.61884297  0.50674521  0.50565248  1
  O  O432  1  0.36154052  0.37214452  0.12444260  1
  O  O433  1  0.36965139  0.36925694  0.61892202  1
  O  O434  1  0.36760826  0.87568088  0.11796143  1
  O  O435  1  0.36766801  0.86703389  0.62477998  1
  O  O436  1  0.86707440  0.36819065  0.12457037  1
  O  O437  1  0.86810340  0.37564739  0.61580263  1
  O  O438  1  0.86660123  0.86718743  0.12614352  1
  O  O439  1  0.87068067  0.86864212  0.62086140  1
  O  O440  1  0.13171096  0.12611859  0.38255642  1
  O  O441  1  0.13122739  0.13096169  0.88035961  1
  O  O442  1  0.12432713  0.63240142  0.38114544  1
  O  O443  1  0.13330735  0.63151345  0.87845852  1
  O  O444  1  0.63074231  0.13065647  0.37977095  1
  O  O445  1  0.63021962  0.13087058  0.88055464  1
  O  O446  1  0.62981261  0.63076996  0.37991406  1
  O  O447  1  0.62957323  0.63066545  0.88092822  1
