# generated using pymatgen
data_V3Zn3O8
_symmetry_space_group_name_H-M   'P 1'
_cell_length_a   17.09138238
_cell_length_b   17.09107327
_cell_length_c   17.08956583
_cell_angle_alpha   89.99930365
_cell_angle_beta   90.00232051
_cell_angle_gamma   89.98456163
_symmetry_Int_Tables_number   1
_chemical_formula_structural   V3Zn3O8
_chemical_formula_sum   'V96 Zn96 O256'
_cell_volume   4992.03406072
_cell_formula_units_Z   32
loop_
 _symmetry_equiv_pos_site_id
 _symmetry_equiv_pos_as_xyz
  1  'x, y, z'
loop_
 _atom_site_type_symbol
 _atom_site_label
 _atom_site_symmetry_multiplicity
 _atom_site_fract_x
 _atom_site_fract_y
 _atom_site_fract_z
 _atom_site_occupancy
  V  V0  1  0.62517759  0.00113892  0.12461146  1
  V  V1  1  0.62576664  0.12495171  0.49819573  1
  V  V2  1  0.74961079  0.50041381  0.25057099  1
  V  V3  1  0.75061143  0.25081447  0.00001493  1
  V  V4  1  0.62619135  0.87515971  0.74993940  1
  V  V5  1  0.50023203  0.12468306  0.62484745  1
  V  V6  1  0.87521585  0.12485287  0.75026475  1
  V  V7  1  0.50069289  0.25100351  0.25030210  1
  V  V8  1  -0.00051119  0.24980276  0.24928330  1
  V  V9  1  0.62539419  0.62539380  0.49861396  1
  V  V10  1  0.00089203  0.75046488  0.75053332  1
  V  V11  1  0.75038617  0.87559793  0.12572195  1
  V  V12  1  0.12445700  0.24886129  0.87438456  1
  V  V13  1  0.12742209  0.62701271  -0.00196958  1
  V  V14  1  0.24925721  0.37342254  0.12531921  1
  V  V15  1  0.25055726  -0.00138524  0.24956556  1
  V  V16  1  0.62472552  0.50091029  0.12469106  1
  V  V17  1  0.12523433  0.12593853  0.49926908  1
  V  V18  1  0.87384738  0.24998386  0.62479061  1
  V  V19  1  0.87475041  0.12456806  0.25067209  1
  V  V20  1  0.12484467  -0.00017475  0.12451946  1
  V  V21  1  0.74895903  0.24991516  0.50003577  1
  V  V22  1  0.75010187  0.37560884  0.12394309  1
  V  V23  1  0.87627958  0.87561315  0.49968854  1
  V  V24  1  0.87550799  0.75013354  0.62479700  1
  V  V25  1  0.74958542  0.50016364  0.74952145  1
  V  V26  1  -0.00007842  -0.00034245  0.49981520  1
  V  V27  1  0.75009708  0.12607425  0.87601239  1
  V  V28  1  0.37632888  0.87512616  0.49990903  1
  V  V29  1  0.87453100  0.62546850  0.74969478  1
  V  V30  1  0.74923108  0.37447682  0.62558895  1
  V  V31  1  -0.00004932  0.25016963  0.75021419  1
  V  V32  1  0.12288613  0.37504508  0.74954689  1
  V  V33  1  0.37498090  0.62474066  0.24863190  1
  V  V34  1  0.25118181  0.87438031  0.62557618  1
  V  V35  1  0.50037750  0.75072399  0.25062239  1
  V  V36  1  0.62530594  0.12599159  -0.00019575  1
  V  V37  1  0.25017231  0.74872540  0.50054282  1
  V  V38  1  0.24979051  0.50182839  0.75189482  1
  V  V39  1  0.24994362  0.12642959  0.87488244  1
  V  V40  1  0.12477400  0.87233402  0.25154871  1
  V  V41  1  -0.00182679  0.49958905  -0.00070202  1
  V  V42  1  0.24972617  0.25014861  0.49955802  1
  V  V43  1  0.25128288  0.00052563  0.74906687  1
  V  V44  1  0.87522262  0.74987132  0.12685684  1
  V  V45  1  0.75098175  0.00024969  0.75063705  1
  V  V46  1  0.24988243  0.50027626  0.25069867  1
  V  V47  1  0.12478045  0.37424193  0.24987874  1
  V  V48  1  -0.00127982  0.37570879  0.37538305  1
  V  V49  1  0.87463070  0.62493961  0.25029877  1
  V  V50  1  0.87540479  0.49988110  0.87588124  1
  V  V51  1  0.50022920  0.12507144  0.12353641  1
  V  V52  1  0.49880762  0.37569446  0.87526723  1
  V  V53  1  0.24923409  0.62536254  0.37574724  1
  V  V54  1  0.49855896  0.62565388  0.62579760  1
  V  V55  1  0.62547064  0.00048506  0.62478444  1
  V  V56  1  0.37599144  0.12665918  0.74870497  1
  V  V57  1  0.37342498  0.37559508  -0.00058275  1
  V  V58  1  0.75023597  0.75080424  0.00034942  1
  V  V59  1  -0.00072139  0.62556368  0.12624313  1
  V  V60  1  0.75083924  0.00098523  0.25058247  1
  V  V61  1  0.37658874  -0.00179097  0.37514249  1
  V  V62  1  0.74950027  0.74954030  0.49953832  1
  V  V63  1  -0.00000033  0.12527580  0.62474230  1
  V  V64  1  0.12312574  0.50020213  0.62488362  1
  V  V65  1  0.12486651  0.24950144  0.37530916  1
  V  V66  1  0.50046633  0.62463018  0.12520934  1
  V  V67  1  0.87451919  0.49989698  0.37447018  1
  V  V68  1  0.87511489  0.25133461  0.12484919  1
  V  V69  1  0.87616987  -0.00023792  0.87568978  1
  V  V70  1  0.00149608  -0.00027656  0.00090416  1
  V  V71  1  0.62519060  0.87474935  0.25068427  1
  V  V72  1  0.37548687  0.74949271  0.62694518  1
  V  V73  1  0.12578413  0.87467282  0.75060657  1
  V  V74  1  0.37519910  0.12371681  0.24952806  1
  V  V75  1  0.62368196  0.37443067  0.75065581  1
  V  V76  1  0.37496405  0.24900038  0.62401195  1
  V  V77  1  0.87558361  0.87500792  0.00081361  1
  V  V78  1  0.37482396  0.37498209  0.49965731  1
  V  V79  1  0.62334102  0.37450791  0.25006769  1
  V  V80  1  0.62583204  0.75087878  0.87477412  1
  V  V81  1  0.75098124  0.87518368  0.62480617  1
  V  V82  1  0.00162605  0.87424735  0.87469682  1
  V  V83  1  0.50001588  0.74915027  0.74992059  1
  V  V84  1  0.00050183  0.87504034  0.37611088  1
  V  V85  1  -0.00107516  0.49981227  0.50001402  1
  V  V86  1  0.62450301  0.62515591  0.00064213  1
  V  V87  1  0.50117812  0.87651746  0.87501802  1
  V  V88  1  -0.00022687  0.62436523  0.62428266  1
  V  V89  1  0.37672730  0.00121002  0.87413755  1
  V  V90  1  0.37472249  0.87417518  0.00081532  1
  V  V91  1  0.12386637  0.49971472  0.12497633  1
  V  V92  1  0.37360614  0.24920026  0.12540046  1
  V  V93  1  0.75003129  0.62589403  0.87456752  1
  V  V94  1  0.12612587  0.00017920  0.62436721  1
  V  V95  1  0.49908213  0.49927492  0.49963527  1
  Zn  Zn96  1  0.62499968  0.49959479  0.62467929  1
  Zn  Zn97  1  0.12456050  0.62571411  0.49990469  1
  Zn  Zn98  1  0.00110990  0.12608678  0.12334158  1
  Zn  Zn99  1  0.25157072  0.87212339  0.12407657  1
  Zn  Zn100  1  0.49939891  0.25060399  0.74993610  1
  Zn  Zn101  1  0.37468537  0.62426727  0.75432819  1
  Zn  Zn102  1  0.37285251  0.74991429  0.12341958  1
  Zn  Zn103  1  0.49888138  0.50168100  -0.00014409  1
  Zn  Zn104  1  0.62488211  0.24995165  0.87590866  1
  Zn  Zn105  1  0.87399372  0.00075874  0.37579600  1
  Zn  Zn106  1  -0.00015739  0.74892385  0.25299249  1
  Zn  Zn107  1  0.50084748  0.37306368  0.37464784  1
  Zn  Zn108  1  0.50077367  0.00144212  -0.00079283  1
  Zn  Zn109  1  0.12876992  0.75019856  0.87522224  1
  Zn  Zn110  1  0.62522434  0.25091886  0.37386737  1
  Zn  Zn111  1  0.74952080  0.12581980  0.37444947  1
  Zn  Zn112  1  0.12373505  0.74956659  0.37760589  1
  Zn  Zn113  1  0.24657641  0.24796580  0.00022604  1
  Zn  Zn114  1  0.75020014  0.62586423  0.37471282  1
  Zn  Zn115  1  0.25035939  0.12503909  0.37461686  1
  Zn  Zn116  1  0.62658318  0.75176622  0.37506584  1
  Zn  Zn117  1  0.37338312  0.50145361  0.87495288  1
  Zn  Zn118  1  0.24811925  0.37585030  0.62467449  1
  Zn  Zn119  1  0.50267711  0.87359755  0.37717045  1
  Zn  Zn120  1  0.12526661  0.12566955  0.00014754  1
  Zn  Zn121  1  0.25095080  0.75020779  -0.00040396  1
  Zn  Zn122  1  0.25426914  0.62769607  0.87663957  1
  Zn  Zn123  1  0.87236809  0.37473499  0.49953987  1
  Zn  Zn124  1  0.87553921  0.37488185  -0.00143377  1
  Zn  Zn125  1  0.37460286  0.49829481  0.37393262  1
  Zn  Zn126  1  -0.00202949  0.37380800  0.87645426  1
  Zn  Zn127  1  0.50190415  -0.00236809  0.49929880  1
  Zn  Zn128  1  0.18843446  0.18555164  0.18873440  1
  Zn  Zn129  1  0.18860500  0.18890492  0.68677379  1
  Zn  Zn130  1  0.18983985  0.68961081  0.18420445  1
  Zn  Zn131  1  0.18672567  0.68604668  0.68759758  1
  Zn  Zn132  1  0.68798279  0.18869655  0.18606577  1
  Zn  Zn133  1  0.68666378  0.18875244  0.68789648  1
  Zn  Zn134  1  0.68746991  0.68749785  0.18812305  1
  Zn  Zn135  1  0.68647160  0.68731030  0.68530988  1
  Zn  Zn136  1  0.31259827  0.31141972  0.31384543  1
  Zn  Zn137  1  0.30992800  0.31364477  0.81083033  1
  Zn  Zn138  1  0.31286661  0.81146510  0.31263262  1
  Zn  Zn139  1  0.31229948  0.81043429  0.81584978  1
  Zn  Zn140  1  0.80987380  0.31205330  0.31347827  1
  Zn  Zn141  1  0.81272952  0.31295318  0.81366551  1
  Zn  Zn142  1  0.81265684  0.81209980  0.31463857  1
  Zn  Zn143  1  0.81404272  0.81272994  0.81288703  1
  Zn  Zn144  1  0.18649903  0.43821126  0.43791895  1
  Zn  Zn145  1  0.18521241  0.43620561  0.93622506  1
  Zn  Zn146  1  0.18941748  0.93717149  0.43714494  1
  Zn  Zn147  1  0.18970015  0.93843621  0.93655897  1
  Zn  Zn148  1  0.68675285  0.43632865  0.43579749  1
  Zn  Zn149  1  0.68758001  0.43826573  0.93782123  1
  Zn  Zn150  1  0.68931134  0.93822398  0.43497396  1
  Zn  Zn151  1  0.68808774  0.93945753  0.93857855  1
  Zn  Zn152  1  0.31111646  0.06035442  0.06052513  1
  Zn  Zn153  1  0.31280074  0.06303560  0.56033561  1
  Zn  Zn154  1  0.31223261  0.56107080  0.06450159  1
  Zn  Zn155  1  0.31193017  0.56254354  0.56540169  1
  Zn  Zn156  1  0.81291595  0.06367797  0.06380103  1
  Zn  Zn157  1  0.81230063  0.06246121  0.56272487  1
  Zn  Zn158  1  0.81228760  0.56276666  0.06275619  1
  Zn  Zn159  1  0.81208461  0.56076012  0.56216065  1
  Zn  Zn160  1  0.43723064  0.43803222  0.18628989  1
  Zn  Zn161  1  0.43571199  0.43833420  0.68588420  1
  Zn  Zn162  1  0.43973308  0.93745768  0.18610326  1
  Zn  Zn163  1  0.43903264  0.93808027  0.68697267  1
  Zn  Zn164  1  0.93680111  0.43784589  0.18679677  1
  Zn  Zn165  1  0.93638614  0.43647627  0.68778676  1
  Zn  Zn166  1  0.93918538  0.93772969  0.18863809  1
  Zn  Zn167  1  0.93887364  0.93739402  0.68708406  1
  Zn  Zn168  1  0.06128905  0.06198021  0.31304789  1
  Zn  Zn169  1  0.06347316  0.06235657  0.81276701  1
  Zn  Zn170  1  0.06249453  0.56220577  0.31280342  1
  Zn  Zn171  1  0.06219717  0.56217517  0.81365340  1
  Zn  Zn172  1  0.56145331  0.06258862  0.31167487  1
  Zn  Zn173  1  0.56274641  0.06362352  0.81217258  1
  Zn  Zn174  1  0.56200393  0.56171260  0.31382177  1
  Zn  Zn175  1  0.56189648  0.56136400  0.81376074  1
  Zn  Zn176  1  0.43963371  0.18645610  0.43575854  1
  Zn  Zn177  1  0.43737387  0.19025559  0.93716369  1
  Zn  Zn178  1  0.43600924  0.68741530  0.43625877  1
  Zn  Zn179  1  0.43732997  0.68747182  0.93595333  1
  Zn  Zn180  1  0.93682287  0.18856895  0.43702454  1
  Zn  Zn181  1  0.93900574  0.18646984  0.93912635  1
  Zn  Zn182  1  0.93791408  0.68749266  0.43645794  1
  Zn  Zn183  1  0.93938741  0.68739576  0.93792775  1
  Zn  Zn184  1  0.06111330  0.31224372  0.06040326  1
  Zn  Zn185  1  0.06141763  0.31420541  0.56236645  1
  Zn  Zn186  1  0.06174716  0.81137096  0.06418019  1
  Zn  Zn187  1  0.06426140  0.81157660  0.56259688  1
  Zn  Zn188  1  0.56213897  0.31229093  0.06267050  1
  Zn  Zn189  1  0.56194937  0.31089578  0.56394426  1
  Zn  Zn190  1  0.56097239  0.81314566  0.06316138  1
  Zn  Zn191  1  0.56200584  0.81211863  0.56255138  1
  O  O192  1  0.12379593  0.11087592  0.12600465  1
  O  O193  1  0.11943216  0.11971460  0.61981984  1
  O  O194  1  0.11935295  0.61892596  0.11879711  1
  O  O195  1  0.11617477  0.61817763  0.62384592  1
  O  O196  1  0.62029089  0.12026770  0.11947501  1
  O  O197  1  0.62122609  0.12003658  0.61816415  1
  O  O198  1  0.62072192  0.62050369  0.11965167  1
  O  O199  1  0.61829138  0.62356497  0.61420826  1
  O  O200  1  0.37713374  0.37626042  0.38802457  1
  O  O201  1  0.38139703  0.37504047  0.88297873  1
  O  O202  1  0.37562245  0.88341709  0.38059701  1
  O  O203  1  0.38204703  0.88146494  0.88047418  1
  O  O204  1  0.88135648  0.38157131  0.37456596  1
  O  O205  1  0.87630970  0.38440193  0.87679509  1
  O  O206  1  0.88219608  0.87689078  0.38252345  1
  O  O207  1  0.88063864  0.88052767  0.88069040  1
  O  O208  1  0.26119595  0.00083825  0.36934816  1
  O  O209  1  0.25659874  0.00619721  0.86710839  1
  O  O210  1  0.25043021  0.50890476  0.36928402  1
  O  O211  1  0.24864795  0.50056204  0.86292836  1
  O  O212  1  0.75430966  0.00435374  0.36615601  1
  O  O213  1  0.75703630  0.00513053  0.86987294  1
  O  O214  1  0.75644851  0.50131202  0.36816351  1
  O  O215  1  0.75451151  0.50756101  0.86921914  1
  O  O216  1  0.24317386  0.49307488  0.13197436  1
  O  O217  1  0.24189949  0.49911953  0.63381019  1
  O  O218  1  0.24058116  0.99612739  0.13076594  1
  O  O219  1  0.24559720  0.99457100  0.62941471  1
  O  O220  1  0.74439769  0.49555063  0.13078539  1
  O  O221  1  0.74850197  0.49320610  0.63232039  1
  O  O222  1  0.74503552  0.99436981  0.13043577  1
  O  O223  1  0.74587911  0.99420876  0.63170863  1
  O  O224  1  0.00584346  0.37012589  0.25505347  1
  O  O225  1  0.00505344  0.36732921  0.75092381  1
  O  O226  1  0.00940321  0.87519724  0.25703408  1
  O  O227  1  0.00551771  0.87052006  0.75449846  1
  O  O228  1  0.50508589  0.36889854  0.24928023  1
  O  O229  1  0.50715273  0.37617448  0.75662610  1
  O  O230  1  0.50635763  0.86530332  0.24892533  1
  O  O231  1  0.50735367  0.86967858  0.75466362  1
  O  O232  1  0.49460042  0.13029910  0.24265129  1
  O  O233  1  0.49427251  0.12732361  0.74338799  1
  O  O234  1  0.49603842  0.63163805  0.24581295  1
  O  O235  1  0.50172348  0.63128951  0.74343606  1
  O  O236  1  0.99095776  0.13090483  0.24864411  1
  O  O237  1  0.99440969  0.12896494  0.74378501  1
  O  O238  1  0.99366066  0.62549335  0.24370337  1
  O  O239  1  0.99358924  0.63047273  0.74453164  1
  O  O240  1  0.37278501  0.26087206  0.00644251  1
  O  O241  1  0.37092198  0.25630220  0.50357641  1
  O  O242  1  0.37750961  0.76320566  0.00030761  1
  O  O243  1  0.36983853  0.75513625  0.50649593  1
  O  O244  1  0.86891446  0.25015826  0.00704473  1
  O  O245  1  0.86761341  0.25016097  0.50732838  1
  O  O246  1  0.86956082  0.75544796  0.00572829  1
  O  O247  1  0.87011825  0.75554842  0.50655300  1
  O  O248  1  0.12901264  0.24554553  0.49512120  1
  O  O249  1  0.12594199  0.24702829  0.99098919  1
  O  O250  1  0.13476328  0.74716259  0.49901176  1
  O  O251  1  0.12378583  0.73828305  1.00022752  1
  O  O252  1  0.63022222  0.23955603  0.50157607  1
  O  O253  1  0.63258527  0.24363934  0.99965055  1
  O  O254  1  0.63000464  0.74096522  0.50037933  1
  O  O255  1  0.63121325  0.74609233  0.99454784  1
  O  O256  1  0.49301446  0.24448060  0.13044568  1
  O  O257  1  0.49241367  0.24257332  0.62662687  1
  O  O258  1  0.50033004  0.74336154  0.13602527  1
  O  O259  1  0.49511922  0.74537286  0.63103202  1
  O  O260  1  0.99406604  0.24908117  0.13239223  1
  O  O261  1  0.99426907  0.24375799  0.62994940  1
  O  O262  1  0.99175522  0.74371855  0.12775908  1
  O  O263  1  0.99412426  0.74540799  0.63048551  1
  O  O264  1  0.00535052  0.25615114  0.36940561  1
  O  O265  1  0.00581950  0.24887199  0.86691048  1
  O  O266  1  0.00397792  0.75861221  0.37354470  1
  O  O267  1  0.00092295  0.75715078  0.86791537  1
  O  O268  1  0.50311683  0.25148522  0.36559583  1
  O  O269  1  0.50197997  0.26372429  0.87226546  1
  O  O270  1  0.50152342  0.75003704  0.36189049  1
  O  O271  1  0.50801725  0.75634999  0.86898215  1
  O  O272  1  0.24253791  0.13173036  0.49829327  1
  O  O273  1  0.24796215  0.12681743  0.99049205  1
  O  O274  1  0.25054260  0.62925314  0.49120763  1
  O  O275  1  0.23716853  0.62219512  1.00141482  1
  O  O276  1  0.74067990  0.13035486  0.50175094  1
  O  O277  1  0.74540706  0.13025457  0.99545196  1
  O  O278  1  0.74024294  0.62968743  0.50141990  1
  O  O279  1  0.74485090  0.63195905  0.99449640  1
  O  O280  1  0.25750277  0.37349774  0.00615238  1
  O  O281  1  0.25886299  0.37009959  0.50107583  1
  O  O282  1  0.26373758  0.87640952  -0.00072182  1
  O  O283  1  0.25619405  0.86957730  0.50651753  1
  O  O284  1  0.75104333  0.36928025  0.00648151  1
  O  O285  1  0.74886235  0.36822124  0.50773049  1
  O  O286  1  0.75589069  0.87022137  0.00543705  1
  O  O287  1  0.75571621  0.87043115  0.50650075  1
  O  O288  1  0.12961897  0.49364925  0.24437572  1
  O  O289  1  0.12934772  0.49506265  0.74471352  1
  O  O290  1  0.12889334  0.99206937  0.24393391  1
  O  O291  1  0.13112988  0.99492761  0.74322331  1
  O  O292  1  0.62961672  0.49579847  0.24433481  1
  O  O293  1  0.63059385  0.49033982  0.74898088  1
  O  O294  1  0.63045977  0.99575525  0.24359793  1
  O  O295  1  0.63216761  0.99472715  0.74500129  1
  O  O296  1  0.37080039  0.00284962  0.25620713  1
  O  O297  1  0.37010183  0.00602083  0.75395439  1
  O  O298  1  0.36783424  0.50575146  0.25142732  1
  O  O299  1  0.36225823  0.49983287  0.74954148  1
  O  O300  1  0.87012974  0.00939983  0.24883847  1
  O  O301  1  0.87072695  0.00478289  0.75517663  1
  O  O302  1  0.86914174  0.50553097  0.25426416  1
  O  O303  1  0.86913947  0.50698912  0.75497407  1
  O  O304  1  0.11910301  0.36958775  0.36898477  1
  O  O305  1  0.12130542  0.36659571  0.86738137  1
  O  O306  1  0.12011902  0.87569740  0.36628819  1
  O  O307  1  0.11864505  0.87610218  0.86789715  1
  O  O308  1  0.62130658  0.37308115  0.36559879  1
  O  O309  1  0.61727150  0.37505932  0.86734496  1
  O  O310  1  0.62267984  0.87325909  0.36667068  1
  O  O311  1  0.62240005  0.87062133  0.86956285  1
  O  O312  1  0.37970408  0.12875692  0.12963746  1
  O  O313  1  0.38029017  0.12897690  0.62895204  1
  O  O314  1  0.38260415  0.62535186  0.13101577  1
  O  O315  1  0.38172195  0.63236966  0.62757588  1
  O  O316  1  0.87614035  0.13126112  0.13574700  1
  O  O317  1  0.88045463  0.12939826  0.63128813  1
  O  O318  1  0.87943510  0.63031226  0.13043965  1
  O  O319  1  0.87941940  0.63063913  0.63065407  1
  O  O320  1  0.25556657  0.25603703  0.12486219  1
  O  O321  1  0.25674506  0.25216627  0.61711656  1
  O  O322  1  0.25520350  0.75520081  0.11866480  1
  O  O323  1  0.25593114  0.75513105  0.62127283  1
  O  O324  1  0.75568733  0.25629070  0.11940540  1
  O  O325  1  0.75516570  0.25471425  0.62064715  1
  O  O326  1  0.75507768  0.75612903  0.11923397  1
  O  O327  1  0.75611748  0.75600420  0.62021448  1
  O  O328  1  0.24238643  0.24814927  0.38132043  1
  O  O329  1  0.24194194  0.24366424  0.87380865  1
  O  O330  1  0.24999673  0.74035344  0.38092924  1
  O  O331  1  0.24547112  0.74572872  0.88084366  1
  O  O332  1  0.74610998  0.24670588  0.38393615  1
  O  O333  1  0.74989948  0.24273645  0.88164163  1
  O  O334  1  0.74754794  0.74644239  0.38434388  1
  O  O335  1  0.74553826  0.74571277  0.88005969  1
  O  O336  1  0.00319544  0.11485242  0.00327363  1
  O  O337  1  0.00516920  0.12036390  0.50571481  1
  O  O338  1  0.00696863  0.61955745  0.00669074  1
  O  O339  1  0.00058980  0.61836343  0.50669017  1
  O  O340  1  0.50642273  0.12559083  0.00579691  1
  O  O341  1  0.51026734  0.12266858  0.50597431  1
  O  O342  1  0.50763848  0.62484812  0.00627655  1
  O  O343  1  0.50523045  0.61883549  0.50493738  1
  O  O344  1  0.49281340  0.38294555  0.50092653  1
  O  O345  1  0.49129816  0.37556766  0.99286385  1
  O  O346  1  0.49273885  0.87706602  0.49794514  1
  O  O347  1  0.49368807  0.87772233  0.99277202  1
  O  O348  1  0.99667314  0.38105608  0.49283651  1
  O  O349  1  0.99680626  0.38476676  0.99806888  1
  O  O350  1  0.99602123  0.88044718  0.49680626  1
  O  O351  1  0.99428366  0.87977584  0.99494397  1
  O  O352  1  0.49614917  0.49919689  0.38872322  1
  O  O353  1  0.49799327  0.48712391  0.87788158  1
  O  O354  1  0.48734865  0.99726402  0.37465694  1
  O  O355  1  0.49453843  0.99404007  0.87473610  1
  O  O356  1  0.99488379  0.49452724  0.37965631  1
  O  O357  1  0.99209059  0.50005616  0.88131252  1
  O  O358  1  0.99822679  0.99315257  0.38284431  1
  O  O359  1  0.99477297  0.99390975  0.87965846  1
  O  O360  1  0.00955082  -0.00056433  0.11963049  1
  O  O361  1  0.00637551  0.00551765  0.62002717  1
  O  O362  1  0.00489604  0.50575052  0.12015595  1
  O  O363  1  0.00258129  0.50539822  0.62029174  1
  O  O364  1  0.50798925  0.00793287  0.12372064  1
  O  O365  1  0.50815150  0.00631155  0.62365364  1
  O  O366  1  0.50754988  0.50704713  0.12382738  1
  O  O367  1  0.50098741  0.50577674  0.61416340  1
  O  O368  1  0.24437061  0.37971263  0.24556557  1
  O  O369  1  0.24186034  0.38429265  0.74691336  1
  O  O370  1  0.24034066  0.88061957  0.25011718  1
  O  O371  1  0.24607790  0.88106619  0.74449203  1
  O  O372  1  0.74370741  0.38064081  0.24332869  1
  O  O373  1  0.74152744  0.37999790  0.74671562  1
  O  O374  1  0.74571903  0.88015149  0.24405648  1
  O  O375  1  0.74599336  0.88019255  0.74503851  1
  O  O376  1  0.25755208  0.11675780  0.25214848  1
  O  O377  1  0.25644392  0.11927046  0.75360601  1
  O  O378  1  0.25443670  0.62046805  0.25637475  1
  O  O379  1  0.24932455  0.61346850  0.75165441  1
  O  O380  1  0.75906127  0.12042526  0.24913474  1
  O  O381  1  0.75556893  0.11946165  0.75493775  1
  O  O382  1  0.75586158  0.61806698  0.25102386  1
  O  O383  1  0.75432948  0.62125616  0.75459970  1
  O  O384  1  0.37447060  0.11485647  0.36874801  1
  O  O385  1  0.37099018  0.12152318  0.86854517  1
  O  O386  1  0.36401126  0.62303883  0.36892280  1
  O  O387  1  0.37321688  0.61849280  0.87274029  1
  O  O388  1  0.87425243  0.12443988  0.36201414  1
  O  O389  1  0.87020914  0.11838477  0.86953743  1
  O  O390  1  0.87420127  0.61768402  0.36813662  1
  O  O391  1  0.86877233  0.62159800  0.86898468  1
  O  O392  1  0.12973304  0.37970273  0.13063575  1
  O  O393  1  0.12455699  0.38206722  0.63165124  1
  O  O394  1  0.12400655  0.88420082  0.13432452  1
  O  O395  1  0.13137316  0.88117601  0.63053091  1
  O  O396  1  0.63020620  0.38130558  0.12985132  1
  O  O397  1  0.62933370  0.37588648  0.63543063  1
  O  O398  1  0.63133992  0.88060177  0.12997531  1
  O  O399  1  0.63144919  0.87976620  0.63061573  1
  O  O400  1  0.11975806  0.25466349  0.25508191  1
  O  O401  1  0.11911256  0.25448950  0.75368063  1
  O  O402  1  0.12389346  0.76272019  0.25041341  1
  O  O403  1  0.11800554  0.75735919  0.74976014  1
  O  O404  1  0.61843735  0.25632520  0.24834123  1
  O  O405  1  0.62367274  0.26290463  0.75249082  1
  O  O406  1  0.61686861  0.75503846  0.25064643  1
  O  O407  1  0.62135178  0.75611414  0.75497229  1
  O  O408  1  0.37952377  0.24398645  0.24460292  1
  O  O409  1  0.37508126  0.24443664  0.74203561  1
  O  O410  1  0.38482845  0.74454781  0.24812688  1
  O  O411  1  0.38281132  0.75004919  0.74427083  1
  O  O412  1  0.87913263  0.24316686  0.24494512  1
  O  O413  1  0.87924802  0.24330942  0.74482194  1
  O  O414  1  0.87530035  0.74377835  0.24360620  1
  O  O415  1  0.88008444  0.74526933  0.74418731  1
  O  O416  1  0.38233347  0.49168818  0.50126081  1
  O  O417  1  0.37587762  0.48536918  1.00069240  1
  O  O418  1  0.37579170  0.99456124  0.49081608  1
  O  O419  1  0.37831669  0.99222477  0.99206526  1
  O  O420  1  0.88052217  0.49765339  0.49327454  1
  O  O421  1  0.88057962  0.50142939  0.99357764  1
  O  O422  1  0.88206378  0.99376082  0.50065125  1
  O  O423  1  0.87989256  0.99400879  0.99555243  1
  O  O424  1  0.12034718  -0.00210774  0.00971682  1
  O  O425  1  0.12068502  0.00511109  0.50556532  1
  O  O426  1  0.11874546  0.50673356  0.00615046  1
  O  O427  1  0.11708755  0.50133260  0.50663007  1
  O  O428  1  0.62495155  0.00745240  0.00683604  1
  O  O429  1  0.62642676  0.00856295  0.50665239  1
  O  O430  1  0.62470178  0.50795387  0.00671110  1
  O  O431  1  0.61622871  0.50719190  0.50179733  1
  O  O432  1  0.36951349  0.36947809  0.11804820  1
  O  O433  1  0.37414388  0.36886225  0.61322123  1
  O  O434  1  0.37613070  0.87602140  0.11264789  1
  O  O435  1  0.36991288  0.86996294  0.62055000  1
  O  O436  1  0.86741448  0.36897902  0.12447507  1
  O  O437  1  0.86695521  0.36728079  0.62524355  1
  O  O438  1  0.86989071  0.87042953  0.12030039  1
  O  O439  1  0.87044552  0.86984399  0.62017552  1
  O  O440  1  0.12556263  0.13129756  0.38136980  1
  O  O441  1  0.13233921  0.13077860  0.87376726  1
  O  O442  1  0.13749328  0.62663961  0.37505081  1
  O  O443  1  0.12391872  0.62586243  0.88832212  1
  O  O444  1  0.62551720  0.12484406  0.38743188  1
  O  O445  1  0.63238488  0.12647638  0.88055711  1
  O  O446  1  0.62557927  0.62612061  0.38889631  1
  O  O447  1  0.63058804  0.63137041  0.87987065  1
