# generated using pymatgen
data_V3Zn3O8
_symmetry_space_group_name_H-M   'P 1'
_cell_length_a   17.08317221
_cell_length_b   17.08446338
_cell_length_c   17.08531052
_cell_angle_alpha   90.00569487
_cell_angle_beta   89.99840022
_cell_angle_gamma   90.00006332
_symmetry_Int_Tables_number   1
_chemical_formula_structural   V3Zn3O8
_chemical_formula_sum   'V96 Zn96 O256'
_cell_volume   4986.46454180
_cell_formula_units_Z   32
loop_
 _symmetry_equiv_pos_site_id
 _symmetry_equiv_pos_as_xyz
  1  'x, y, z'
loop_
 _atom_site_type_symbol
 _atom_site_label
 _atom_site_symmetry_multiplicity
 _atom_site_fract_x
 _atom_site_fract_y
 _atom_site_fract_z
 _atom_site_occupancy
  V  V0  1  -0.00071515  0.12460043  0.12516836  1
  V  V1  1  0.24965840  0.75027541  0.00118605  1
  V  V2  1  -0.00087972  0.37413798  0.37463601  1
  V  V3  1  0.50005266  0.12574621  0.62435290  1
  V  V4  1  0.87588657  0.12408945  0.74975628  1
  V  V5  1  0.37441837  0.87661933  0.00034768  1
  V  V6  1  0.50024961  0.62523909  0.62797470  1
  V  V7  1  0.87608847  -0.00050779  0.87416698  1
  V  V8  1  0.12431182  -0.00063452  0.12582104  1
  V  V9  1  0.37522258  0.74880716  0.62568935  1
  V  V10  1  0.50018042  0.25267992  0.24942023  1
  V  V11  1  0.12486028  0.62436243  0.00126116  1
  V  V12  1  0.62465288  0.12567396  0.49938884  1
  V  V13  1  0.87399893  0.37408951  0.00126703  1
  V  V14  1  0.87451189  0.12543011  0.24870457  1
  V  V15  1  0.24931130  0.24942712  -0.00044125  1
  V  V16  1  0.62423813  0.75245314  0.87447361  1
  V  V17  1  0.87456863  -0.00125478  0.37525279  1
  V  V18  1  0.00174861  0.12341074  0.62344975  1
  V  V19  1  0.12454919  0.87437057  0.25017815  1
  V  V20  1  0.00031604  0.87425181  0.87536647  1
  V  V21  1  0.74893111  0.50061126  0.25083863  1
  V  V22  1  0.37514064  0.24994546  0.62428957  1
  V  V23  1  0.37521209  0.87421967  0.49894994  1
  V  V24  1  0.75114465  0.37478578  0.62606547  1
  V  V25  1  0.24964322  0.87345637  0.62473211  1
  V  V26  1  0.12602905  0.87335536  0.75073822  1
  V  V27  1  0.37468839  0.12423171  0.74943950  1
  V  V28  1  0.62412900  0.50269230  0.12492030  1
  V  V29  1  0.37588191  0.37520123  -0.00137925  1
  V  V30  1  0.12677427  0.24811829  0.37536428  1
  V  V31  1  0.12493444  0.37371824  0.24940132  1
  V  V32  1  0.50024235  0.12637516  0.12343542  1
  V  V33  1  0.49835262  -0.00123798  0.49592884  1
  V  V34  1  0.62310864  0.75116019  0.37526815  1
  V  V35  1  -0.00069804  0.24898962  0.24934758  1
  V  V36  1  0.62531084  0.87545603  0.74840581  1
  V  V37  1  0.24829512  0.87539839  0.12643378  1
  V  V38  1  0.24907400  0.49867895  0.75011122  1
  V  V39  1  0.37451470  0.62495995  0.24930773  1
  V  V40  1  0.24979907  0.12406817  0.87421580  1
  V  V41  1  0.25006437  0.24907468  0.49886269  1
  V  V42  1  0.49898435  0.00142667  -0.00197179  1
  V  V43  1  0.87496441  0.87543855  -0.00110767  1
  V  V44  1  0.74797306  0.00052995  0.24847975  1
  V  V45  1  0.50017564  0.50030434  0.50062424  1
  V  V46  1  0.62423418  0.62653373  0.00101068  1
  V  V47  1  0.74995439  0.12685107  0.87564719  1
  V  V48  1  -0.00227012  0.87421895  0.37615090  1
  V  V49  1  0.62534260  0.50092457  0.62659473  1
  V  V50  1  0.87470531  0.62549395  0.24997165  1
  V  V51  1  0.74953088  0.75141564  0.00007227  1
  V  V52  1  0.12409679  0.74845008  0.37542174  1
  V  V53  1  0.74860889  0.87656495  0.12481779  1
  V  V54  1  0.74995511  0.37596382  0.12454306  1
  V  V55  1  0.25126800  -0.00044257  0.74970987  1
  V  V56  1  0.62644018  -0.00049760  0.62435070  1
  V  V57  1  0.37461123  0.75001064  0.12585555  1
  V  V58  1  0.37473206  0.25060396  0.12478908  1
  V  V59  1  0.62422567  0.37644377  0.24962421  1
  V  V60  1  0.87581799  0.37442855  0.49934053  1
  V  V61  1  0.12427388  0.24981968  0.87448539  1
  V  V62  1  0.74969615  0.12459205  0.37365743  1
  V  V63  1  0.49971868  0.62671612  0.12517035  1
  V  V64  1  0.87605287  0.50003453  0.87576456  1
  V  V65  1  0.12386252  0.12416623  0.00087057  1
  V  V66  1  0.75052687  0.62580848  0.87577922  1
  V  V67  1  0.00027359  0.37450557  0.87480232  1
  V  V68  1  0.87527346  0.49926298  0.37576621  1
  V  V69  1  0.25068916  0.62485086  0.87586804  1
  V  V70  1  0.74985996  0.24980669  0.49998319  1
  V  V71  1  0.87309839  0.75095815  0.62411395  1
  V  V72  1  0.00129724  0.24982773  0.74988814  1
  V  V73  1  0.12466788  -0.00062085  0.62318440  1
  V  V74  1  0.25055468  0.49951766  0.25052476  1
  V  V75  1  0.74925418  0.62666309  0.37895001  1
  V  V76  1  0.75037274  0.49967834  0.75093210  1
  V  V77  1  0.37242580  0.12425101  0.25216783  1
  V  V78  1  0.87615909  0.62476387  0.75086755  1
  V  V79  1  0.37625849  0.37556815  0.50003860  1
  V  V80  1  0.24959827  0.62349431  0.37482085  1
  V  V81  1  0.49983176  0.37487210  0.87527564  1
  V  V82  1  0.12445642  0.49985581  0.12441091  1
  V  V83  1  0.12499471  0.75012508  0.87560077  1
  V  V84  1  0.87381968  0.74980434  0.12546645  1
  V  V85  1  0.62490633  0.00168867  0.12385848  1
  V  V86  1  0.24926924  0.74747157  0.49971178  1
  V  V87  1  0.00208468  0.62247052  0.62355451  1
  V  V88  1  0.50094195  0.25048141  0.74979454  1
  V  V89  1  -0.00091794  0.62463255  0.12532699  1
  V  V90  1  0.24970946  0.37491224  0.62599902  1
  V  V91  1  0.24959356  0.37447007  0.12449106  1
  V  V92  1  0.37477162  0.62596322  0.75135659  1
  V  V93  1  0.62501938  0.37431501  0.75188122  1
  V  V94  1  0.62462044  0.25229702  0.37405553  1
  V  V95  1  0.87624244  0.24896064  0.62464487  1
  Zn  Zn96  1  0.49878050  0.50087433  -0.00147029  1
  Zn  Zn97  1  0.00063335  0.00099649  0.49957023  1
  Zn  Zn98  1  0.62094509  0.87638245  0.25040814  1
  Zn  Zn99  1  0.49829998  0.87577649  0.87341050  1
  Zn  Zn100  1  0.74678925  0.25001017  0.00157394  1
  Zn  Zn101  1  0.24972532  -0.00038770  0.25283425  1
  Zn  Zn102  1  -0.00144744  0.74889893  0.25062044  1
  Zn  Zn103  1  0.00093287  0.74878979  0.74995059  1
  Zn  Zn104  1  0.75240403  0.87775936  0.62328722  1
  Zn  Zn105  1  -0.00017174  -0.00014027  0.00044854  1
  Zn  Zn106  1  0.37648746  0.50106562  0.87703548  1
  Zn  Zn107  1  0.75046348  0.00073555  0.74803047  1
  Zn  Zn108  1  0.00315716  0.49787521  0.49955391  1
  Zn  Zn109  1  0.62617459  0.24995408  0.87643628  1
  Zn  Zn110  1  0.49894408  0.75111423  0.75195828  1
  Zn  Zn111  1  0.12539424  0.62046788  0.49932352  1
  Zn  Zn112  1  0.24900608  0.12110730  0.37679017  1
  Zn  Zn113  1  0.37225930  -0.00325915  0.37268072  1
  Zn  Zn114  1  0.62531706  0.12810013  -0.00222456  1
  Zn  Zn115  1  0.87277657  0.24954668  0.12483051  1
  Zn  Zn116  1  0.62592517  0.62732073  0.50440572  1
  Zn  Zn117  1  0.74838760  0.75456865  0.50193483  1
  Zn  Zn118  1  0.37536118  -0.00098027  0.87339228  1
  Zn  Zn119  1  0.49821903  0.87278797  0.37227986  1
  Zn  Zn120  1  0.12444155  0.49738122  0.62212778  1
  Zn  Zn121  1  0.37573441  0.49953284  0.37427028  1
  Zn  Zn122  1  0.49950891  0.37793945  0.37405000  1
  Zn  Zn123  1  0.00147074  0.49952946  -0.00067363  1
  Zn  Zn124  1  0.49921792  0.75282615  0.25044578  1
  Zn  Zn125  1  0.87356654  0.87682163  0.50268287  1
  Zn  Zn126  1  0.12460924  0.37471351  0.74918245  1
  Zn  Zn127  1  0.12647223  0.12256860  0.49794235  1
  Zn  Zn128  1  0.18691766  0.18694367  0.18764721  1
  Zn  Zn129  1  0.18691050  0.18676351  0.68634451  1
  Zn  Zn130  1  0.18636570  0.68796071  0.18928294  1
  Zn  Zn131  1  0.18702529  0.68632425  0.68780686  1
  Zn  Zn132  1  0.68673976  0.18899293  0.18519018  1
  Zn  Zn133  1  0.68791007  0.18711123  0.68872790  1
  Zn  Zn134  1  0.68655759  0.68960800  0.19008940  1
  Zn  Zn135  1  0.68799582  0.68814215  0.68972016  1
  Zn  Zn136  1  0.31373666  0.31325157  0.31492684  1
  Zn  Zn137  1  0.31396438  0.31205701  0.81289026  1
  Zn  Zn138  1  0.31157126  0.81123443  0.31313659  1
  Zn  Zn139  1  0.31320674  0.81283104  0.81415015  1
  Zn  Zn140  1  0.81184473  0.31207906  0.31134390  1
  Zn  Zn141  1  0.81432607  0.31101854  0.81311607  1
  Zn  Zn142  1  0.81015810  0.81305513  0.31050860  1
  Zn  Zn143  1  0.81188939  0.81279877  0.80953583  1
  Zn  Zn144  1  0.18706199  0.43727079  0.43831101  1
  Zn  Zn145  1  0.18770839  0.43737929  0.93647198  1
  Zn  Zn146  1  0.18805187  0.93763701  0.43624115  1
  Zn  Zn147  1  0.18712123  0.93852844  0.93826420  1
  Zn  Zn148  1  0.68678656  0.43802295  0.43882652  1
  Zn  Zn149  1  0.68627500  0.43893468  0.93810880  1
  Zn  Zn150  1  0.68900832  0.93461814  0.43882500  1
  Zn  Zn151  1  0.68715948  0.94043838  0.93550213  1
  Zn  Zn152  1  0.31158085  0.06180749  0.06463128  1
  Zn  Zn153  1  0.31187765  0.06223667  0.56167880  1
  Zn  Zn154  1  0.31317936  0.56135982  0.06266279  1
  Zn  Zn155  1  0.31309469  0.56226734  0.56356439  1
  Zn  Zn156  1  0.81366091  0.06184656  0.06026309  1
  Zn  Zn157  1  0.81346779  0.06126077  0.56088916  1
  Zn  Zn158  1  0.81181766  0.56197860  0.06212337  1
  Zn  Zn159  1  0.81542688  0.56203171  0.56231194  1
  Zn  Zn160  1  0.43800852  0.43964414  0.18507006  1
  Zn  Zn161  1  0.43588180  0.43791106  0.68872407  1
  Zn  Zn162  1  0.43894420  0.93741539  0.18716126  1
  Zn  Zn163  1  0.43896257  0.93722852  0.68501630  1
  Zn  Zn164  1  0.93759399  0.43887092  0.18781269  1
  Zn  Zn165  1  0.93780969  0.43735717  0.68841376  1
  Zn  Zn166  1  0.93736594  0.93776455  0.18866478  1
  Zn  Zn167  1  0.94005224  0.93719348  0.68982790  1
  Zn  Zn168  1  0.06280397  0.06141966  0.31219052  1
  Zn  Zn169  1  0.06280263  0.06063033  0.81156333  1
  Zn  Zn170  1  0.06223141  0.56151617  0.31174031  1
  Zn  Zn171  1  0.06296558  0.56231587  0.81201639  1
  Zn  Zn172  1  0.56166693  0.06496160  0.31059957  1
  Zn  Zn173  1  0.56370222  0.06214186  0.81188159  1
  Zn  Zn174  1  0.56165591  0.56574502  0.31275869  1
  Zn  Zn175  1  0.56186582  0.56226378  0.81441003  1
  Zn  Zn176  1  0.43792087  0.18921600  0.43551247  1
  Zn  Zn177  1  0.43646497  0.18845064  0.93502855  1
  Zn  Zn178  1  0.43678564  0.68503980  0.43788495  1
  Zn  Zn179  1  0.43851480  0.68968080  0.93768873  1
  Zn  Zn180  1  0.93922718  0.18566375  0.43739107  1
  Zn  Zn181  1  0.93689604  0.18801104  0.93815796  1
  Zn  Zn182  1  0.93749182  0.68792611  0.44078676  1
  Zn  Zn183  1  0.93897481  0.68848231  0.93928962  1
  Zn  Zn184  1  0.06058455  0.31114199  0.06212329  1
  Zn  Zn185  1  0.06477554  0.31188591  0.56208261  1
  Zn  Zn186  1  0.06043569  0.81151078  0.06279703  1
  Zn  Zn187  1  0.06166408  0.80992464  0.56123359  1
  Zn  Zn188  1  0.56399182  0.31231627  0.06005452  1
  Zn  Zn189  1  0.56338436  0.31420016  0.56367722  1
  Zn  Zn190  1  0.56137097  0.81436623  0.06295301  1
  Zn  Zn191  1  0.56273949  0.81159302  0.56183740  1
  O  O192  1  0.11942092  0.11989876  0.12043092  1
  O  O193  1  0.11890339  0.11710924  0.62495943  1
  O  O194  1  0.11991101  0.61981647  0.12078370  1
  O  O195  1  0.11317639  0.62427514  0.62475528  1
  O  O196  1  0.61763604  0.11948147  0.12261223  1
  O  O197  1  0.61916334  0.12101643  0.61869292  1
  O  O198  1  0.62067244  0.62237015  0.12045821  1
  O  O199  1  0.61971834  0.61808503  0.62653082  1
  O  O200  1  0.37930375  0.37884607  0.38379062  1
  O  O201  1  0.38191958  0.37469600  0.88150547  1
  O  O202  1  0.37727146  0.87504056  0.38425723  1
  O  O203  1  0.37699820  0.87849299  0.88396281  1
  O  O204  1  0.87898537  0.37916767  0.37947157  1
  O  O205  1  0.87963717  0.38027495  0.88249050  1
  O  O206  1  0.88342664  0.87962498  0.37265400  1
  O  O207  1  0.87956839  0.87879297  0.87881586  1
  O  O208  1  0.25452769  0.00331889  0.37052985  1
  O  O209  1  0.25067410  0.00675880  0.86794863  1
  O  O210  1  0.25118172  0.50507482  0.36734363  1
  O  O211  1  0.25170079  0.50598774  0.86653686  1
  O  O212  1  0.75357176  0.00620375  0.36861611  1
  O  O213  1  0.75740883  0.00993282  0.87225688  1
  O  O214  1  0.75412172  0.50763587  0.37040724  1
  O  O215  1  0.75578047  0.50636218  0.86990367  1
  O  O216  1  0.24374489  0.49364427  0.13053781  1
  O  O217  1  0.25086592  0.49417402  0.63534531  1
  O  O218  1  0.24223251  0.99284298  0.12729662  1
  O  O219  1  0.24529536  0.99300998  0.63031505  1
  O  O220  1  0.74393613  0.49681614  0.13211638  1
  O  O221  1  0.74632333  0.49464551  0.63107293  1
  O  O222  1  0.74459364  0.99625407  0.12862128  1
  O  O223  1  0.74111895  1.00104330  0.62730212  1
  O  O224  1  0.00511135  0.36921165  0.25450524  1
  O  O225  1  0.00033216  0.36751762  0.75687380  1
  O  O226  1  0.00472305  0.87227350  0.26020777  1
  O  O227  1  0.00903038  0.87179754  0.75784714  1
  O  O228  1  0.50647973  0.37063868  0.24974893  1
  O  O229  1  0.50487985  0.37003810  0.75436672  1
  O  O230  1  0.50271850  0.87187158  0.25420676  1
  O  O231  1  0.51154547  0.87425509  0.75075877  1
  O  O232  1  0.49231636  0.13247085  0.24315963  1
  O  O233  1  0.49507378  0.12975253  0.74353668  1
  O  O234  1  0.49224011  0.62680495  0.24250911  1
  O  O235  1  0.49287090  0.62528426  0.74491614  1
  O  O236  1  0.99405897  0.12990136  0.24476818  1
  O  O237  1  0.99506270  0.13044995  0.74439479  1
  O  O238  1  0.99182415  0.62563806  0.24362118  1
  O  O239  1  0.99392952  0.62552151  0.74190896  1
  O  O240  1  0.36841800  0.25458002  0.00549182  1
  O  O241  1  0.37172052  0.25558175  0.50574545  1
  O  O242  1  0.36837765  0.75610547  0.00615813  1
  O  O243  1  0.36925437  0.75386564  0.50630575  1
  O  O244  1  0.87313652  0.26419014  0.00138815  1
  O  O245  1  0.86862460  0.25430910  0.50462869  1
  O  O246  1  0.86793470  0.75527400  0.00542479  1
  O  O247  1  0.87316698  0.75096284  0.51299066  1
  O  O248  1  0.13286430  0.24928079  0.49244595  1
  O  O249  1  0.13028853  0.24404296  0.99475400  1
  O  O250  1  0.13224444  0.74692860  0.49291952  1
  O  O251  1  0.13089763  0.74408550  0.99583592  1
  O  O252  1  0.63032334  0.24568568  0.49547609  1
  O  O253  1  0.62885796  0.24592792  0.99455272  1
  O  O254  1  0.62752923  0.74578710  0.49080040  1
  O  O255  1  0.63119371  0.74652828  0.99526816  1
  O  O256  1  0.49408672  0.24623149  0.12996363  1
  O  O257  1  0.49493099  0.24502574  0.62942646  1
  O  O258  1  0.49249205  0.74410659  0.12519844  1
  O  O259  1  0.49311251  0.74240215  0.62603382  1
  O  O260  1  0.99801190  0.24318595  0.13229518  1
  O  O261  1  0.99491990  0.24452717  0.63016154  1
  O  O262  1  0.99143408  0.74271602  0.12658479  1
  O  O263  1  0.99183019  0.74022328  0.62713283  1
  O  O264  1  0.00555406  0.25492738  0.36844774  1
  O  O265  1  0.00470162  0.25445899  0.86939647  1
  O  O266  1  0.00397375  0.75780874  0.37378723  1
  O  O267  1  0.00755016  0.75553692  0.87411074  1
  O  O268  1  0.50797441  0.25325814  0.36814426  1
  O  O269  1  0.50108298  0.25638678  0.86625363  1
  O  O270  1  0.51135903  0.74701494  0.37477272  1
  O  O271  1  0.50908441  0.75437522  0.87339718  1
  O  O272  1  0.24938013  0.13450346  0.49838528  1
  O  O273  1  0.24445038  0.13057231  0.99543565  1
  O  O274  1  0.25024810  0.63033753  0.49363919  1
  O  O275  1  0.24453136  0.63061514  0.99612107  1
  O  O276  1  0.74414208  0.13097619  0.49354143  1
  O  O277  1  0.75127942  0.12667357  0.98780620  1
  O  O278  1  0.75025392  0.62453168  0.48775382  1
  O  O279  1  0.74477173  0.63177118  0.99514653  1
  O  O280  1  0.25447272  0.36823431  0.00497580  1
  O  O281  1  0.25713856  0.36965316  0.50622064  1
  O  O282  1  0.25406182  0.86969457  0.00635599  1
  O  O283  1  0.25521278  0.86752277  0.50613981  1
  O  O284  1  0.75925689  0.37679346  0.00527261  1
  O  O285  1  0.75512204  0.36922000  0.50618957  1
  O  O286  1  0.75508049  0.87054435  0.00430942  1
  O  O287  1  0.75573771  0.87178186  0.50550808  1
  O  O288  1  0.13060214  0.49286128  0.24379534  1
  O  O289  1  0.13895775  0.49855215  0.74889427  1
  O  O290  1  0.12588157  0.99223691  0.24295963  1
  O  O291  1  0.13211021  0.99304097  0.74395973  1
  O  O292  1  0.62985227  0.49657078  0.24507664  1
  O  O293  1  0.63150001  0.49451093  0.74567987  1
  O  O294  1  0.63073035  1.00157212  0.24239622  1
  O  O295  1  0.62450314  0.99194427  0.74231202  1
  O  O296  1  0.37564238  0.01291567  0.24924214  1
  O  O297  1  0.36927556  0.00614349  0.74891353  1
  O  O298  1  0.36763505  0.50632832  0.24917283  1
  O  O299  1  0.36402724  0.50637314  0.75189537  1
  O  O300  1  0.86772888  0.00633452  0.25502827  1
  O  O301  1  0.87447062  0.00685449  0.75639167  1
  O  O302  1  0.86806852  0.50529583  0.25622238  1
  O  O303  1  0.86876931  0.50442714  0.75646386  1
  O  O304  1  0.11935501  0.36854348  0.36782168  1
  O  O305  1  0.11848493  0.36732277  0.87457483  1
  O  O306  1  0.11653090  0.86906520  0.36998992  1
  O  O307  1  0.12131767  0.86934071  0.87087776  1
  O  O308  1  0.62459955  0.36997936  0.36774449  1
  O  O309  1  0.61914550  0.37482553  0.86800983  1
  O  O310  1  0.62416121  0.86291497  0.37423675  1
  O  O311  1  0.62454038  0.87111452  0.86562959  1
  O  O312  1  0.37963830  0.13192243  0.13222824  1
  O  O313  1  0.38093910  0.13061593  0.62994455  1
  O  O314  1  0.37887570  0.63096810  0.12918039  1
  O  O315  1  0.37956934  0.63040123  0.63218045  1
  O  O316  1  0.88071161  0.12584849  0.13112307  1
  O  O317  1  0.88076835  0.13035390  0.62966055  1
  O  O318  1  0.87825258  0.62953612  0.12970540  1
  O  O319  1  0.88222654  0.63027030  0.63084916  1
  O  O320  1  0.25423847  0.25562149  0.11882991  1
  O  O321  1  0.25649354  0.25501048  0.62022794  1
  O  O322  1  0.25402146  0.75526038  0.11927397  1
  O  O323  1  0.25508186  0.75399508  0.61975029  1
  O  O324  1  0.75294016  0.26024508  0.12342840  1
  O  O325  1  0.75599713  0.25484595  0.61967181  1
  O  O326  1  0.75413633  0.75577072  0.11928485  1
  O  O327  1  0.76227915  0.74790043  0.62504000  1
  O  O328  1  0.24356614  0.24985304  0.38141418  1
  O  O329  1  0.24460406  0.24400104  0.88018200  1
  O  O330  1  0.24380886  0.74317600  0.38059525  1
  O  O331  1  0.24434386  0.74456795  0.88206574  1
  O  O332  1  0.74425421  0.24468749  0.38001133  1
  O  O333  1  0.75091334  0.23860171  0.87553975  1
  O  O334  1  0.74356665  0.74045483  0.37480747  1
  O  O335  1  0.74513044  0.74488968  0.88074198  1
  O  O336  1  0.00636594  0.12489566  0.00670922  1
  O  O337  1  0.00363534  0.12307549  0.50853783  1
  O  O338  1  0.00686874  0.62252163  0.00686136  1
  O  O339  1  0.00042129  0.62118458  0.51124057  1
  O  O340  1  0.49762570  0.11682197  0.00514373  1
  O  O341  1  0.50458894  0.11890239  0.50458841  1
  O  O342  1  0.50709611  0.62505084  0.00671921  1
  O  O343  1  0.50027381  0.61416335  0.50884369  1
  O  O344  1  0.49573458  0.38544032  0.50238949  1
  O  O345  1  0.49323728  0.37541213  0.99338674  1
  O  O346  1  0.49427764  0.88522527  0.49996437  1
  O  O347  1  0.49344163  0.88686662  1.00095764  1
  O  O348  1  0.99235484  0.37314604  0.49276596  1
  O  O349  1  0.99094881  0.37646740  0.99439949  1
  O  O350  1  0.99829805  0.87579557  0.48639543  1
  O  O351  1  0.99244395  0.87506060  0.99314119  1
  O  O352  1  0.49999929  0.50078919  0.38818497  1
  O  O353  1  0.49708271  0.49098871  0.87728450  1
  O  O354  1  0.49950910  1.00126873  0.38795413  1
  O  O355  1  0.49782380  1.00036454  0.88663133  1
  O  O356  1  0.99228815  0.49170660  0.37378987  1
  O  O357  1  0.99370748  0.49342590  0.87578228  1
  O  O358  1  0.99376694  0.98973768  0.37375419  1
  O  O359  1  0.99434356  0.99252568  0.87670550  1
  O  O360  1  0.00614924  0.00653050  0.12401941  1
  O  O361  1  0.00739233  0.00539274  0.62499136  1
  O  O362  1  0.00721046  0.50632272  0.12397132  1
  O  O363  1  -0.00016243  0.50988697  0.62474858  1
  O  O364  1  0.50457090  0.00658695  0.11581472  1
  O  O365  1  0.50530642  0.00637787  0.61421336  1
  O  O366  1  0.50735787  0.50847358  0.12247898  1
  O  O367  1  0.50512851  0.50463644  0.61987145  1
  O  O368  1  0.24488677  0.37876277  0.24360553  1
  O  O369  1  0.25107642  0.38332311  0.74547358  1
  O  O370  1  0.24270382  0.87453586  0.24291100  1
  O  O371  1  0.24567323  0.87968846  0.74426473  1
  O  O372  1  0.74437123  0.38182092  0.24513878  1
  O  O373  1  0.74662993  0.38014715  0.74542165  1
  O  O374  1  0.74733518  0.88340509  0.24203307  1
  O  O375  1  0.73757944  0.87802847  0.74717221  1
  O  O376  1  0.26223764  0.12561409  0.24948697  1
  O  O377  1  0.25527319  0.11945950  0.75415435  1
  O  O378  1  0.25452448  0.61863162  0.25427921  1
  O  O379  1  0.25489705  0.61758271  0.75523692  1
  O  O380  1  0.75438738  0.12066304  0.25468362  1
  O  O381  1  0.75800200  0.12498105  0.75808587  1
  O  O382  1  0.75469214  0.61971301  0.25917425  1
  O  O383  1  0.75582282  0.61856749  0.75710320  1
  O  O384  1  0.37554299  0.12589680  0.36179108  1
  O  O385  1  0.36707924  0.12413733  0.86681623  1
  O  O386  1  0.36734843  0.62267740  0.36750328  1
  O  O387  1  0.36751361  0.62561581  0.86993686  1
  O  O388  1  0.86900924  0.11965186  0.36866656  1
  O  O389  1  0.87006416  0.12016105  0.86956125  1
  O  O390  1  0.86737290  0.62071450  0.37047241  1
  O  O391  1  0.87015395  0.62035242  0.87173926  1
  O  O392  1  0.13007337  0.37887576  0.12953519  1
  O  O393  1  0.13398535  0.37578685  0.62944096  1
  O  O394  1  0.12848941  0.87868527  0.12988798  1
  O  O395  1  0.13040090  0.87787682  0.63049796  1
  O  O396  1  0.63009267  0.38255035  0.13040743  1
  O  O397  1  0.63223765  0.38041591  0.63211793  1
  O  O398  1  0.63197103  0.88305933  0.12487121  1
  O  O399  1  0.62533548  0.88025974  0.63296270  1
  O  O400  1  0.11949350  0.25546578  0.25439686  1
  O  O401  1  0.11894989  0.24999070  0.75742590  1
  O  O402  1  0.12201996  0.75640879  0.25739794  1
  O  O403  1  0.12619382  0.75614196  0.75811059  1
  O  O404  1  0.61967401  0.25662069  0.25431282  1
  O  O405  1  0.61821163  0.25717495  0.74983761  1
  O  O406  1  0.62303341  0.75156111  0.26222247  1
  O  O407  1  0.62400033  0.75908066  0.75575576  1
  O  O408  1  0.38020384  0.24495964  0.24381691  1
  O  O409  1  0.38054561  0.24404522  0.74319851  1
  O  O410  1  0.37399599  0.74232506  0.24243903  1
  O  O411  1  0.37506015  0.74405446  0.74341382  1
  O  O412  1  0.88128492  0.24325705  0.24939741  1
  O  O413  1  0.88183094  0.24445845  0.74347423  1
  O  O414  1  0.87367145  0.74263766  0.24240016  1
  O  O415  1  0.87661591  0.74226570  0.74226595  1
  O  O416  1  0.38554015  0.49444487  0.50208961  1
  O  O417  1  0.37625043  0.49078475  0.99822242  1
  O  O418  1  0.38474190  0.99435567  0.50066591  1
  O  O419  1  0.38345674  0.99564457  1.00067176  1
  O  O420  1  0.87595193  0.49111579  0.49293350  1
  O  O421  1  0.87614108  0.49053274  0.99435399  1
  O  O422  1  0.87877110  0.99830641  0.49028268  1
  O  O423  1  0.87734498  0.99205966  0.99232141  1
  O  O424  1  0.12309638  0.00685910  0.00726205  1
  O  O425  1  0.12353143  0.00076988  0.50899238  1
  O  O426  1  0.12526128  0.50623793  0.00685713  1
  O  O427  1  0.12110907  0.50244987  0.50394302  1
  O  O428  1  0.61466857  0.00308439  0.00476701  1
  O  O429  1  0.61697496  0.00609175  0.50367142  1
  O  O430  1  0.62501682  0.50917400  0.00750281  1
  O  O431  1  0.61665517  0.50066751  0.50849069  1
  O  O432  1  0.36890317  0.36924498  0.11963342  1
  O  O433  1  0.36984392  0.36832369  0.62029920  1
  O  O434  1  0.36812555  0.86987375  0.11980846  1
  O  O435  1  0.36898042  0.86870120  0.61947562  1
  O  O436  1  0.86928377  0.37699631  0.11650650  1
  O  O437  1  0.86986675  0.36853283  0.62028897  1
  O  O438  1  0.86872293  0.87034329  0.11949418  1
  O  O439  1  0.87659359  0.86324589  0.62760271  1
  O  O440  1  0.12675345  0.13366585  0.37524688  1
  O  O441  1  0.12997508  0.12993681  0.88042785  1
  O  O442  1  0.13110725  0.63078521  0.37425962  1
  O  O443  1  0.13077841  0.63008155  0.88107793  1
  O  O444  1  0.63033615  0.13210485  0.37979154  1
  O  O445  1  0.63774098  0.12562249  0.87362713  1
  O  O446  1  0.63497876  0.63137061  0.37636568  1
  O  O447  1  0.63142569  0.63129211  0.88013802  1
