# generated using pymatgen
data_V3Zn3O8
_symmetry_space_group_name_H-M   'P 1'
_cell_length_a   17.08833885
_cell_length_b   17.08920900
_cell_length_c   17.08910899
_cell_angle_alpha   89.99852335
_cell_angle_beta   89.97423999
_cell_angle_gamma   89.99866862
_symmetry_Int_Tables_number   1
_chemical_formula_structural   V3Zn3O8
_chemical_formula_sum   'V96 Zn96 O256'
_cell_volume   4990.46695262
_cell_formula_units_Z   32
loop_
 _symmetry_equiv_pos_site_id
 _symmetry_equiv_pos_as_xyz
  1  'x, y, z'
loop_
 _atom_site_type_symbol
 _atom_site_label
 _atom_site_symmetry_multiplicity
 _atom_site_fract_x
 _atom_site_fract_y
 _atom_site_fract_z
 _atom_site_occupancy
  V  V0  1  0.37402691  0.24979609  0.12441154  1
  V  V1  1  0.12545223  -0.00117479  0.62462394  1
  V  V2  1  0.37385242  0.50066371  0.37467004  1
  V  V3  1  0.00069312  0.62446389  0.62769073  1
  V  V4  1  0.74991211  0.87531301  0.12527770  1
  V  V5  1  0.00121807  0.24944541  0.75003871  1
  V  V6  1  0.12483236  0.49965264  0.12586989  1
  V  V7  1  0.50028741  0.24962222  0.74921635  1
  V  V8  1  0.12491312  0.24937575  0.87534053  1
  V  V9  1  0.62436251  0.75116211  0.37538843  1
  V  V10  1  0.37514361  0.12414871  0.75006603  1
  V  V11  1  0.62585025  0.24945114  0.87388609  1
  V  V12  1  0.37466428  0.87412946  0.00095906  1
  V  V13  1  0.37531358  0.25028943  0.62442518  1
  V  V14  1  0.12597759  0.12574485  0.49943857  1
  V  V15  1  0.00078640  0.37418821  0.87446064  1
  V  V16  1  0.00030504  0.25065121  0.25047960  1
  V  V17  1  0.37425529  0.00075832  0.37468285  1
  V  V18  1  -0.00059148  0.49940208  -0.00002191  1
  V  V19  1  0.62568389  0.37504891  0.74870649  1
  V  V20  1  0.62489733  0.12512325  -0.00011694  1
  V  V21  1  0.74966744  0.62445693  0.37427180  1
  V  V22  1  0.24955085  0.62747613  0.37516140  1
  V  V23  1  0.87557329  0.74975435  0.62496412  1
  V  V24  1  0.00069083  -0.00065663  0.00015515  1
  V  V25  1  0.00159410  0.87373217  0.87497135  1
  V  V26  1  0.24987184  0.24937536  -0.00018650  1
  V  V27  1  0.49781970  0.74963333  0.24924938  1
  V  V28  1  0.50031509  0.62581682  0.62581748  1
  V  V29  1  0.50134099  0.12464742  0.62399829  1
  V  V30  1  0.87426252  0.25171285  0.62277381  1
  V  V31  1  0.50005863  0.50033241  0.50024063  1
  V  V32  1  0.37443147  0.37523541  0.49978010  1
  V  V33  1  0.25064036  0.87428501  0.12429291  1
  V  V34  1  0.00008160  0.75022778  0.25106285  1
  V  V35  1  0.24996328  0.00060499  0.25078578  1
  V  V36  1  0.12340541  0.37524805  0.25020733  1
  V  V37  1  0.62547447  0.49969065  0.62582001  1
  V  V38  1  0.62608203  0.87587080  0.74918999  1
  V  V39  1  0.12584907  0.12488459  -0.00041776  1
  V  V40  1  0.87399369  0.74985652  0.12543701  1
  V  V41  1  0.49919445  0.37535531  0.37443750  1
  V  V42  1  0.87456400  0.24957912  0.12484469  1
  V  V43  1  0.50017675  0.87556462  0.87519403  1
  V  V44  1  0.62627613  0.75021931  0.87541849  1
  V  V45  1  0.12624898  0.62605785  0.50056703  1
  V  V46  1  0.75105443  -0.00076781  0.74959020  1
  V  V47  1  0.74900353  0.74996708  -0.00038015  1
  V  V48  1  0.12336785  0.87415043  0.25057097  1
  V  V49  1  0.00021602  -0.00097383  0.49887803  1
  V  V50  1  0.75127190  0.12359621  0.87451574  1
  V  V51  1  -0.00085447  0.62451835  0.12547160  1
  V  V52  1  0.87565743  -0.00063537  0.87470787  1
  V  V53  1  0.62495461  0.62512670  0.50039079  1
  V  V54  1  0.00043364  0.12522500  0.62528950  1
  V  V55  1  0.25013377  -0.00134873  0.74866162  1
  V  V56  1  0.74886643  0.37475956  0.12473039  1
  V  V57  1  0.25091086  0.49854755  0.75008352  1
  V  V58  1  -0.00008198  0.12449494  0.12487529  1
  V  V59  1  0.24993471  0.37588376  0.62571250  1
  V  V60  1  0.87632563  -0.00017798  0.37536141  1
  V  V61  1  0.24854685  0.49997760  0.25019684  1
  V  V62  1  0.12515630  -0.00051352  0.12530390  1
  V  V63  1  0.12503570  0.62373685  0.00015197  1
  V  V64  1  0.74982061  0.50011858  0.75014100  1
  V  V65  1  0.62520946  0.00087134  0.12542469  1
  V  V66  1  0.50021573  -0.00014199  -0.00037791  1
  V  V67  1  0.87480246  0.12527546  0.24970211  1
  V  V68  1  0.74871788  0.12707742  0.37550343  1
  V  V69  1  0.62312216  0.50024406  0.12379407  1
  V  V70  1  0.87434860  0.37453422  -0.00070322  1
  V  V71  1  0.74987026  0.24976468  -0.00083862  1
  V  V72  1  0.49780112  0.25043430  0.24906279  1
  V  V73  1  0.75009811  0.62519363  0.87563706  1
  V  V74  1  0.62439637  0.87547252  0.25113059  1
  V  V75  1  0.74918642  0.75053088  0.50053222  1
  V  V76  1  0.87455292  0.50020467  0.87411735  1
  V  V77  1  0.74877526  0.50091813  0.24965928  1
  V  V78  1  0.50083784  0.00018773  0.49998545  1
  V  V79  1  0.12428783  0.25096267  0.37517755  1
  V  V80  1  0.62377259  0.37552542  0.24972865  1
  V  V81  1  0.49948156  0.12596755  0.12527876  1
  V  V82  1  0.50017920  0.37453356  0.87502025  1
  V  V83  1  -0.00302279  0.49796704  0.49848345  1
  V  V84  1  0.50009081  0.50116745  -0.00007858  1
  V  V85  1  0.50053416  0.75015156  0.74982315  1
  V  V86  1  0.25228130  0.62404380  0.87566263  1
  V  V87  1  0.24904845  0.25026089  0.49959017  1
  V  V88  1  0.62485135  0.24929385  0.37525303  1
  V  V89  1  0.37355284  0.75139446  0.62410107  1
  V  V90  1  0.87525832  0.87477291  0.00049135  1
  V  V91  1  0.74992804  0.00063969  0.25043877  1
  V  V92  1  0.12504761  0.75012842  0.87406359  1
  V  V93  1  0.87337096  0.62458427  0.25025115  1
  V  V94  1  0.37469373  0.37385728  -0.00024679  1
  V  V95  1  0.75056573  0.87566097  0.62467557  1
  Zn  Zn96  1  0.87552239  0.12434033  0.74962883  1
  Zn  Zn97  1  -0.00006872  0.75086268  0.74999799  1
  Zn  Zn98  1  -0.00325081  0.37558577  0.37553543  1
  Zn  Zn99  1  0.37674751  0.62463054  0.75088467  1
  Zn  Zn100  1  0.74870738  0.25204480  0.50045730  1
  Zn  Zn101  1  0.37361007  0.74730020  0.12632948  1
  Zn  Zn102  1  0.62343912  0.62709733  0.00179317  1
  Zn  Zn103  1  0.24917927  0.37492447  0.12477143  1
  Zn  Zn104  1  0.12520066  0.87376315  0.74819473  1
  Zn  Zn105  1  0.62746788  0.12682635  0.50140033  1
  Zn  Zn106  1  0.37487932  0.62500203  0.24761253  1
  Zn  Zn107  1  0.12357633  0.75255741  0.37598114  1
  Zn  Zn108  1  0.37650110  0.49992199  0.87527767  1
  Zn  Zn109  1  0.87330236  0.49762815  0.37463975  1
  Zn  Zn110  1  0.25143373  0.12432872  0.87494421  1
  Zn  Zn111  1  0.25162594  0.74861946  0.00179726  1
  Zn  Zn112  1  0.37208256  0.87504272  0.50037681  1
  Zn  Zn113  1  0.25018815  0.75278836  0.50050398  1
  Zn  Zn114  1  0.87623346  0.87529920  0.49769492  1
  Zn  Zn115  1  0.49802991  0.62595619  0.12508862  1
  Zn  Zn116  1  0.12557841  0.37380537  0.74929920  1
  Zn  Zn117  1  0.00001449  0.87285388  0.37616498  1
  Zn  Zn118  1  0.37278439  0.12584868  0.24948594  1
  Zn  Zn119  1  0.87122852  0.37525465  0.49664966  1
  Zn  Zn120  1  0.75101189  0.37549067  0.62246217  1
  Zn  Zn121  1  0.24773769  0.87219146  0.62306245  1
  Zn  Zn122  1  0.87611789  0.62453551  0.75160666  1
  Zn  Zn123  1  0.24982193  0.12622307  0.37320479  1
  Zn  Zn124  1  0.37438006  0.00077053  0.87395874  1
  Zn  Zn125  1  0.12447882  0.49789656  0.62615685  1
  Zn  Zn126  1  0.62747363  0.00156092  0.62271115  1
  Zn  Zn127  1  0.49882891  0.87474731  0.37710485  1
  Zn  Zn128  1  0.18839907  0.18708630  0.18750329  1
  Zn  Zn129  1  0.18789933  0.18611347  0.68771857  1
  Zn  Zn130  1  0.18766481  0.68885225  0.18793479  1
  Zn  Zn131  1  0.18849080  0.68507662  0.68929315  1
  Zn  Zn132  1  0.68622325  0.18827495  0.18902199  1
  Zn  Zn133  1  0.68870774  0.18525972  0.68684123  1
  Zn  Zn134  1  0.68387284  0.68667742  0.18661453  1
  Zn  Zn135  1  0.68823629  0.68690124  0.68900096  1
  Zn  Zn136  1  0.31057513  0.31356610  0.31182953  1
  Zn  Zn137  1  0.31278980  0.31162644  0.81396691  1
  Zn  Zn138  1  0.31219094  0.81508333  0.31339607  1
  Zn  Zn139  1  0.31342589  0.81345880  0.81147024  1
  Zn  Zn140  1  0.81298141  0.31438244  0.31419755  1
  Zn  Zn141  1  0.81371799  0.31255559  0.80899117  1
  Zn  Zn142  1  0.81281592  0.81314084  0.31368535  1
  Zn  Zn143  1  0.81405017  0.81211326  0.81103514  1
  Zn  Zn144  1  0.18451123  0.43828674  0.43730793  1
  Zn  Zn145  1  0.18762529  0.43592888  0.93757138  1
  Zn  Zn146  1  0.18860862  0.93528337  0.43805833  1
  Zn  Zn147  1  0.18932583  0.93804738  0.93603667  1
  Zn  Zn148  1  0.68861567  0.43557921  0.43831305  1
  Zn  Zn149  1  0.68647323  0.43756185  0.93627218  1
  Zn  Zn150  1  0.68774458  0.93789828  0.43757087  1
  Zn  Zn151  1  0.68759042  0.93696285  0.93679580  1
  Zn  Zn152  1  0.31272053  0.06210746  0.06302452  1
  Zn  Zn153  1  0.31249458  0.06310980  0.56243110  1
  Zn  Zn154  1  0.31448892  0.56229849  0.06458607  1
  Zn  Zn155  1  0.31381755  0.56387582  0.56378924  1
  Zn  Zn156  1  0.81267952  0.06220501  0.06192877  1
  Zn  Zn157  1  0.81394523  0.06487432  0.56100271  1
  Zn  Zn158  1  0.81096005  0.56269180  0.06204426  1
  Zn  Zn159  1  0.81278136  0.56294790  0.56303923  1
  Zn  Zn160  1  0.43452206  0.43741279  0.18653584  1
  Zn  Zn161  1  0.43675221  0.43786000  0.68834544  1
  Zn  Zn162  1  0.43733866  0.93692516  0.18832259  1
  Zn  Zn163  1  0.43756912  0.93695563  0.68633759  1
  Zn  Zn164  1  0.93641138  0.43717835  0.18795396  1
  Zn  Zn165  1  0.93711524  0.43625376  0.68770587  1
  Zn  Zn166  1  0.93767076  0.93715675  0.18879897  1
  Zn  Zn167  1  0.93917361  0.93604360  0.68832715  1
  Zn  Zn168  1  0.06320474  0.06306356  0.31379776  1
  Zn  Zn169  1  0.06369881  0.06310610  0.81160757  1
  Zn  Zn170  1  0.06204864  0.56327876  0.31401906  1
  Zn  Zn171  1  0.06523252  0.56071956  0.81249889  1
  Zn  Zn172  1  0.56109680  0.06415854  0.31296176  1
  Zn  Zn173  1  0.56341596  0.06155370  0.81134853  1
  Zn  Zn174  1  0.56256381  0.56407008  0.31252051  1
  Zn  Zn175  1  0.56426515  0.56378960  0.81369045  1
  Zn  Zn176  1  0.43735525  0.18572418  0.43694747  1
  Zn  Zn177  1  0.43646038  0.18670758  0.93609181  1
  Zn  Zn178  1  0.43719909  0.68776089  0.43721513  1
  Zn  Zn179  1  0.43792347  0.68865244  0.93720173  1
  Zn  Zn180  1  0.93804180  0.18648743  0.43786186  1
  Zn  Zn181  1  0.93811144  0.18666222  0.93688002  1
  Zn  Zn182  1  0.93682392  0.68611947  0.43704907  1
  Zn  Zn183  1  0.93714757  0.68705912  0.93820693  1
  Zn  Zn184  1  0.06314331  0.31265499  0.06300298  1
  Zn  Zn185  1  0.06325171  0.31385361  0.56433720  1
  Zn  Zn186  1  0.06375483  0.81102461  0.06243067  1
  Zn  Zn187  1  0.06259123  0.81414163  0.56209370  1
  Zn  Zn188  1  0.56155485  0.31285958  0.06220572  1
  Zn  Zn189  1  0.56339103  0.31266108  0.56137470  1
  Zn  Zn190  1  0.56213956  0.81332247  0.06398248  1
  Zn  Zn191  1  0.56145646  0.81523391  0.56289791  1
  O  O192  1  0.11845007  0.11906001  0.11954231  1
  O  O193  1  0.11954865  0.12004717  0.61852275  1
  O  O194  1  0.11862885  0.61953481  0.11981944  1
  O  O195  1  0.11721834  0.62367408  0.61733700  1
  O  O196  1  0.62030818  0.12051662  0.11902665  1
  O  O197  1  0.61665698  0.12230056  0.62293703  1
  O  O198  1  0.62068411  0.61591969  0.12132237  1
  O  O199  1  0.61973656  0.62027254  0.61959471  1
  O  O200  1  0.37979095  0.38074462  0.38090605  1
  O  O201  1  0.38327340  0.37484886  0.88191120  1
  O  O202  1  0.37694294  0.88876527  0.37717595  1
  O  O203  1  0.38140686  0.87654630  0.88423029  1
  O  O204  1  0.87958177  0.37988927  0.37776544  1
  O  O205  1  0.88010481  0.37983693  0.88091640  1
  O  O206  1  0.87708560  0.88417581  0.37622377  1
  O  O207  1  0.88061530  0.87905559  0.88189507  1
  O  O208  1  0.25860765  0.00182277  0.36956210  1
  O  O209  1  0.25109801  0.00277402  0.86242551  1
  O  O210  1  0.25363730  0.50809522  0.37107363  1
  O  O211  1  0.25036467  0.50795899  0.86850887  1
  O  O212  1  0.75511945  0.00634199  0.36841504  1
  O  O213  1  0.75606232  0.00381164  0.87077000  1
  O  O214  1  0.74766913  0.50760585  0.36686314  1
  O  O215  1  0.75494595  0.50476497  0.87091523  1
  O  O216  1  0.24195258  0.49944789  0.13182270  1
  O  O217  1  0.25104027  0.49577069  0.63436259  1
  O  O218  1  0.24393461  0.99429696  0.13025421  1
  O  O219  1  0.24456677  1.00013925  0.63372045  1
  O  O220  1  0.74372906  0.49366141  0.12901945  1
  O  O221  1  0.74250831  0.50130079  0.63206572  1
  O  O222  1  0.74503484  0.99543246  0.13020343  1
  O  O223  1  0.75091979  0.99406266  0.63093706  1
  O  O224  1  0.00557912  0.36793111  0.24929418  1
  O  O225  1  0.00241343  0.36886526  0.75755152  1
  O  O226  1  0.00581833  0.86781754  0.24906484  1
  O  O227  1  0.00418345  0.87156345  0.75951851  1
  O  O228  1  0.50429990  0.37076302  0.25528461  1
  O  O229  1  0.50509967  0.36915446  0.75510117  1
  O  O230  1  0.50717818  0.86736223  0.25177250  1
  O  O231  1  0.50616689  0.87019596  0.75557482  1
  O  O232  1  0.49865545  0.13260770  0.24199361  1
  O  O233  1  0.49576231  0.13043563  0.74437060  1
  O  O234  1  0.49883024  0.63685703  0.25060263  1
  O  O235  1  0.50030022  0.63183968  0.74445007  1
  O  O236  1  0.99461280  0.13010754  0.24326811  1
  O  O237  1  0.99891792  0.13110996  0.74323327  1
  O  O238  1  0.99396196  0.62924058  0.24367899  1
  O  O239  1  1.00083284  0.62490448  0.73818061  1
  O  O240  1  0.37039016  0.25427001  0.00475663  1
  O  O241  1  0.37008356  0.25614421  0.50454894  1
  O  O242  1  0.37565598  0.76378662  0.00112373  1
  O  O243  1  0.37541535  0.75046410  0.51145082  1
  O  O244  1  0.86943706  0.25471342  0.00515141  1
  O  O245  1  0.87670077  0.25094407  0.51172780  1
  O  O246  1  0.86947375  0.75570302  0.00621389  1
  O  O247  1  0.86849851  0.74917933  0.51007540  1
  O  O248  1  0.12967041  0.24584331  0.49519382  1
  O  O249  1  0.12941035  0.24425959  0.99596787  1
  O  O250  1  0.12528893  0.73598687  0.49878741  1
  O  O251  1  0.12637095  0.74253359  0.98975137  1
  O  O252  1  0.62474011  0.24796993  0.48986060  1
  O  O253  1  0.63047741  0.24507366  0.99414543  1
  O  O254  1  0.62894622  0.74457202  0.49575865  1
  O  O255  1  0.63133080  0.75145456  0.99361506  1
  O  O256  1  0.49473530  0.24556280  0.12933086  1
  O  O257  1  0.49438324  0.24574585  0.63006942  1
  O  O258  1  0.50030215  0.74985950  0.13710045  1
  O  O259  1  0.49440977  0.74504287  0.63016813  1
  O  O260  1  0.99390309  0.24380610  0.12928526  1
  O  O261  1  0.99453322  0.24499511  0.63023202  1
  O  O262  1  0.99344343  0.74362642  0.12921671  1
  O  O263  1  0.99258782  0.74078913  0.62431166  1
  O  O264  1  0.00639463  0.25012814  0.36722937  1
  O  O265  1  0.00430038  0.25507562  0.87079989  1
  O  O266  1  0.00122599  0.74991996  0.36631215  1
  O  O267  1  0.00894436  0.75332027  0.87554440  1
  O  O268  1  0.50321353  0.25627311  0.36876206  1
  O  O269  1  0.50684933  0.25425826  0.86914032  1
  O  O270  1  0.50626575  0.75191974  0.36758728  1
  O  O271  1  0.50625767  0.75595643  0.86981259  1
  O  O272  1  0.24338854  0.13335597  0.49978595  1
  O  O273  1  0.24310028  0.13017778  0.99900808  1
  O  O274  1  0.24134588  0.62296899  0.49253184  1
  O  O275  1  0.24417357  0.62397020  0.99040319  1
  O  O276  1  0.74806338  0.12895586  0.49014805  1
  O  O277  1  0.74435120  0.13004309  0.99508479  1
  O  O278  1  0.74360430  0.63060798  0.49516526  1
  O  O279  1  0.74829203  0.63230850  0.99397615  1
  O  O280  1  0.25644451  0.36800676  0.00117951  1
  O  O281  1  0.25546695  0.37100463  0.50502128  1
  O  O282  1  0.25994643  0.87588524  0.00453088  1
  O  O283  1  0.25359886  0.86988228  0.50478821  1
  O  O284  1  0.75466833  0.36912998  0.00454335  1
  O  O285  1  0.75260480  0.37072485  0.50484635  1
  O  O286  1  0.75584498  0.87039195  0.00573328  1
  O  O287  1  0.75135326  0.86788895  0.50663097  1
  O  O288  1  0.12802106  0.49546705  0.24504895  1
  O  O289  1  0.13887453  0.49734354  0.74901271  1
  O  O290  1  0.12894729  0.99499931  0.24370055  1
  O  O291  1  0.13447828  1.00109455  0.74342286  1
  O  O292  1  0.62868484  0.49429994  0.24419752  1
  O  O293  1  0.62946146  0.49438852  0.74545332  1
  O  O294  1  0.63020157  0.99587410  0.24454419  1
  O  O295  1  0.63275250  0.99265829  0.74881810  1
  O  O296  1  0.36991602  0.00083795  0.25814812  1
  O  O297  1  0.36672892  0.00538527  0.74882059  1
  O  O298  1  0.36759659  0.50022052  0.25777182  1
  O  O299  1  0.36466206  0.50244986  0.75381035  1
  O  O300  1  0.86930897  0.00639821  0.25357027  1
  O  O301  1  0.86926927  0.00019142  0.75777526  1
  O  O302  1  0.86649498  0.50741720  0.24819731  1
  O  O303  1  0.86862393  0.50112043  0.75713028  1
  O  O304  1  0.12095240  0.36898931  0.36838749  1
  O  O305  1  0.11754337  0.36743262  0.87502958  1
  O  O306  1  0.12263442  0.87246286  0.36563127  1
  O  O307  1  0.12058454  0.86423336  0.87715909  1
  O  O308  1  0.61794351  0.37042905  0.36834715  1
  O  O309  1  0.62001407  0.36814951  0.86902451  1
  O  O310  1  0.62471315  0.86851125  0.36815281  1
  O  O311  1  0.62043364  0.86928541  0.86962408  1
  O  O312  1  0.38275190  0.13156373  0.12506579  1
  O  O313  1  0.38136386  0.13216006  0.63009201  1
  O  O314  1  0.37927653  0.62929340  0.12947983  1
  O  O315  1  0.38280450  0.63358003  0.62680377  1
  O  O316  1  0.87970869  0.13004056  0.12938157  1
  O  O317  1  0.88255395  0.13408612  0.62681662  1
  O  O318  1  0.87921663  0.63061038  0.12963273  1
  O  O319  1  0.88389727  0.63343539  0.62584002  1
  O  O320  1  0.25585941  0.25120913  0.11775575  1
  O  O321  1  0.25636193  0.25561312  0.61978684  1
  O  O322  1  0.25165425  0.75838673  0.12156954  1
  O  O323  1  0.26144447  0.74700727  0.62583186  1
  O  O324  1  0.75456462  0.25482530  0.11918309  1
  O  O325  1  0.76215501  0.24980618  0.62582739  1
  O  O326  1  0.75416374  0.75591193  0.12033010  1
  O  O327  1  0.75747967  0.75352566  0.62065494  1
  O  O328  1  0.24328663  0.24977705  0.38206233  1
  O  O329  1  0.24313444  0.24750303  0.88173047  1
  O  O330  1  0.24905494  0.73756397  0.37627143  1
  O  O331  1  0.24250860  0.74088245  0.87579307  1
  O  O332  1  0.74237777  0.24366185  0.37211450  1
  O  O333  1  0.74571471  0.24451970  0.87978104  1
  O  O334  1  0.74430493  0.74442373  0.38029614  1
  O  O335  1  0.74624478  0.74611971  0.88033290  1
  O  O336  1  0.00492197  0.11888027  0.00600439  1
  O  O337  1  0.00703720  0.11922317  0.50602880  1
  O  O338  1  0.00431243  0.61859944  0.00599211  1
  O  O339  1  0.00686835  0.61856532  0.50810333  1
  O  O340  1  0.50633209  0.12024846  0.00496479  1
  O  O341  1  0.50026966  0.11629641  0.50585125  1
  O  O342  1  0.50089445  0.61241086  -0.00105801  1
  O  O343  1  0.50621801  0.61917833  0.50490447  1
  O  O344  1  0.49387599  0.38117883  0.49419856  1
  O  O345  1  0.49570404  0.38167295  0.99426900  1
  O  O346  1  0.49696668  0.88741749  0.49867367  1
  O  O347  1  0.49358589  0.88029969  0.99594730  1
  O  O348  1  1.00138983  0.38886234  0.50094514  1
  O  O349  1  0.99345892  0.37994553  0.99526228  1
  O  O350  1  0.99773324  0.88345118  0.49715232  1
  O  O351  1  0.99446171  0.88010678  0.99608507  1
  O  O352  1  0.49500898  0.49513645  0.38053713  1
  O  O353  1  0.50042973  0.49369512  0.88343918  1
  O  O354  1  0.49208526  1.00061120  0.38237259  1
  O  O355  1  0.50022129  0.99302656  0.88197380  1
  O  O356  1  0.99768973  0.50170820  0.38661526  1
  O  O357  1  0.99525545  0.49521667  0.88090659  1
  O  O358  1  0.99345719  1.00062554  0.38098346  1
  O  O359  1  0.99605601  0.99451801  0.88156430  1
  O  O360  1  0.00460952  0.00497302  0.11953974  1
  O  O361  1  0.00497520  0.00554765  0.61984020  1
  O  O362  1  0.00386669  0.50551799  0.11921934  1
  O  O363  1  0.00064356  0.50954348  0.61814084  1
  O  O364  1  0.50644096  0.00533845  0.11966054  1
  O  O365  1  0.49993756  0.00594146  0.61570561  1
  O  O366  1  0.50489448  0.49751459  0.11461310  1
  O  O367  1  0.50491259  0.50547346  0.61994988  1
  O  O368  1  0.24141856  0.38256803  0.24877544  1
  O  O369  1  0.25115651  0.38313326  0.74527762  1
  O  O370  1  0.24340278  0.88099661  0.24402427  1
  O  O371  1  0.24826229  0.88634120  0.74771515  1
  O  O372  1  0.74342815  0.38055747  0.24336566  1
  O  O373  1  0.74264053  0.38207889  0.74846824  1
  O  O374  1  0.74490238  0.88088542  0.24400428  1
  O  O375  1  0.74560390  0.87967762  0.74491948  1
  O  O376  1  0.25187730  0.11617405  0.25141587  1
  O  O377  1  0.25696468  0.11605208  0.74970748  1
  O  O378  1  0.24835533  0.61888996  0.26065325  1
  O  O379  1  0.25071289  0.61571492  0.76007871  1
  O  O380  1  0.75545966  0.11963966  0.25355736  1
  O  O381  1  0.75164622  0.11731963  0.75812463  1
  O  O382  1  0.75347232  0.62073250  0.25409371  1
  O  O383  1  0.75094999  0.61798557  0.75798568  1
  O  O384  1  0.37260644  0.11385724  0.37211647  1
  O  O385  1  0.37376913  0.12183077  0.86618391  1
  O  O386  1  0.36456434  0.61857412  0.37588681  1
  O  O387  1  0.36286491  0.62493082  0.87454792  1
  O  O388  1  0.86930224  0.12048037  0.36746511  1
  O  O389  1  0.86880471  0.11724815  0.87546588  1
  O  O390  1  0.86648373  0.62339387  0.36759247  1
  O  O391  1  0.86922328  0.61815934  0.87450101  1
  O  O392  1  0.12541678  0.38230255  0.13114983  1
  O  O393  1  0.13462089  0.37824102  0.62831357  1
  O  O394  1  0.12997030  0.88108027  0.12888393  1
  O  O395  1  0.12643087  0.88258053  0.62852450  1
  O  O396  1  0.63003294  0.37914530  0.13019507  1
  O  O397  1  0.62410790  0.38204007  0.63203819  1
  O  O398  1  0.63137753  0.88199652  0.13028989  1
  O  O399  1  0.63276361  0.87621163  0.63209317  1
  O  O400  1  0.11963500  0.25489341  0.25408561  1
  O  O401  1  0.11941125  0.25041754  0.75704887  1
  O  O402  1  0.11707300  0.75618669  0.24999226  1
  O  O403  1  0.12417202  0.74880687  0.76371600  1
  O  O404  1  0.61765992  0.25704552  0.25393508  1
  O  O405  1  0.61978153  0.25452942  0.75498872  1
  O  O406  1  0.61830472  0.75559890  0.25554581  1
  O  O407  1  0.62067027  0.75641723  0.75551594  1
  O  O408  1  0.38040910  0.25025300  0.24336136  1
  O  O409  1  0.38110453  0.24544827  0.74386699  1
  O  O410  1  0.38672656  0.75128964  0.25102017  1
  O  O411  1  0.38256235  0.74802991  0.74239940  1
  O  O412  1  0.87972296  0.24446138  0.24313779  1
  O  O413  1  0.88264717  0.24762518  0.74154248  1
  O  O414  1  0.87850508  0.74438251  0.24347880  1
  O  O415  1  0.87712052  0.74611678  0.73784371  1
  O  O416  1  0.38061315  0.49483941  0.49510349  1
  O  O417  1  0.38480911  0.49294543  0.99861714  1
  O  O418  1  0.38326515  1.00115861  0.49228545  1
  O  O419  1  0.38151196  0.99027232  0.99910789  1
  O  O420  1  0.88555187  0.50115438  0.49894318  1
  O  O421  1  0.87966689  0.49371773  0.99509785  1
  O  O422  1  0.88242387  1.00028011  0.49283973  1
  O  O423  1  0.88065320  0.99392455  0.99562030  1
  O  O424  1  0.11977349  0.00427160  0.00565533  1
  O  O425  1  0.12037273  0.00629080  0.50511413  1
  O  O426  1  0.11846956  0.50434144  0.00506166  1
  O  O427  1  0.11696382  0.51118647  0.50211701  1
  O  O428  1  0.62100780  0.00528257  0.00584388  1
  O  O429  1  0.61322264  0.00314488  0.49963800  1
  O  O430  1  0.61489304  0.49832350  0.00476085  1
  O  O431  1  0.61886942  0.50558524  0.50534238  1
  O  O432  1  0.37274754  0.36749641  0.11742919  1
  O  O433  1  0.37090919  0.36959127  0.61880583  1
  O  O434  1  0.36986867  0.87540088  0.11553173  1
  O  O435  1  0.37488867  0.86153132  0.62500089  1
  O  O436  1  0.86858835  0.36913054  0.11899954  1
  O  O437  1  0.87495674  0.36341332  0.62343088  1
  O  O438  1  0.86915776  0.86997455  0.12021519  1
  O  O439  1  0.87027745  0.86422976  0.62356826  1
  O  O440  1  0.12665792  0.13270699  0.38192599  1
  O  O441  1  0.12497975  0.13163225  0.88337761  1
  O  O442  1  0.13378180  0.62531116  0.38365556  1
  O  O443  1  0.13214163  0.63081080  0.88022180  1
  O  O444  1  0.63145881  0.13240105  0.37317354  1
  O  O445  1  0.63069506  0.13020345  0.88070580  1
  O  O446  1  0.63037765  0.63106466  0.38124578  1
  O  O447  1  0.63209616  0.63311959  0.87795056  1
