# generated using pymatgen
data_V3Zn3O8
_symmetry_space_group_name_H-M   'P 1'
_cell_length_a   17.08932348
_cell_length_b   17.08868657
_cell_length_c   17.08948518
_cell_angle_alpha   90.00098936
_cell_angle_beta   89.99493426
_cell_angle_gamma   90.00933501
_symmetry_Int_Tables_number   1
_chemical_formula_structural   V3Zn3O8
_chemical_formula_sum   'V96 Zn96 O256'
_cell_volume   4990.71221022
_cell_formula_units_Z   32
loop_
 _symmetry_equiv_pos_site_id
 _symmetry_equiv_pos_as_xyz
  1  'x, y, z'
loop_
 _atom_site_type_symbol
 _atom_site_label
 _atom_site_symmetry_multiplicity
 _atom_site_fract_x
 _atom_site_fract_y
 _atom_site_fract_z
 _atom_site_occupancy
  V  V0  1  0.49914385  0.25025592  0.74980541  1
  V  V1  1  0.37543734  0.87355122  0.00025133  1
  V  V2  1  0.00091400  0.62337002  0.62434164  1
  V  V3  1  0.62503608  0.87613841  0.74905519  1
  V  V4  1  0.12319341  0.12376339  0.49960400  1
  V  V5  1  -0.00176657  0.12506626  0.62683156  1
  V  V6  1  0.87542974  0.37596697  0.49872724  1
  V  V7  1  0.50048638  0.75130661  0.74931482  1
  V  V8  1  0.87516356  0.37587549  0.00066347  1
  V  V9  1  0.37482176  0.75012488  0.12324868  1
  V  V10  1  0.37605387  0.74945585  0.62522512  1
  V  V11  1  0.50062132  0.75015024  0.25019929  1
  V  V12  1  0.87345035  -0.00002286  0.37350985  1
  V  V13  1  0.24955324  0.12300105  0.37409122  1
  V  V14  1  0.12607702  0.37417735  0.25014352  1
  V  V15  1  0.12638035  -0.00170742  0.12505947  1
  V  V16  1  0.62503260  0.37467050  0.25083434  1
  V  V17  1  0.50021871  0.50018090  0.00050739  1
  V  V18  1  0.62473662  0.37581977  0.74941795  1
  V  V19  1  0.50091894  0.62606403  0.62542836  1
  V  V20  1  -0.00057710  0.37467446  0.37658383  1
  V  V21  1  0.87670693  0.74767085  0.12751727  1
  V  V22  1  0.62581434  0.49992940  0.12567457  1
  V  V23  1  0.24914588  0.87483126  0.62469534  1
  V  V24  1  0.50042930  0.62449829  0.12598245  1
  V  V25  1  0.00304153  0.50335709  0.00167601  1
  V  V26  1  0.74792492  0.24979317  0.49943380  1
  V  V27  1  -0.00009664  0.87392832  0.37532348  1
  V  V28  1  0.12535860  0.62349684  0.50102270  1
  V  V29  1  0.49896075  0.12440945  0.62369462  1
  V  V30  1  0.75016273  0.00056665  0.24940196  1
  V  V31  1  0.37364305  0.00000357  0.37358368  1
  V  V32  1  0.37429285  0.50321939  0.87404644  1
  V  V33  1  0.37249110  0.37304924  0.00256103  1
  V  V34  1  0.74968948  0.87567434  0.12383361  1
  V  V35  1  0.62575248  0.00049268  0.12367011  1
  V  V36  1  0.87643500  0.24984100  0.12566004  1
  V  V37  1  0.25137518  0.62361342  0.37508581  1
  V  V38  1  0.12496443  0.74915336  0.37485309  1
  V  V39  1  0.75135834  0.12622728  0.87419416  1
  V  V40  1  0.49965264  0.00091197  0.50012049  1
  V  V41  1  -0.00064810  0.75114552  0.74959318  1
  V  V42  1  0.74918607  0.87654077  0.62459122  1
  V  V43  1  0.62566986  0.62535110  0.50096442  1
  V  V44  1  0.37454040  0.12552437  0.74990732  1
  V  V45  1  0.37483171  0.87455659  0.49883026  1
  V  V46  1  0.75030424  0.25122516  0.00018581  1
  V  V47  1  -0.00114632  0.87622549  0.87489841  1
  V  V48  1  0.50103852  0.00072670  -0.00114969  1
  V  V49  1  0.37580709  0.62373417  0.25063107  1
  V  V50  1  0.87457310  0.87608352  -0.00091385  1
  V  V51  1  0.62480416  0.50101490  0.62498150  1
  V  V52  1  0.62540384  0.25142916  0.87481850  1
  V  V53  1  0.37261961  0.25128321  0.62552483  1
  V  V54  1  0.12587188  0.24922091  0.87616184  1
  V  V55  1  0.74906724  0.12526657  0.37482103  1
  V  V56  1  0.12581982  0.87287255  0.24970552  1
  V  V57  1  0.75152883  0.50042511  0.25133716  1
  V  V58  1  0.49954748  0.87497551  0.37397935  1
  V  V59  1  0.74944177  0.75029820  -0.00085043  1
  V  V60  1  0.12800270  0.49894754  0.12584845  1
  V  V61  1  0.75155077  0.62454869  0.37443374  1
  V  V62  1  0.87552059  0.50131647  0.87520905  1
  V  V63  1  0.74970937  0.37511264  0.62464751  1
  V  V64  1  0.37310140  0.37427674  0.50159873  1
  V  V65  1  0.12487380  0.87532078  0.74925616  1
  V  V66  1  0.62486289  0.24972298  0.37562132  1
  V  V67  1  -0.00011354  0.24895220  0.24961842  1
  V  V68  1  0.87525768  0.75071561  0.62520729  1
  V  V69  1  0.37584096  0.49938905  0.37538899  1
  V  V70  1  0.62540503  0.12612397  -0.00033380  1
  V  V71  1  0.75118149  0.00227461  0.74978085  1
  V  V72  1  -0.00136978  -0.00017893  0.49987144  1
  V  V73  1  0.50119741  0.87534199  0.87342551  1
  V  V74  1  0.24860083  0.49920364  0.74855584  1
  V  V75  1  0.50043733  0.37586838  0.87486511  1
  V  V76  1  0.12423974  0.24826861  0.37537295  1
  V  V77  1  0.12615898  0.74833500  0.87781468  1
  V  V78  1  0.75026924  0.50138541  0.75079217  1
  V  V79  1  0.87384301  0.87537197  0.49902577  1
  V  V80  1  0.24988415  -0.00089380  0.74921662  1
  V  V81  1  0.87403824  0.24936382  0.62559819  1
  V  V82  1  0.62385555  0.87500673  0.24922350  1
  V  V83  1  0.37578028  0.00007116  0.87451696  1
  V  V84  1  0.75038025  0.62555219  0.87517413  1
  V  V85  1  0.62601183  0.62554848  0.00009508  1
  V  V86  1  0.25061150  0.74931239  0.50042217  1
  V  V87  1  0.49928165  0.12597847  0.12561163  1
  V  V88  1  0.74933841  0.75063047  0.49980890  1
  V  V89  1  0.00227816  0.37450833  0.87255907  1
  V  V90  1  0.49850100  0.24862606  0.24926535  1
  V  V91  1  -0.00004195  -0.00007348  0.00003953  1
  V  V92  1  0.24987793  0.12524720  0.87565868  1
  V  V93  1  0.75045220  0.37528601  0.12574941  1
  V  V94  1  0.49959890  0.37467020  0.37550919  1
  V  V95  1  0.00051014  0.12458002  0.12531552  1
  Zn  Zn96  1  0.37203404  0.24695670  0.12631983  1
  Zn  Zn97  1  0.12553436  0.37396085  0.74689585  1
  Zn  Zn98  1  0.62335538  0.12469170  0.50053400  1
  Zn  Zn99  1  0.25081676  0.24681832  0.00310338  1
  Zn  Zn100  1  0.87759068  0.62279983  0.25077521  1
  Zn  Zn101  1  0.62557205  0.75080255  0.87451117  1
  Zn  Zn102  1  0.62477927  0.75071765  0.37490737  1
  Zn  Zn103  1  0.24512163  0.37301689  0.62522804  1
  Zn  Zn104  1  0.87500047  0.12446145  0.24998386  1
  Zn  Zn105  1  0.24756501  0.24923821  0.50281199  1
  Zn  Zn106  1  0.25195525  0.49663405  0.24952258  1
  Zn  Zn107  1  -0.00146785  0.24897302  0.75089155  1
  Zn  Zn108  1  0.62483515  0.00250834  0.62217295  1
  Zn  Zn109  1  0.87449427  0.62632222  0.75003426  1
  Zn  Zn110  1  0.12395966  -0.00035773  0.62488657  1
  Zn  Zn111  1  0.00188378  0.62499809  0.13033193  1
  Zn  Zn112  1  0.87660104  0.00333304  0.87569886  1
  Zn  Zn113  1  0.37407594  0.62644039  0.74964735  1
  Zn  Zn114  1  0.12751644  0.12443029  0.00128147  1
  Zn  Zn115  1  0.24789140  0.62548253  0.87526852  1
  Zn  Zn116  1  0.50057339  0.50067039  0.50099711  1
  Zn  Zn117  1  -0.00091677  0.74591859  0.25154762  1
  Zn  Zn118  1  0.87539225  0.12741287  0.75275078  1
  Zn  Zn119  1  0.37395526  0.12420553  0.24808812  1
  Zn  Zn120  1  0.12845400  0.62742089  0.00378052  1
  Zn  Zn121  1  0.87850967  0.50049990  0.37481782  1
  Zn  Zn122  1  0.25148187  0.74778517  -0.00029084  1
  Zn  Zn123  1  0.25107336  0.36997328  0.12750683  1
  Zn  Zn124  1  0.12522996  0.49606565  0.62474816  1
  Zn  Zn125  1  0.00137290  0.49788562  0.49987814  1
  Zn  Zn126  1  0.25042914  0.87224900  0.12264100  1
  Zn  Zn127  1  0.25278252  -0.00209457  0.24801373  1
  Zn  Zn128  1  0.18853082  0.18723330  0.18769535  1
  Zn  Zn129  1  0.18561075  0.18774635  0.68875914  1
  Zn  Zn130  1  0.19012506  0.68545439  0.18714654  1
  Zn  Zn131  1  0.18822980  0.68581759  0.69030501  1
  Zn  Zn132  1  0.68696484  0.18756354  0.18834868  1
  Zn  Zn133  1  0.68535412  0.18703023  0.68601030  1
  Zn  Zn134  1  0.68833689  0.68807024  0.18812911  1
  Zn  Zn135  1  0.68712482  0.68890337  0.68838738  1
  Zn  Zn136  1  0.31186128  0.30999674  0.31290471  1
  Zn  Zn137  1  0.31103990  0.31426136  0.81371591  1
  Zn  Zn138  1  0.31207218  0.81059025  0.31102272  1
  Zn  Zn139  1  0.31283779  0.81320388  0.81222720  1
  Zn  Zn140  1  0.81364750  0.31196105  0.31272232  1
  Zn  Zn141  1  0.81380235  0.31354454  0.81156514  1
  Zn  Zn142  1  0.81048162  0.81259429  0.31195254  1
  Zn  Zn143  1  0.81282364  0.81365242  0.81250065  1
  Zn  Zn144  1  0.18723044  0.43854608  0.43737679  1
  Zn  Zn145  1  0.18909488  0.43685243  0.93693429  1
  Zn  Zn146  1  0.18624181  0.93818743  0.43795800  1
  Zn  Zn147  1  0.18899510  0.93499058  0.93813132  1
  Zn  Zn148  1  0.68808517  0.43871655  0.43819364  1
  Zn  Zn149  1  0.68773103  0.43891909  0.93764653  1
  Zn  Zn150  1  0.68490784  0.93901783  0.43670749  1
  Zn  Zn151  1  0.68807845  0.93829907  0.93503864  1
  Zn  Zn152  1  0.31259410  0.06172608  0.06175323  1
  Zn  Zn153  1  0.31208322  0.06204509  0.56172826  1
  Zn  Zn154  1  0.30967928  0.56468170  0.06054574  1
  Zn  Zn155  1  0.31360717  0.56144024  0.56347946  1
  Zn  Zn156  1  0.81417916  0.06390042  0.06222948  1
  Zn  Zn157  1  0.81202347  0.06360239  0.56126520  1
  Zn  Zn158  1  0.81291656  0.56339372  0.06218998  1
  Zn  Zn159  1  0.81457831  0.56174356  0.56124831  1
  Zn  Zn160  1  0.43792797  0.43676330  0.18809826  1
  Zn  Zn161  1  0.43683914  0.43882283  0.68697844  1
  Zn  Zn162  1  0.43713455  0.93863126  0.18686017  1
  Zn  Zn163  1  0.43681236  0.93783403  0.68601109  1
  Zn  Zn164  1  0.93854216  0.43699868  0.19002324  1
  Zn  Zn165  1  0.93521155  0.43851037  0.68736068  1
  Zn  Zn166  1  0.93838198  0.93558026  0.18804354  1
  Zn  Zn167  1  0.93591519  0.93839551  0.68758447  1
  Zn  Zn168  1  0.06187498  0.06103453  0.31103756  1
  Zn  Zn169  1  0.06409526  0.06228894  0.81237584  1
  Zn  Zn170  1  0.06156029  0.56163736  0.31217302  1
  Zn  Zn171  1  0.06305619  0.56409931  0.81012130  1
  Zn  Zn172  1  0.56239341  0.06272650  0.31264185  1
  Zn  Zn173  1  0.56420502  0.06357110  0.81099321  1
  Zn  Zn174  1  0.56348402  0.56159231  0.31437789  1
  Zn  Zn175  1  0.56280686  0.56474301  0.81211497  1
  Zn  Zn176  1  0.43552438  0.18789613  0.43737932  1
  Zn  Zn177  1  0.43770836  0.18781617  0.93718085  1
  Zn  Zn178  1  0.43912011  0.68728454  0.43780792  1
  Zn  Zn179  1  0.44035012  0.68839469  0.93714563  1
  Zn  Zn180  1  0.93505356  0.18774724  0.43799083  1
  Zn  Zn181  1  0.93856910  0.18643160  0.93983195  1
  Zn  Zn182  1  0.93752795  0.68796816  0.43908647  1
  Zn  Zn183  1  0.93744271  0.68793849  0.93864972  1
  Zn  Zn184  1  0.06397036  0.31329806  0.06155568  1
  Zn  Zn185  1  0.06241397  0.31112099  0.56251980  1
  Zn  Zn186  1  0.05975459  0.81384258  0.06199780  1
  Zn  Zn187  1  0.06317369  0.81108923  0.56208027  1
  Zn  Zn188  1  0.56094526  0.31259525  0.06345254  1
  Zn  Zn189  1  0.56065421  0.31223429  0.56236369  1
  Zn  Zn190  1  0.56163250  0.81212130  0.06182600  1
  Zn  Zn191  1  0.56399524  0.81372512  0.56239103  1
  O  O192  1  0.11953446  0.11339539  0.12559199  1
  O  O193  1  0.11407472  0.12396699  0.61949329  1
  O  O194  1  0.12251136  0.61291700  0.12448856  1
  O  O195  1  0.11484622  0.62708481  0.61984222  1
  O  O196  1  0.62096744  0.11982132  0.11819560  1
  O  O197  1  0.61458054  0.12376615  0.62203562  1
  O  O198  1  0.62058251  0.61894860  0.12025609  1
  O  O199  1  0.62122435  0.62044684  0.62027601  1
  O  O200  1  0.37998887  0.37841880  0.38287824  1
  O  O201  1  0.38132291  0.38428875  0.88221504  1
  O  O202  1  0.37942418  0.87910137  0.37970240  1
  O  O203  1  0.38209597  0.88127704  0.87905989  1
  O  O204  1  0.88144596  0.37393261  0.38171669  1
  O  O205  1  0.88289241  0.38037629  0.88120712  1
  O  O206  1  0.87915752  0.87972260  0.37989034  1
  O  O207  1  0.88125671  0.87671006  0.88188255  1
  O  O208  1  0.25434536  0.00767146  0.37476393  1
  O  O209  1  0.25618163  0.00415939  0.86882770  1
  O  O210  1  0.25778210  0.50699166  0.37379463  1
  O  O211  1  0.25951124  0.50006748  0.86794749  1
  O  O212  1  0.75416320  0.00463988  0.36896403  1
  O  O213  1  0.75087122  0.00715673  0.86601018  1
  O  O214  1  0.75056122  0.50919693  0.36987409  1
  O  O215  1  0.75577629  0.50493764  0.87100787  1
  O  O216  1  0.23863648  0.49628146  0.12539176  1
  O  O217  1  0.25063014  0.49843329  0.63695049  1
  O  O218  1  0.23799640  0.99681210  0.12638666  1
  O  O219  1  0.24891059  0.99313506  0.63120206  1
  O  O220  1  0.74502021  0.49445570  0.12966131  1
  O  O221  1  0.74498555  0.49487323  0.63065345  1
  O  O222  1  0.74482789  0.99540028  0.12867610  1
  O  O223  1  0.74957137  0.99535181  0.63308877  1
  O  O224  1  0.00614286  0.36786100  0.25610480  1
  O  O225  1  -0.00065598  0.37598472  0.76435994  1
  O  O226  1  0.01036891  0.87217211  0.25646598  1
  O  O227  1  0.00450436  0.87082908  0.75423394  1
  O  O228  1  0.50631811  0.36946306  0.25556095  1
  O  O229  1  0.50523224  0.36996064  0.75505356  1
  O  O230  1  0.50478444  0.87006302  0.25429999  1
  O  O231  1  0.50501941  0.87169612  0.75382996  1
  O  O232  1  0.50065694  0.13108697  0.24323074  1
  O  O233  1  0.49370067  0.13090290  0.74560568  1
  O  O234  1  0.49630916  0.62969831  0.24525736  1
  O  O235  1  0.49962637  0.63298625  0.74321375  1
  O  O236  1  0.99821623  0.13090200  0.24355612  1
  O  O237  1  0.99748017  0.12389509  0.73848584  1
  O  O238  1  0.99461556  0.62886179  0.24839425  1
  O  O239  1  0.99805943  0.63210624  0.74017635  1
  O  O240  1  0.37628060  0.26242932  -0.00076361  1
  O  O241  1  0.37355131  0.25924642  0.50602720  1
  O  O242  1  0.37851519  0.75646608  0.00583277  1
  O  O243  1  0.36977196  0.75556653  0.50473523  1
  O  O244  1  0.86979947  0.25685246  0.00590234  1
  O  O245  1  0.86728650  0.25606534  0.50591251  1
  O  O246  1  0.86944757  0.75585192  0.00810499  1
  O  O247  1  0.86869354  0.75705736  0.50543096  1
  O  O248  1  0.12570971  0.24110121  0.49245606  1
  O  O249  1  0.12643040  0.24861710  0.98748249  1
  O  O250  1  0.13187869  0.74456462  0.49419568  1
  O  O251  1  0.12339717  0.75117760  0.98876288  1
  O  O252  1  0.63063377  0.25035917  0.49313282  1
  O  O253  1  0.63054110  0.24647129  0.99444417  1
  O  O254  1  0.63251855  0.74409284  0.49884236  1
  O  O255  1  0.63156724  0.74345304  0.99972084  1
  O  O256  1  0.50047478  0.24318087  0.13157244  1
  O  O257  1  0.49328867  0.24533974  0.63166372  1
  O  O258  1  0.49543758  0.74340545  0.13054367  1
  O  O259  1  0.49508394  0.74656723  0.62973924  1
  O  O260  1  0.99635335  0.24529283  0.12916869  1
  O  O261  1  0.99343074  0.23922811  0.62578780  1
  O  O262  1  0.98774746  0.74878139  0.12494980  1
  O  O263  1  0.99489094  0.74331749  0.62930095  1
  O  O264  1  0.00480564  0.25341737  0.36959390  1
  O  O265  1  0.00642662  0.25924272  0.87671844  1
  O  O266  1  0.00688221  0.75686638  0.37594941  1
  O  O267  1  0.00586083  0.75619982  0.87008066  1
  O  O268  1  0.50522284  0.25517157  0.36974083  1
  O  O269  1  0.50607118  0.25565990  0.86907909  1
  O  O270  1  0.50135077  0.75680105  0.36802343  1
  O  O271  1  0.50233770  0.75745619  0.86767549  1
  O  O272  1  0.24276731  0.12376882  0.49000068  1
  O  O273  1  0.24804312  0.12522601  0.99021994  1
  O  O274  1  0.24609682  0.63076564  0.49546263  1
  O  O275  1  0.24570500  0.62943689  0.99261318  1
  O  O276  1  0.74780923  0.13214485  0.49317448  1
  O  O277  1  0.74450787  0.13174807  0.99515152  1
  O  O278  1  0.74558715  0.63028648  0.49363067  1
  O  O279  1  0.74476969  0.62983198  0.99487459  1
  O  O280  1  0.26310377  0.37386448  -0.00019599  1
  O  O281  1  0.26256831  0.37283686  0.50031093  1
  O  O282  1  0.26070211  0.87096350  0.00094055  1
  O  O283  1  0.25484320  0.86903271  0.50439777  1
  O  O284  1  0.75512597  0.37088636  0.00566912  1
  O  O285  1  0.75441690  0.36950167  0.50581941  1
  O  O286  1  0.75407074  0.87085660  0.00475099  1
  O  O287  1  0.75453740  0.87116034  0.50411840  1
  O  O288  1  0.12504688  0.49268183  0.24037040  1
  O  O289  1  0.13624647  0.49835181  0.75047077  1
  O  O290  1  0.12401339  0.98943277  0.24142549  1
  O  O291  1  0.13216676  0.99289678  0.74831441  1
  O  O292  1  0.63061623  0.49398365  0.24465959  1
  O  O293  1  0.63037084  0.49456077  0.74524297  1
  O  O294  1  0.62999899  0.99441299  0.24303298  1
  O  O295  1  0.63588092  0.99575915  0.74810580  1
  O  O296  1  0.37231439  0.00189140  0.25780906  1
  O  O297  1  0.36996627  0.00539386  0.75550691  1
  O  O298  1  0.37551640  0.50593389  0.25676032  1
  O  O299  1  0.36917312  0.50020226  0.75964406  1
  O  O300  1  0.86804788  -0.00066654  0.25562047  1
  O  O301  1  0.86174454  0.00160302  0.75223369  1
  O  O302  1  0.86620551  0.50146121  0.25257955  1
  O  O303  1  0.86749158  0.50197654  0.75755529  1
  O  O304  1  0.11988608  0.36787917  0.37109431  1
  O  O305  1  0.11630538  0.36769125  0.87558468  1
  O  O306  1  0.12015737  0.86985253  0.36830482  1
  O  O307  1  0.11887208  0.86772376  0.86919532  1
  O  O308  1  0.62022619  0.37016171  0.37005023  1
  O  O309  1  0.62019238  0.37111765  0.86981148  1
  O  O310  1  0.61779715  0.87409693  0.36705267  1
  O  O311  1  0.61827066  0.87479492  0.86776980  1
  O  O312  1  0.38420900  0.12465884  0.12637845  1
  O  O313  1  0.37893982  0.13076650  0.63101683  1
  O  O314  1  0.38208489  0.62841679  0.13010347  1
  O  O315  1  0.38282103  0.63244077  0.62514106  1
  O  O316  1  0.88186546  0.13243135  0.12642496  1
  O  O317  1  0.88365876  0.13068612  0.62411812  1
  O  O318  1  0.87453592  0.63698239  0.12560539  1
  O  O319  1  0.88420103  0.63238050  0.62465992  1
  O  O320  1  0.25347804  0.25175633  0.12039665  1
  O  O321  1  0.25746808  0.25092326  0.62368889  1
  O  O322  1  0.25961725  0.75134276  0.12232764  1
  O  O323  1  0.25559157  0.75479024  0.62003099  1
  O  O324  1  0.75480087  0.25597270  0.11960277  1
  O  O325  1  0.75326036  0.25609480  0.61988160  1
  O  O326  1  0.75669003  0.75619328  0.11923051  1
  O  O327  1  0.75553219  0.75635400  0.61992077  1
  O  O328  1  0.24306971  0.23838984  0.37721948  1
  O  O329  1  0.24165587  0.24431791  0.87574967  1
  O  O330  1  0.24550871  0.74381030  0.38126922  1
  O  O331  1  0.23771522  0.75026127  0.87377868  1
  O  O332  1  0.74428315  0.24541922  0.37941559  1
  O  O333  1  0.74454835  0.24761170  0.88071539  1
  O  O334  1  0.74815034  0.74181090  0.38078257  1
  O  O335  1  0.74919369  0.74442790  0.88162240  1
  O  O336  1  0.00360015  0.11780649  0.00764218  1
  O  O337  1  0.00280210  0.11950869  0.50726061  1
  O  O338  1  0.00159090  0.61151426  0.00172160  1
  O  O339  1  0.00604937  0.62602740  0.50995668  1
  O  O340  1  0.50675622  0.12002599  0.00359110  1
  O  O341  1  0.49812456  0.11886276  0.50585698  1
  O  O342  1  0.50615162  0.61916301  0.00642110  1
  O  O343  1  0.50784755  0.62459667  0.50696907  1
  O  O344  1  0.48956334  0.37568851  0.49439742  1
  O  O345  1  0.49412883  0.38118217  0.99451667  1
  O  O346  1  0.49381212  0.87951686  0.49410767  1
  O  O347  1  0.49654954  0.88191835  0.99371474  1
  O  O348  1  0.99240960  0.37328488  0.49396933  1
  O  O349  1  0.99548521  0.38342061  0.99143877  1
  O  O350  1  0.99385402  0.87958457  0.49520544  1
  O  O351  1  0.99341965  0.88118944  0.99429931  1
  O  O352  1  0.49449675  0.49262610  0.37760937  1
  O  O353  1  0.49354050  0.49511964  0.87969072  1
  O  O354  1  0.49358343  0.99437740  0.37948966  1
  O  O355  1  0.49545418  0.99628960  0.87919300  1
  O  O356  1  0.99860652  0.49010167  0.37793733  1
  O  O357  1  0.99735131  0.49320731  0.88237104  1
  O  O358  1  0.99358329  0.99398330  0.38009039  1
  O  O359  1  0.99970703  0.99395231  0.88116436  1
  O  O360  1  0.00787612  0.00319923  0.12094677  1
  O  O361  1  -0.00155840  0.00884692  0.61848855  1
  O  O362  1  0.00808271  0.49723686  0.11602965  1
  O  O363  1  0.00028066  0.51306527  0.62540169  1
  O  O364  1  0.50725127  0.00517019  0.11821504  1
  O  O365  1  0.49871168  0.00665444  0.61822296  1
  O  O366  1  0.50676618  0.50517053  0.12054829  1
  O  O367  1  0.50744724  0.50722308  0.62500645  1
  O  O368  1  0.24168401  0.37645614  0.24924563  1
  O  O369  1  0.24930167  0.38654301  0.74930145  1
  O  O370  1  0.23669249  0.87587704  0.24907772  1
  O  O371  1  0.24526039  0.88014912  0.74391714  1
  O  O372  1  0.74419049  0.37954048  0.24491611  1
  O  O373  1  0.74390152  0.38111163  0.74479924  1
  O  O374  1  0.74355560  0.88107660  0.24353591  1
  O  O375  1  0.74566880  0.88334540  0.74513416  1
  O  O376  1  0.24881220  0.12093016  0.26373337  1
  O  O377  1  0.25567209  0.11883850  0.75534829  1
  O  O378  1  0.25874846  0.62267073  0.25793056  1
  O  O379  1  0.25385984  0.61486122  0.75467302  1
  O  O380  1  0.75116030  0.11810847  0.25557594  1
  O  O381  1  0.74930695  0.11761735  0.75474534  1
  O  O382  1  0.74973504  0.61982878  0.25947640  1
  O  O383  1  0.75092970  0.61909105  0.75646104  1
  O  O384  1  0.36452611  0.11898388  0.37542425  1
  O  O385  1  0.37117946  0.11956091  0.86887220  1
  O  O386  1  0.37164092  0.61971126  0.37078832  1
  O  O387  1  0.37776917  0.61160663  0.87477262  1
  O  O388  1  0.86751108  0.11788783  0.37329918  1
  O  O389  1  0.86722433  0.12444061  0.87363689  1
  O  O390  1  0.86178455  0.62480125  0.37631324  1
  O  O391  1  0.86890105  0.61868781  0.87445764  1
  O  O392  1  0.12514054  0.38311425  0.13076600  1
  O  O393  1  0.12623204  0.37725980  0.62902821  1
  O  O394  1  0.12384999  0.88147468  0.13328826  1
  O  O395  1  0.13121716  0.87523330  0.63090157  1
  O  O396  1  0.63063495  0.38034850  0.13040903  1
  O  O397  1  0.62975058  0.38001397  0.63045507  1
  O  O398  1  0.62990979  0.88130530  0.12870734  1
  O  O399  1  0.63219141  0.87849892  0.63099536  1
  O  O400  1  0.11845163  0.25434580  0.25580104  1
  O  O401  1  0.12084265  0.25184475  0.76400142  1
  O  O402  1  0.12455153  0.75804608  0.25548381  1
  O  O403  1  0.11902597  0.75624069  0.75770288  1
  O  O404  1  0.62005385  0.25660600  0.25569312  1
  O  O405  1  0.61937897  0.25670500  0.75553582  1
  O  O406  1  0.61832895  0.75732817  0.24962949  1
  O  O407  1  0.61888178  0.75865965  0.75094880  1
  O  O408  1  0.38417027  0.24677384  0.24858105  1
  O  O409  1  0.38032761  0.24538241  0.74683059  1
  O  O410  1  0.38173750  0.74393059  0.24429127  1
  O  O411  1  0.38205266  0.74996398  0.74316455  1
  O  O412  1  0.88188990  0.24926511  0.24253734  1
  O  O413  1  0.87704704  0.24817373  0.74148852  1
  O  O414  1  0.87422796  0.75061267  0.23802092  1
  O  O415  1  0.88130160  0.75012447  0.74278174  1
  O  O416  1  0.37751707  0.49046424  0.49482763  1
  O  O417  1  0.38071791  0.49315639  0.99261822  1
  O  O418  1  0.37953620  0.99294942  0.49362125  1
  O  O419  1  0.38245285  0.99443982  0.99347350  1
  O  O420  1  0.87761291  0.49026252  0.49753820  1
  O  O421  1  0.88347483  0.49490279  0.99621919  1
  O  O422  1  0.87871578  0.99388899  0.49324189  1
  O  O423  1  0.88138998  0.99341841  0.99995680  1
  O  O424  1  0.11894492  -0.00310014  0.01051036  1
  O  O425  1  0.11587061  0.00525896  0.50188268  1
  O  O426  1  0.11716917  0.49769982  0.00752773  1
  O  O427  1  0.12308287  0.50890099  0.50375395  1
  O  O428  1  0.62090397  0.00636476  0.00404116  1
  O  O429  1  0.61541037  0.00293046  0.50142985  1
  O  O430  1  0.62019524  0.50470781  0.00623431  1
  O  O431  1  0.62420873  0.50644918  0.50790878  1
  O  O432  1  0.37578395  0.37512023  0.11314687  1
  O  O433  1  0.37551563  0.36980847  0.61600922  1
  O  O434  1  0.37620084  0.86865929  0.11821060  1
  O  O435  1  0.36911287  0.86916761  0.61831279  1
  O  O436  1  0.87001053  0.36982534  0.11981304  1
  O  O437  1  0.86884491  0.36963147  0.61970455  1
  O  O438  1  0.86928342  0.86768334  0.11939495  1
  O  O439  1  0.86933819  0.87044782  0.61824767  1
  O  O440  1  0.13032113  0.12749115  0.37958189  1
  O  O441  1  0.13041111  0.13322899  0.87628996  1
  O  O442  1  0.13122033  0.63006340  0.38056531  1
  O  O443  1  0.12182331  0.63871633  0.87623835  1
  O  O444  1  0.63119694  0.13227332  0.37613890  1
  O  O445  1  0.63013396  0.13247954  0.88024092  1
  O  O446  1  0.63551222  0.62620865  0.38099486  1
  O  O447  1  0.63174784  0.62595442  0.88277247  1
