# generated using pymatgen
data_V3Zn3O8
_symmetry_space_group_name_H-M   'P 1'
_cell_length_a   17.09076549
_cell_length_b   17.09104498
_cell_length_c   17.09109376
_cell_angle_alpha   89.99099029
_cell_angle_beta   89.98126684
_cell_angle_gamma   89.98253173
_symmetry_Int_Tables_number   1
_chemical_formula_structural   V3Zn3O8
_chemical_formula_sum   'V96 Zn96 O256'
_cell_volume   4992.29155057
_cell_formula_units_Z   32
loop_
 _symmetry_equiv_pos_site_id
 _symmetry_equiv_pos_as_xyz
  1  'x, y, z'
loop_
 _atom_site_type_symbol
 _atom_site_label
 _atom_site_symmetry_multiplicity
 _atom_site_fract_x
 _atom_site_fract_y
 _atom_site_fract_z
 _atom_site_occupancy
  V  V0  1  0.12436729  0.50005857  0.12574340  1
  V  V1  1  0.37384724  0.00019500  0.37297798  1
  V  V2  1  0.24926936  0.12725362  0.87391420  1
  V  V3  1  0.37412508  0.37500416  -0.00008598  1
  V  V4  1  0.00082029  0.62446605  0.62542022  1
  V  V5  1  0.00041229  -0.00057803  0.50012061  1
  V  V6  1  0.74858213  0.74951084  -0.00013069  1
  V  V7  1  0.75012429  0.87453281  0.12557119  1
  V  V8  1  0.74897244  0.49770759  0.24817667  1
  V  V9  1  0.87566690  0.62505824  0.75115177  1
  V  V10  1  0.24977304  0.87553605  0.12372109  1
  V  V11  1  0.25031878  0.62523115  0.87501503  1
  V  V12  1  0.12482360  0.37507364  0.25058386  1
  V  V13  1  0.75016258  0.12414662  0.37450846  1
  V  V14  1  0.37592051  0.62564516  0.75015424  1
  V  V15  1  -0.00065461  0.25095635  0.75011892  1
  V  V16  1  0.62423746  -0.00173561  0.62500259  1
  V  V17  1  0.25015118  0.87524623  0.62543929  1
  V  V18  1  0.37588461  0.37482809  0.50021010  1
  V  V19  1  0.12401872  0.00025006  0.62381983  1
  V  V20  1  0.49758756  -0.00025028  -0.00099679  1
  V  V21  1  0.75142669  0.74972156  0.50080681  1
  V  V22  1  0.12515792  0.62523265  0.00069138  1
  V  V23  1  0.37496500  0.50001250  0.87529579  1
  V  V24  1  0.50032216  0.87426784  0.37475545  1
  V  V25  1  0.25035921  0.49909693  0.74949449  1
  V  V26  1  0.62510499  0.87411183  0.25118589  1
  V  V27  1  0.87589928  0.50067464  0.37599753  1
  V  V28  1  0.50275172  0.50204394  0.00247891  1
  V  V29  1  0.12633990  0.24970057  0.37648704  1
  V  V30  1  0.74978831  0.24898418  0.49898021  1
  V  V31  1  0.62494955  0.74899035  0.87536597  1
  V  V32  1  0.12539749  0.87541785  0.75043600  1
  V  V33  1  0.25023850  0.37613925  0.62623133  1
  V  V34  1  0.12446401  0.00170949  0.12362664  1
  V  V35  1  0.12344490  0.12561408  -0.00128599  1
  V  V36  1  0.62561153  0.49923080  0.62443067  1
  V  V37  1  0.87438788  0.87483425  -0.00063561  1
  V  V38  1  0.62394777  0.12359604  0.49903525  1
  V  V39  1  0.37584124  0.74880963  0.12626998  1
  V  V40  1  0.49841381  0.12448971  0.62442323  1
  V  V41  1  0.24969157  0.24987833  0.49962411  1
  V  V42  1  0.37592070  0.74990289  0.62619889  1
  V  V43  1  0.74896792  0.37417638  0.62473381  1
  V  V44  1  0.00097172  0.50011771  0.50171416  1
  V  V45  1  0.75105522  0.62588413  0.37654483  1
  V  V46  1  0.12556263  0.75068885  0.87557024  1
  V  V47  1  0.49991059  0.74982330  0.25034966  1
  V  V48  1  0.75110987  -0.00032418  0.25016523  1
  V  V49  1  0.62422466  0.37328955  0.75006260  1
  V  V50  1  0.87439795  0.24796282  0.62510582  1
  V  V51  1  0.25028840  0.74984854  0.49964523  1
  V  V52  1  0.12429778  0.87496579  0.24911272  1
  V  V53  1  0.87609647  0.87454493  0.50021985  1
  V  V54  1  0.12709431  0.62561471  0.50020659  1
  V  V55  1  0.49968712  0.87533576  0.87578132  1
  V  V56  1  0.50139183  0.37476646  0.37433350  1
  V  V57  1  0.00032644  0.62499253  0.12574464  1
  V  V58  1  0.62434055  0.25008269  0.37342799  1
  V  V59  1  0.00162445  0.75153432  0.25012923  1
  V  V60  1  0.37465763  0.50070119  0.37505641  1
  V  V61  1  -0.00107681  0.49955768  -0.00045342  1
  V  V62  1  0.12511733  0.12449812  0.50022799  1
  V  V63  1  0.87473529  0.75032206  0.12505553  1
  V  V64  1  0.87555475  0.75045177  0.62485388  1
  V  V65  1  0.50017949  0.37388137  0.87421858  1
  V  V66  1  0.62465500  -0.00023541  0.12557660  1
  V  V67  1  0.25063020  0.75105987  0.00066225  1
  V  V68  1  0.37472360  0.87461119  0.49999576  1
  V  V69  1  0.24947810  0.00085823  0.74962381  1
  V  V70  1  0.00079114  0.37482525  0.37627071  1
  V  V71  1  0.49966961  0.74942961  0.75081276  1
  V  V72  1  0.62667430  0.62501166  0.50137750  1
  V  V73  1  0.25087632  0.50097836  0.25193664  1
  V  V74  1  -0.00070900  0.24806156  0.24744601  1
  V  V75  1  0.87278061  -0.00098053  0.87293034  1
  V  V76  1  0.87644316  -0.00126834  0.37591724  1
  V  V77  1  0.37552885  0.24916737  0.62447215  1
  V  V78  1  0.00069473  0.74966450  0.75046891  1
  V  V79  1  0.37428066  0.25092772  0.12447706  1
  V  V80  1  0.62484783  0.87511819  0.74887184  1
  V  V81  1  0.87550647  0.49703534  0.87684248  1
  V  V82  1  0.24948642  0.37504205  0.12406929  1
  V  V83  1  0.49847739  0.12615855  0.12542718  1
  V  V84  1  0.87572676  0.62561938  0.25083929  1
  V  V85  1  0.74825273  0.12450235  0.87369477  1
  V  V86  1  0.37448072  0.12486369  0.74899980  1
  V  V87  1  0.87516102  0.37427171  0.50060874  1
  V  V88  1  0.25052220  0.00127894  0.24944754  1
  V  V89  1  0.50142125  0.50030675  0.50007050  1
  V  V90  1  0.87641710  0.12474476  0.24939174  1
  V  V91  1  0.49966490  0.25048125  0.24975527  1
  V  V92  1  -0.00096747  0.87526651  0.87528225  1
  V  V93  1  0.49887373  -0.00088359  0.49879051  1
  V  V94  1  0.62539491  0.12991622  -0.00072991  1
  V  V95  1  0.75000685  0.62583793  0.87534387  1
  Zn  Zn96  1  0.75601162  0.25310661  0.00004228  1
  Zn  Zn97  1  0.62422839  0.62506905  0.00232773  1
  Zn  Zn98  1  0.37452822  -0.00050545  0.87389787  1
  Zn  Zn99  1  0.50142000  0.62480427  0.62552240  1
  Zn  Zn100  1  0.12476275  0.37546221  0.75098162  1
  Zn  Zn101  1  0.24760247  0.25239354  -0.00152763  1
  Zn  Zn102  1  -0.00279633  0.12366783  0.62638326  1
  Zn  Zn103  1  0.74867542  -0.00168271  0.74671348  1
  Zn  Zn104  1  0.49995971  0.24756362  0.75124401  1
  Zn  Zn105  1  0.74983472  0.87562332  0.62553045  1
  Zn  Zn106  1  0.25173489  0.62698903  0.37430581  1
  Zn  Zn107  1  0.62469181  0.50187846  0.12719306  1
  Zn  Zn108  1  0.00257888  0.37468795  0.87548871  1
  Zn  Zn109  1  0.62555625  0.25078947  0.87417972  1
  Zn  Zn110  1  -0.00067166  -0.00005316  -0.00007939  1
  Zn  Zn111  1  0.12187368  0.25268222  0.87412540  1
  Zn  Zn112  1  0.75082901  0.50036556  0.75032372  1
  Zn  Zn113  1  -0.00310995  0.12491154  0.12090283  1
  Zn  Zn114  1  0.87670752  0.36953749  0.00458320  1
  Zn  Zn115  1  0.00271735  0.87400041  0.37468719  1
  Zn  Zn116  1  0.62535316  0.75013865  0.37653445  1
  Zn  Zn117  1  0.37447140  0.87548449  -0.00120301  1
  Zn  Zn118  1  0.12539183  0.49827332  0.62750278  1
  Zn  Zn119  1  0.37536829  0.62517117  0.25327956  1
  Zn  Zn120  1  0.12676800  0.75130771  0.37357522  1
  Zn  Zn121  1  0.62583016  0.37627745  0.24717609  1
  Zn  Zn122  1  0.74747978  0.37285865  0.11862315  1
  Zn  Zn123  1  0.50184617  0.62409957  0.12793806  1
  Zn  Zn124  1  0.37327180  0.12571670  0.25003937  1
  Zn  Zn125  1  0.25137176  0.12555219  0.37337197  1
  Zn  Zn126  1  0.86933274  0.25038582  0.12458821  1
  Zn  Zn127  1  0.87256263  0.12403875  0.74796178  1
  Zn  Zn128  1  0.18813001  0.18721535  0.18642047  1
  Zn  Zn129  1  0.18496332  0.18856456  0.68597606  1
  Zn  Zn130  1  0.18888776  0.68677144  0.18873457  1
  Zn  Zn131  1  0.18857236  0.68693167  0.68706870  1
  Zn  Zn132  1  0.68774412  0.18900979  0.18676360  1
  Zn  Zn133  1  0.68634302  0.18595822  0.68707838  1
  Zn  Zn134  1  0.68494770  0.68479920  0.18709913  1
  Zn  Zn135  1  0.68881175  0.68747863  0.68772591  1
  Zn  Zn136  1  0.31345604  0.31345397  0.31210955  1
  Zn  Zn137  1  0.31355724  0.31200798  0.81113238  1
  Zn  Zn138  1  0.31103698  0.81367181  0.31216057  1
  Zn  Zn139  1  0.31418517  0.81388004  0.81416378  1
  Zn  Zn140  1  0.81399272  0.31272236  0.31255388  1
  Zn  Zn141  1  0.81202243  0.31138887  0.81290394  1
  Zn  Zn142  1  0.81393980  0.81248826  0.31424320  1
  Zn  Zn143  1  0.81027460  0.81244766  0.81096052  1
  Zn  Zn144  1  0.18829063  0.43793586  0.43870171  1
  Zn  Zn145  1  0.18537413  0.43653691  0.93548654  1
  Zn  Zn146  1  0.18736580  0.93685591  0.43505863  1
  Zn  Zn147  1  0.18790271  0.93947539  0.93752808  1
  Zn  Zn148  1  0.68766892  0.43751529  0.43564079  1
  Zn  Zn149  1  0.68938671  0.43666691  0.93733706  1
  Zn  Zn150  1  0.68871742  0.93594457  0.43821590  1
  Zn  Zn151  1  0.68587588  0.93730790  0.93739832  1
  Zn  Zn152  1  0.31110057  0.06518924  0.06256903  1
  Zn  Zn153  1  0.31106452  0.06276699  0.56116565  1
  Zn  Zn154  1  0.31303848  0.56262226  0.06347120  1
  Zn  Zn155  1  0.31395234  0.56259544  0.56357347  1
  Zn  Zn156  1  0.81306692  0.06396007  0.06244949  1
  Zn  Zn157  1  0.81157251  0.06108957  0.56286014  1
  Zn  Zn158  1  0.81213164  0.56307292  0.06244172  1
  Zn  Zn159  1  0.81280981  0.56217025  0.56431298  1
  Zn  Zn160  1  0.43652557  0.43642600  0.18824470  1
  Zn  Zn161  1  0.43825128  0.43784035  0.68683996  1
  Zn  Zn162  1  0.43648811  0.93588856  0.18723752  1
  Zn  Zn163  1  0.43763675  0.93791407  0.68843025  1
  Zn  Zn164  1  0.93435705  0.43546315  0.18628756  1
  Zn  Zn165  1  0.93713147  0.43672795  0.68847049  1
  Zn  Zn166  1  0.93965682  0.93898045  0.18626230  1
  Zn  Zn167  1  0.93733646  0.93678429  0.68684485  1
  Zn  Zn168  1  0.06402352  0.06246383  0.31399372  1
  Zn  Zn169  1  0.05964499  0.06469836  0.81099769  1
  Zn  Zn170  1  0.06390435  0.56391335  0.31454104  1
  Zn  Zn171  1  0.06378194  0.56147472  0.81265505  1
  Zn  Zn172  1  0.56092736  0.06274496  0.31135997  1
  Zn  Zn173  1  0.56203861  0.06151654  0.81145510  1
  Zn  Zn174  1  0.56304220  0.56576707  0.31410825  1
  Zn  Zn175  1  0.56316403  0.56138620  0.81308161  1
  Zn  Zn176  1  0.43627090  0.18666110  0.43551488  1
  Zn  Zn177  1  0.43632363  0.18959049  0.93651964  1
  Zn  Zn178  1  0.43851096  0.68605164  0.43763457  1
  Zn  Zn179  1  0.43709940  0.68739892  0.93847752  1
  Zn  Zn180  1  0.93893253  0.18572267  0.43747440  1
  Zn  Zn181  1  0.93651693  0.18732843  0.93580319  1
  Zn  Zn182  1  0.94008046  0.68894891  0.43636112  1
  Zn  Zn183  1  0.93707808  0.68659222  0.93797501  1
  Zn  Zn184  1  0.06140150  0.31309393  0.06033666  1
  Zn  Zn185  1  0.06346745  0.31202378  0.56636791  1
  Zn  Zn186  1  0.06183292  0.81372050  0.06273448  1
  Zn  Zn187  1  0.06231608  0.81257714  0.56202760  1
  Zn  Zn188  1  0.56404004  0.31731146  0.06679697  1
  Zn  Zn189  1  0.56195700  0.31089291  0.56209289  1
  Zn  Zn190  1  0.56252390  0.81251786  0.06292357  1
  Zn  Zn191  1  0.56281571  0.81130564  0.56304568  1
  O  O192  1  0.12546137  0.12009100  0.11376398  1
  O  O193  1  0.12397972  0.11671574  0.61751352  1
  O  O194  1  0.11998031  0.61957582  0.11997162  1
  O  O195  1  0.11947809  0.62434199  0.61593933  1
  O  O196  1  0.61900593  0.11853353  0.11716831  1
  O  O197  1  0.61835391  0.11925363  0.61788089  1
  O  O198  1  0.61978410  0.62038604  0.11974261  1
  O  O199  1  0.62510764  0.61733118  0.61960467  1
  O  O200  1  0.38174245  0.38009952  0.38173350  1
  O  O201  1  0.37969767  0.38064226  0.87984040  1
  O  O202  1  0.38066979  0.88050684  0.38105046  1
  O  O203  1  0.38286156  0.87894352  0.87879309  1
  O  O204  1  0.88156551  0.38033603  0.38200035  1
  O  O205  1  0.87602924  0.38979980  0.87362764  1
  O  O206  1  0.87728486  0.88195349  0.38179528  1
  O  O207  1  0.87818157  0.88064247  0.87950021  1
  O  O208  1  0.25696978  -0.00017341  0.36765168  1
  O  O209  1  0.25090480  0.01051400  0.86833521  1
  O  O210  1  0.25709304  0.49878016  0.36924025  1
  O  O211  1  0.25643197  0.50668246  0.87069747  1
  O  O212  1  0.75564342  0.00513067  0.36978474  1
  O  O213  1  0.75661995  0.00605926  0.87433378  1
  O  O214  1  0.75764151  0.50651354  0.37009305  1
  O  O215  1  0.75979794  0.50809932  0.87352591  1
  O  O216  1  0.24386165  0.49490156  0.13060432  1
  O  O217  1  0.25180990  0.49347864  0.63198711  1
  O  O218  1  0.24497795  0.99496798  0.12889831  1
  O  O219  1  0.24414625  0.99386552  0.62982662  1
  O  O220  1  0.75142757  0.50287745  0.13962431  1
  O  O221  1  0.74432160  0.49164104  0.62632008  1
  O  O222  1  0.74461266  0.99404592  0.13038180  1
  O  O223  1  0.73984005  0.99732218  0.62570788  1
  O  O224  1  0.00524517  0.36786792  0.25692662  1
  O  O225  1  0.00054754  0.36390455  0.74994696  1
  O  O226  1  0.00679369  0.86854592  0.24838948  1
  O  O227  1  0.00611627  0.86885322  0.75560088  1
  O  O228  1  0.50095447  0.36861039  0.25769747  1
  O  O229  1  0.50878544  0.37454500  0.75480662  1
  O  O230  1  0.50597431  0.87028838  0.25506157  1
  O  O231  1  0.50442773  0.86919905  0.75622008  1
  O  O232  1  0.49840576  0.13137276  0.24221810  1
  O  O233  1  0.49308377  0.12465423  0.74242416  1
  O  O234  1  0.49634963  0.63446955  0.24925683  1
  O  O235  1  0.49362253  0.63128074  0.74994786  1
  O  O236  1  0.99575654  0.13459020  0.25201159  1
  O  O237  1  0.99447373  0.13506653  0.74704760  1
  O  O238  1  0.99554624  0.62993080  0.24465400  1
  O  O239  1  0.99628395  0.63140567  0.74538690  1
  O  O240  1  0.37284269  0.25767254  0.00642087  1
  O  O241  1  0.37000802  0.25528568  0.50451710  1
  O  O242  1  0.36895367  0.75154650  0.00884834  1
  O  O243  1  0.37088661  0.75577071  0.50644300  1
  O  O244  1  0.87553046  0.24973782  0.00517488  1
  O  O245  1  0.86934414  0.25495553  0.50365425  1
  O  O246  1  0.86907761  0.75530291  0.00564607  1
  O  O247  1  0.87206205  0.75412295  0.50577557  1
  O  O248  1  0.12977376  0.24534782  0.49570400  1
  O  O249  1  0.12643655  0.23867143  0.99747346  1
  O  O250  1  0.13098295  0.74119058  0.50111166  1
  O  O251  1  0.13037908  0.74487491  0.99521200  1
  O  O252  1  0.63007010  0.24299062  0.49391894  1
  O  O253  1  0.62119762  0.23573226  0.99893252  1
  O  O254  1  0.63257449  0.74355137  0.49997187  1
  O  O255  1  0.63093643  0.75052513  0.99280817  1
  O  O256  1  0.49431673  0.24596256  0.12999054  1
  O  O257  1  0.49291544  0.24172328  0.62416500  1
  O  O258  1  0.49042236  0.75216170  0.13074247  1
  O  O259  1  0.49297382  0.74913163  0.63288145  1
  O  O260  1  1.00286051  0.24860392  0.14068693  1
  O  O261  1  0.99168256  0.24846360  0.63193528  1
  O  O262  1  0.99401753  0.74439162  0.12943285  1
  O  O263  1  0.99534403  0.74456283  0.63144873  1
  O  O264  1  0.00594735  0.25558306  0.36795432  1
  O  O265  1  -0.00203552  0.25149640  0.86178046  1
  O  O266  1  0.00322048  0.75244782  0.36509761  1
  O  O267  1  0.00597534  0.75486651  0.87007042  1
  O  O268  1  0.50485791  0.25473621  0.37036059  1
  O  O269  1  0.50304321  0.25821586  0.87157302  1
  O  O270  1  0.50059820  0.75757381  0.36898051  1
  O  O271  1  0.50471635  0.75531837  0.87063911  1
  O  O272  1  0.24326617  0.13229498  0.49840075  1
  O  O273  1  0.24174012  0.12557560  0.98998025  1
  O  O274  1  0.24143835  0.63070616  0.50209125  1
  O  O275  1  0.24441784  0.63048288  0.99486874  1
  O  O276  1  0.74351632  0.12946496  0.49337105  1
  O  O277  1  0.73866526  0.12104221  0.99112110  1
  O  O278  1  0.74705281  0.62977087  0.49573379  1
  O  O279  1  0.74937286  0.63296182  0.99326776  1
  O  O280  1  0.25576279  0.37556196  0.00614588  1
  O  O281  1  0.25672187  0.36959574  0.50580789  1
  O  O282  1  0.25077106  0.86894617  0.00545678  1
  O  O283  1  0.25526989  0.87030967  0.50656105  1
  O  O284  1  0.75604523  0.37170394  -0.00109433  1
  O  O285  1  0.75529467  0.36826946  0.50391636  1
  O  O286  1  0.75422770  0.86967751  0.00597037  1
  O  O287  1  0.75780006  0.86774315  0.50149999  1
  O  O288  1  0.12883930  0.49426702  0.24556256  1
  O  O289  1  0.13509186  0.49982707  0.74782322  1
  O  O290  1  0.13030149  0.99562461  0.24341214  1
  O  O291  1  0.12943775  0.99439705  0.74460263  1
  O  O292  1  0.63795447  0.50126483  0.25355554  1
  O  O293  1  0.62623868  0.48936148  0.74417602  1
  O  O294  1  0.63095949  0.99482589  0.24473287  1
  O  O295  1  0.62302493  0.99240112  0.74254433  1
  O  O296  1  0.36866174  -0.00031623  0.25503497  1
  O  O297  1  0.36710217  0.00700983  0.74980566  1
  O  O298  1  0.36849674  0.49990363  0.25707598  1
  O  O299  1  0.37116096  0.50588284  0.75610169  1
  O  O300  1  0.86998962  0.00405582  0.25568658  1
  O  O301  1  0.87184420  -0.00126333  0.76173464  1
  O  O302  1  0.86996061  0.50685124  0.25742410  1
  O  O303  1  0.87481579  0.50731010  0.75912845  1
  O  O304  1  0.11950337  0.37000217  0.37065477  1
  O  O305  1  0.12170451  0.37064630  0.86984129  1
  O  O306  1  0.12340671  0.87240468  0.36482637  1
  O  O307  1  0.12018217  0.87024884  0.86972991  1
  O  O308  1  0.61858090  0.36718708  0.37457420  1
  O  O309  1  0.61989619  0.37432834  0.86450574  1
  O  O310  1  0.61847779  0.87439882  0.36887669  1
  O  O311  1  0.61914806  0.86901244  0.86956620  1
  O  O312  1  0.38151719  0.13286456  0.12463856  1
  O  O313  1  0.37898948  0.12934356  0.62869671  1
  O  O314  1  0.37512395  0.63904513  0.12711558  1
  O  O315  1  0.37709263  0.63232185  0.63232968  1
  O  O316  1  0.87809859  0.12526205  0.13478820  1
  O  O317  1  0.87451734  0.13263218  0.62673411  1
  O  O318  1  0.88114785  0.63134400  0.13095011  1
  O  O319  1  0.88160854  0.63023067  0.63087205  1
  O  O320  1  0.25548810  0.25815419  0.12347333  1
  O  O321  1  0.25632034  0.25533512  0.61904307  1
  O  O322  1  0.25675190  0.75543894  0.12026518  1
  O  O323  1  0.25625690  0.75663172  0.62084202  1
  O  O324  1  0.75068352  0.25183101  0.12012493  1
  O  O325  1  0.75355521  0.25446383  0.61791502  1
  O  O326  1  0.75562758  0.75541011  0.12070722  1
  O  O327  1  0.75876410  0.75026952  0.61848359  1
  O  O328  1  0.24384580  0.25116305  0.38190225  1
  O  O329  1  0.24825961  0.23688662  0.87417613  1
  O  O330  1  0.24877099  0.74844424  0.38443394  1
  O  O331  1  0.24483828  0.74520590  0.88028012  1
  O  O332  1  0.74523249  0.24360793  0.37974457  1
  O  O333  1  0.74777580  0.23587972  0.87703674  1
  O  O334  1  0.75054125  0.74305717  0.38236792  1
  O  O335  1  0.74487463  0.74556500  0.88085154  1
  O  O336  1  0.01222246  0.12187992  -0.00193202  1
  O  O337  1  0.00710226  0.11770867  0.50199190  1
  O  O338  1  0.00634280  0.62132980  0.00665938  1
  O  O339  1  0.00772598  0.62072289  0.50562669  1
  O  O340  1  0.50663898  0.11744886  0.00363863  1
  O  O341  1  0.50462075  0.11841245  0.50384251  1
  O  O342  1  0.49931236  0.61294363  -0.00013806  1
  O  O343  1  0.50814532  0.61828835  0.50216173  1
  O  O344  1  0.49537519  0.37992284  0.49440895  1
  O  O345  1  0.49414080  0.38316667  0.99422324  1
  O  O346  1  0.49399002  0.87970174  0.49497458  1
  O  O347  1  0.50146061  0.88603969  0.99527307  1
  O  O348  1  0.99507723  0.37959529  0.49582880  1
  O  O349  1  0.99800065  0.38550005  0.99724562  1
  O  O350  1  0.99426456  0.88116824  0.49858248  1
  O  O351  1  0.99269500  0.87527824  0.99244690  1
  O  O352  1  0.49541393  0.49432499  0.38103336  1
  O  O353  1  0.49367402  0.49400882  0.88185916  1
  O  O354  1  0.49455281  0.99383090  0.37967514  1
  O  O355  1  0.49963805  0.99523591  0.88488109  1
  O  O356  1  0.99525300  0.49465618  0.38114564  1
  O  O357  1  0.99063370  0.50341619  0.88110935  1
  O  O358  1  0.99363493  0.99831280  0.38181121  1
  O  O359  1  0.98923563  0.99341560  0.87464282  1
  O  O360  1  0.00867512  0.00359918  0.12062834  1
  O  O361  1  0.00685772  0.00013482  0.61891069  1
  O  O362  1  0.00531749  0.50640564  0.12114806  1
  O  O363  1  0.00040141  0.50680157  0.61886318  1
  O  O364  1  0.50506484  0.00424423  0.11786715  1
  O  O365  1  0.50354046  0.00498011  0.61748082  1
  O  O366  1  0.49661492  0.50115536  0.11326246  1
  O  O367  1  0.50740778  0.50065323  0.61750767  1
  O  O368  1  0.24354109  0.38057591  0.24419751  1
  O  O369  1  0.25266166  0.38200393  0.74309841  1
  O  O370  1  0.24404012  0.88105316  0.24230718  1
  O  O371  1  0.24461274  0.88017141  0.74561474  1
  O  O372  1  0.75031724  0.38942913  0.25556619  1
  O  O373  1  0.74000665  0.37541925  0.74389072  1
  O  O374  1  0.74574007  0.88018713  0.24504627  1
  O  O375  1  0.74000001  0.87619969  0.74711496  1
  O  O376  1  0.25201640  0.11692488  0.25148098  1
  O  O377  1  0.25332034  0.12025955  0.75579502  1
  O  O378  1  0.25187302  0.61626278  0.25331019  1
  O  O379  1  0.25643604  0.62083769  0.75606921  1
  O  O380  1  0.75502464  0.11823307  0.25604513  1
  O  O381  1  0.74837197  0.12059132  0.76158391  1
  O  O382  1  0.75714866  0.61912599  0.25669338  1
  O  O383  1  0.75790753  0.62454855  0.75704285  1
  O  O384  1  0.37268670  0.11588663  0.37209889  1
  O  O385  1  0.36540515  0.12334682  0.86913824  1
  O  O386  1  0.37226210  0.61551470  0.37552281  1
  O  O387  1  0.36882386  0.62064626  0.86979768  1
  O  O388  1  0.86898108  0.11847944  0.37050069  1
  O  O389  1  0.86428662  0.11362125  0.87526063  1
  O  O390  1  0.87157484  0.61958242  0.37057051  1
  O  O391  1  0.87038735  0.61922098  0.86997907  1
  O  O392  1  0.12917403  0.38115956  0.13069275  1
  O  O393  1  0.13553170  0.37804475  0.62719381  1
  O  O394  1  0.13068699  0.88147919  0.12850522  1
  O  O395  1  0.13083933  0.87958448  0.63116080  1
  O  O396  1  0.62943025  0.38406756  0.13064371  1
  O  O397  1  0.62928557  0.37877193  0.63064105  1
  O  O398  1  0.63091041  0.88032677  0.13101127  1
  O  O399  1  0.62401650  0.88108395  0.63110409  1
  O  O400  1  0.11853431  0.25529187  0.25617490  1
  O  O401  1  0.11235909  0.25058105  0.74947871  1
  O  O402  1  0.11921341  0.75658113  0.24812190  1
  O  O403  1  0.12092269  0.75548717  0.75580036  1
  O  O404  1  0.61781323  0.25023721  0.25751462  1
  O  O405  1  0.62211079  0.26189298  0.74894165  1
  O  O406  1  0.61891520  0.75719466  0.25202868  1
  O  O407  1  0.61885550  0.75470283  0.75551256  1
  O  O408  1  0.38162023  0.24970676  0.24280364  1
  O  O409  1  0.37659790  0.24251077  0.74153976  1
  O  O410  1  0.38032892  0.75182548  0.24100791  1
  O  O411  1  0.37974036  0.74532318  0.74595461  1
  O  O412  1  0.88581560  0.24326613  0.25379939  1
  O  O413  1  0.88091684  0.24904568  0.74266659  1
  O  O414  1  0.88015330  0.74523968  0.24376876  1
  O  O415  1  0.88198224  0.74530193  0.74578875  1
  O  O416  1  0.38128032  0.49371670  0.49594579  1
  O  O417  1  0.38144983  0.49504272  0.99437252  1
  O  O418  1  0.37952719  0.99344675  0.49494766  1
  O  O419  1  0.38836249  1.00060723  1.00030004  1
  O  O420  1  0.88094941  0.49431504  0.49557033  1
  O  O421  1  0.88203307  0.50479386  0.98991134  1
  O  O422  1  0.88028343  0.99468943  0.49531671  1
  O  O423  1  0.87453573  0.99338453  0.98924310  1
  O  O424  1  0.12452529  0.00932857  0.00451663  1
  O  O425  1  0.12075169  0.00355711  0.50488547  1
  O  O426  1  0.11985447  0.50701556  0.00592062  1
  O  O427  1  0.11941308  0.50941614  0.50202682  1
  O  O428  1  0.61584923  0.00749054  0.00516874  1
  O  O429  1  0.61808592  0.00442502  0.50367487  1
  O  O430  1  0.61160314  0.50063794  -0.00234408  1
  O  O431  1  0.62135206  0.50444118  0.50507262  1
  O  O432  1  0.36860626  0.37036025  0.11910735  1
  O  O433  1  0.37108743  0.36919010  0.61886911  1
  O  O434  1  0.36871746  0.86491912  0.12240850  1
  O  O435  1  0.36933926  0.87017338  0.62009410  1
  O  O436  1  0.86862667  0.37061621  0.12399289  1
  O  O437  1  0.86804428  0.36921044  0.61882815  1
  O  O438  1  0.86922261  0.87041040  0.11965177  1
  O  O439  1  0.87434709  0.86762985  0.61867502  1
  O  O440  1  0.12774736  0.13207866  0.38249998  1
  O  O441  1  0.13344443  0.12449159  0.88153037  1
  O  O442  1  0.12734083  0.62736338  0.38885489  1
  O  O443  1  0.13078511  0.63155837  0.88085789  1
  O  O444  1  0.62997776  0.12913117  0.38003492  1
  O  O445  1  0.63147457  0.12348453  0.88283666  1
  O  O446  1  0.63338257  0.62736103  0.38430829  1
  O  O447  1  0.63181630  0.63171146  0.87572077  1
