# generated using pymatgen
data_V3Zn3O8
_symmetry_space_group_name_H-M   'P 1'
_cell_length_a   17.08915693
_cell_length_b   17.08754672
_cell_length_c   17.08830940
_cell_angle_alpha   89.99603728
_cell_angle_beta   90.01072245
_cell_angle_gamma   89.98929494
_symmetry_Int_Tables_number   1
_chemical_formula_structural   V3Zn3O8
_chemical_formula_sum   'V96 Zn96 O256'
_cell_volume   4989.98724452
_cell_formula_units_Z   32
loop_
 _symmetry_equiv_pos_site_id
 _symmetry_equiv_pos_as_xyz
  1  'x, y, z'
loop_
 _atom_site_type_symbol
 _atom_site_label
 _atom_site_symmetry_multiplicity
 _atom_site_fract_x
 _atom_site_fract_y
 _atom_site_fract_z
 _atom_site_occupancy
  V  V0  1  0.25071558  0.37448743  0.12512803  1
  V  V1  1  0.24964154  0.12476874  0.87499511  1
  V  V2  1  0.50019187  0.62395096  0.62582114  1
  V  V3  1  0.37437505  0.24978723  0.62353941  1
  V  V4  1  0.49947898  -0.00048250  0.00029430  1
  V  V5  1  -0.00024436  0.62550246  0.62528232  1
  V  V6  1  -0.00054117  0.87538087  0.37461480  1
  V  V7  1  0.74998583  0.49974572  0.74944277  1
  V  V8  1  0.74906899  0.50014687  0.24929645  1
  V  V9  1  0.87396685  0.00087887  0.87403935  1
  V  V10  1  0.87484685  0.12565345  0.74801755  1
  V  V11  1  0.62588470  0.62544275  0.50025812  1
  V  V12  1  0.24914693  0.62538183  0.37566131  1
  V  V13  1  0.12424562  -0.00053177  0.62444956  1
  V  V14  1  0.87533161  0.25030694  0.12383621  1
  V  V15  1  0.49898602  0.24966541  0.24814285  1
  V  V16  1  0.62485616  -0.00044144  0.62542848  1
  V  V17  1  0.37436303  -0.00101367  0.37446538  1
  V  V18  1  0.12475768  0.87520487  0.25007815  1
  V  V19  1  0.62456137  0.75061382  0.87498770  1
  V  V20  1  0.87539109  0.37532056  -0.00166720  1
  V  V21  1  0.00025804  0.37571545  0.37453708  1
  V  V22  1  0.37492798  -0.00114934  0.87596426  1
  V  V23  1  0.49965503  0.12486201  0.62499455  1
  V  V24  1  0.37452835  0.12412587  0.74991627  1
  V  V25  1  0.25080644  0.74937727  0.00069311  1
  V  V26  1  0.50140271  0.87411846  0.37463911  1
  V  V27  1  0.62508502  0.12562883  -0.00145554  1
  V  V28  1  0.62491640  0.62472619  0.00110820  1
  V  V29  1  0.75030263  0.62508155  0.37604678  1
  V  V30  1  0.37458510  0.62317398  0.25298728  1
  V  V31  1  0.87470242  0.62536947  0.75094836  1
  V  V32  1  0.50243094  0.37351198  0.87431175  1
  V  V33  1  0.87517912  0.49949349  0.87602024  1
  V  V34  1  0.24948812  0.49977397  0.74965591  1
  V  V35  1  0.12556498  0.87518043  0.74944916  1
  V  V36  1  0.12544390  0.50055783  0.62599858  1
  V  V37  1  0.00015226  0.25097221  0.74860084  1
  V  V38  1  0.25084703  0.62440323  0.87569735  1
  V  V39  1  0.50181519  0.62276071  0.12566682  1
  V  V40  1  0.49903184  0.00008538  0.50021649  1
  V  V41  1  0.62458806  0.87566694  0.75054854  1
  V  V42  1  0.37580111  0.49944116  0.87508659  1
  V  V43  1  0.75009940  0.37554860  0.12546781  1
  V  V44  1  0.49766392  0.37641276  0.37631019  1
  V  V45  1  0.74945621  0.62555384  0.87522789  1
  V  V46  1  0.00017896  0.74976273  0.75040527  1
  V  V47  1  0.87391878  0.75125155  0.62539852  1
  V  V48  1  0.12546890  0.62404254  0.00083719  1
  V  V49  1  0.49983333  0.87459855  0.87601503  1
  V  V50  1  0.12590504  0.12556164  -0.00125753  1
  V  V51  1  0.62547594  0.49942988  0.62549013  1
  V  V52  1  0.12624527  0.24988701  0.87373046  1
  V  V53  1  0.75015121  0.00103451  0.25002721  1
  V  V54  1  0.12580290  0.37550942  0.75005832  1
  V  V55  1  0.25029378  0.25091441  0.50030124  1
  V  V56  1  0.37406058  0.75027973  0.12528519  1
  V  V57  1  0.62493651  0.12515269  0.49952977  1
  V  V58  1  0.49942071  0.49966315  0.49987389  1
  V  V59  1  0.62456798  0.87506159  0.25112566  1
  V  V60  1  0.87517808  0.75071825  0.12443228  1
  V  V61  1  0.12514909  0.37491310  0.24884062  1
  V  V62  1  0.87501812  0.37435208  0.50012305  1
  V  V63  1  0.12497763  0.62611614  0.49946972  1
  V  V64  1  0.75076172  0.37332542  0.62366956  1
  V  V65  1  0.74902476  0.87522678  0.62523626  1
  V  V66  1  0.62633580  0.24874560  0.37553248  1
  V  V67  1  -0.00075762  0.62581008  0.12546706  1
  V  V68  1  0.62456128  -0.00030049  0.12437303  1
  V  V69  1  0.37559035  0.37368903  0.00091740  1
  V  V70  1  0.00028620  0.50027078  0.50004138  1
  V  V71  1  0.24888942  -0.00086753  0.74966788  1
  V  V72  1  0.00049405  0.12533900  0.12410226  1
  V  V73  1  0.00024683  0.87503892  0.87511470  1
  V  V74  1  0.12531175  -0.00057095  0.12526276  1
  V  V75  1  0.75034548  0.75111987  0.00023198  1
  V  V76  1  -0.00035695  0.00033595  0.49942308  1
  V  V77  1  0.37466774  0.12443853  0.24932139  1
  V  V78  1  -0.00004029  0.25038291  0.24925570  1
  V  V79  1  0.12536009  0.74914611  0.87511326  1
  V  V80  1  0.74972543  0.24920648  -0.00081563  1
  V  V81  1  0.50005777  0.24985179  0.74990374  1
  V  V82  1  0.12357209  0.75029678  0.37490809  1
  V  V83  1  0.75041165  0.87483540  0.12471714  1
  V  V84  1  0.37604354  0.62488060  0.75065928  1
  V  V85  1  0.87482629  0.00036155  0.37444007  1
  V  V86  1  0.37484238  0.75053406  0.62490369  1
  V  V87  1  0.12483260  0.24999840  0.37528913  1
  V  V88  1  0.00066127  0.00039483  -0.00093720  1
  V  V89  1  0.24970942  -0.00059785  0.24946121  1
  V  V90  1  0.37445360  0.87495458  0.50063319  1
  V  V91  1  0.12411231  0.12459808  0.49971661  1
  V  V92  1  0.87473292  0.50058288  0.37495325  1
  V  V93  1  0.87412089  0.12490234  0.24931733  1
  V  V94  1  0.75006800  0.74982686  0.50044725  1
  V  V95  1  0.12448117  0.49974904  0.12463242  1
  Zn  Zn96  1  0.50349462  0.49832818  0.00029738  1
  Zn  Zn97  1  0.50028291  0.74945495  0.75159481  1
  Zn  Zn98  1  0.75063205  0.12507070  0.37600166  1
  Zn  Zn99  1  0.74917833  0.12656496  0.87318129  1
  Zn  Zn100  1  -0.00193042  0.75087656  0.25019476  1
  Zn  Zn101  1  0.49864967  0.12473429  0.12379053  1
  Zn  Zn102  1  0.87503835  0.62758090  0.25073669  1
  Zn  Zn103  1  0.37217064  0.50013184  0.37804648  1
  Zn  Zn104  1  0.00009363  0.49811353  -0.00157990  1
  Zn  Zn105  1  0.24952281  0.87451697  0.62391632  1
  Zn  Zn106  1  0.50276138  0.74913987  0.25286679  1
  Zn  Zn107  1  -0.00080041  0.12484344  0.62315422  1
  Zn  Zn108  1  0.87486836  0.87615055  -0.00033131  1
  Zn  Zn109  1  0.00113473  0.37747534  0.87626516  1
  Zn  Zn110  1  0.24948400  0.87448400  0.12419493  1
  Zn  Zn111  1  0.24845562  0.75170274  0.50034278  1
  Zn  Zn112  1  0.37405732  0.87528503  0.00093756  1
  Zn  Zn113  1  0.37459678  0.24914766  0.12417784  1
  Zn  Zn114  1  0.62549521  0.75018550  0.37453145  1
  Zn  Zn115  1  0.25011034  0.24929302  -0.00061083  1
  Zn  Zn116  1  0.24898151  0.12475140  0.37446420  1
  Zn  Zn117  1  0.25167706  0.37646407  0.62475799  1
  Zn  Zn118  1  0.74910284  0.00186832  0.74959276  1
  Zn  Zn119  1  0.62436588  0.37466416  0.24805128  1
  Zn  Zn120  1  0.75255363  0.24798512  0.49925701  1
  Zn  Zn121  1  0.62739124  0.24915550  0.87273868  1
  Zn  Zn122  1  0.87389632  0.87651438  0.49999222  1
  Zn  Zn123  1  0.62618227  0.37252363  0.75002000  1
  Zn  Zn124  1  0.24947442  0.49884931  0.25324650  1
  Zn  Zn125  1  0.87533412  0.24838598  0.62211261  1
  Zn  Zn126  1  0.62562343  0.49803334  0.12445419  1
  Zn  Zn127  1  0.37350181  0.37738724  0.50214155  1
  Zn  Zn128  1  0.18831332  0.18788855  0.18662802  1
  Zn  Zn129  1  0.18695776  0.18589541  0.68563110  1
  Zn  Zn130  1  0.18731436  0.68789771  0.19007510  1
  Zn  Zn131  1  0.18895663  0.68717733  0.68746928  1
  Zn  Zn132  1  0.68720232  0.18677234  0.18609632  1
  Zn  Zn133  1  0.68708109  0.18810246  0.68754918  1
  Zn  Zn134  1  0.68820299  0.68874964  0.18925183  1
  Zn  Zn135  1  0.68657580  0.68867123  0.68818528  1
  Zn  Zn136  1  0.31209268  0.31186218  0.31357343  1
  Zn  Zn137  1  0.31243523  0.31203615  0.81147056  1
  Zn  Zn138  1  0.31085361  0.81154134  0.31290799  1
  Zn  Zn139  1  0.31274458  0.81277523  0.81211652  1
  Zn  Zn140  1  0.81310574  0.31402555  0.31133142  1
  Zn  Zn141  1  0.81245509  0.31242881  0.81333591  1
  Zn  Zn142  1  0.81279828  0.81250432  0.31183828  1
  Zn  Zn143  1  0.81121476  0.81423892  0.81163793  1
  Zn  Zn144  1  0.18737225  0.43858044  0.43727561  1
  Zn  Zn145  1  0.18765933  0.43704558  0.93751156  1
  Zn  Zn146  1  0.18849972  0.93681556  0.43707303  1
  Zn  Zn147  1  0.18888856  0.93574434  0.93868716  1
  Zn  Zn148  1  0.68578613  0.43694917  0.43742377  1
  Zn  Zn149  1  0.68812642  0.43860185  0.93945680  1
  Zn  Zn150  1  0.68816601  0.93743903  0.43761567  1
  Zn  Zn151  1  0.68787368  0.93788589  0.93736080  1
  Zn  Zn152  1  0.31173248  0.06213503  0.06297988  1
  Zn  Zn153  1  0.31032713  0.06260346  0.56268406  1
  Zn  Zn154  1  0.31318390  0.56013065  0.06297743  1
  Zn  Zn155  1  0.31248152  0.56349042  0.56139884  1
  Zn  Zn156  1  0.81183178  0.06260976  0.06174447  1
  Zn  Zn157  1  0.81091618  0.06246925  0.56138219  1
  Zn  Zn158  1  0.81339490  0.56272139  0.06213900  1
  Zn  Zn159  1  0.81302851  0.56206055  0.56266062  1
  Zn  Zn160  1  0.43701324  0.43847674  0.18943289  1
  Zn  Zn161  1  0.43631058  0.43620211  0.68707602  1
  Zn  Zn162  1  0.43957313  0.93683931  0.18794396  1
  Zn  Zn163  1  0.43837501  0.93643795  0.68902436  1
  Zn  Zn164  1  0.93646440  0.43899063  0.18616589  1
  Zn  Zn165  1  0.93707253  0.43716793  0.68830986  1
  Zn  Zn166  1  0.93758212  0.93689271  0.18772467  1
  Zn  Zn167  1  0.93835323  0.93738818  0.68644030  1
  Zn  Zn168  1  0.06221753  0.06284386  0.31300159  1
  Zn  Zn169  1  0.06160854  0.06338306  0.81143253  1
  Zn  Zn170  1  0.06336484  0.56249566  0.31068867  1
  Zn  Zn171  1  0.06184970  0.56198884  0.81336417  1
  Zn  Zn172  1  0.56173211  0.06194938  0.31261882  1
  Zn  Zn173  1  0.56118859  0.06129025  0.81277124  1
  Zn  Zn174  1  0.56413094  0.56262302  0.31314014  1
  Zn  Zn175  1  0.56324178  0.56052327  0.81216413  1
  Zn  Zn176  1  0.43679155  0.18685616  0.43650727  1
  Zn  Zn177  1  0.43782339  0.18768124  0.93692622  1
  Zn  Zn178  1  0.43880684  0.68909833  0.43858598  1
  Zn  Zn179  1  0.43899250  0.68754650  0.93960072  1
  Zn  Zn180  1  0.93730421  0.18702505  0.43680443  1
  Zn  Zn181  1  0.93859911  0.18836239  0.93537796  1
  Zn  Zn182  1  0.93641893  0.68884035  0.43775051  1
  Zn  Zn183  1  0.93696160  0.68721781  0.93971182  1
  Zn  Zn184  1  0.06229872  0.31251514  0.06010154  1
  Zn  Zn185  1  0.06367772  0.31367117  0.56394103  1
  Zn  Zn186  1  0.06229148  0.81285678  0.06205779  1
  Zn  Zn187  1  0.06130177  0.81411930  0.56148190  1
  Zn  Zn188  1  0.56469613  0.31228361  0.06286048  1
  Zn  Zn189  1  0.56286661  0.31250013  0.56179688  1
  Zn  Zn190  1  0.56183177  0.81191158  0.06299033  1
  Zn  Zn191  1  0.56215344  0.81179098  0.56226359  1
  O  O192  1  0.11961910  0.12010155  0.11961285  1
  O  O193  1  0.12271738  0.11726944  0.61786046  1
  O  O194  1  0.11859878  0.62084082  0.12073055  1
  O  O195  1  0.11870775  0.62071227  0.62075168  1
  O  O196  1  0.62342077  0.11899026  0.11429286  1
  O  O197  1  0.61861499  0.11991468  0.61990533  1
  O  O198  1  0.61552492  0.62649646  0.12096050  1
  O  O199  1  0.62030747  0.61905129  0.62056481  1
  O  O200  1  0.38728675  0.37555414  0.37669021  1
  O  O201  1  0.38210316  0.37861525  0.88211999  1
  O  O202  1  0.38069265  0.87992265  0.37982703  1
  O  O203  1  0.38126956  0.88119294  0.87623014  1
  O  O204  1  0.88126432  0.38063748  0.37987539  1
  O  O205  1  0.87558872  0.38204959  0.88069794  1
  O  O206  1  0.88125897  0.88275850  0.37540961  1
  O  O207  1  0.88134211  0.88529388  0.87374503  1
  O  O208  1  0.25694596  0.00243792  0.36778070  1
  O  O209  1  0.25473190  0.00514850  0.86960405  1
  O  O210  1  0.25212167  0.50817123  0.37302081  1
  O  O211  1  0.25596085  0.50551407  0.86983193  1
  O  O212  1  0.75619220  0.00157137  0.36758509  1
  O  O213  1  0.76276430  0.00182485  0.87305588  1
  O  O214  1  0.75476271  0.50360574  0.36847737  1
  O  O215  1  0.75476387  0.50609540  0.86903173  1
  O  O216  1  0.24461797  0.48883073  0.12667780  1
  O  O217  1  0.24324682  0.50083278  0.63168572  1
  O  O218  1  0.24300184  0.99816435  0.13127795  1
  O  O219  1  0.24313873  0.99851629  0.63243668  1
  O  O220  1  0.75152780  0.49530497  0.13467466  1
  O  O221  1  0.74591521  0.49239825  0.62950320  1
  O  O222  1  0.74482053  0.99460488  0.12975661  1
  O  O223  1  0.74224485  0.99347961  0.62613197  1
  O  O224  1  0.00470476  0.36968150  0.25413356  1
  O  O225  1  0.00563408  0.36630509  0.75133634  1
  O  O226  1  0.00734112  0.87515253  0.25669196  1
  O  O227  1  0.00578812  0.86873169  0.75572911  1
  O  O228  1  0.50003013  0.36672092  0.25824780  1
  O  O229  1  0.49927854  0.36921409  0.75969153  1
  O  O230  1  0.50669918  0.87398982  0.25688196  1
  O  O231  1  0.50694275  0.87348490  0.75804194  1
  O  O232  1  0.49140474  0.13268832  0.24949420  1
  O  O233  1  0.49366717  0.12936901  0.74474857  1
  O  O234  1  0.49270938  0.62618319  0.24342180  1
  O  O235  1  0.49361320  0.62514187  0.74390092  1
  O  O236  1  0.99483310  0.13088556  0.24344046  1
  O  O237  1  0.99221866  0.13390831  0.74854711  1
  O  O238  1  0.99876015  0.62627461  0.23679301  1
  O  O239  1  0.99474907  0.63078745  0.74488411  1
  O  O240  1  0.37375468  0.26159850  0.00207648  1
  O  O241  1  0.36560404  0.24878565  0.50419451  1
  O  O242  1  0.36933745  0.74828218  0.01042863  1
  O  O243  1  0.37451305  0.75531306  0.51036586  1
  O  O244  1  0.87034709  0.25366803  0.00508419  1
  O  O245  1  0.87334356  0.25789485  0.50151522  1
  O  O246  1  0.86783658  0.75294876  0.00552286  1
  O  O247  1  0.86832113  0.75145026  0.50842981  1
  O  O248  1  0.13139708  0.24581005  0.49566689  1
  O  O249  1  0.12589271  0.24298893  0.99228742  1
  O  O250  1  0.12452527  0.74332719  0.49404130  1
  O  O251  1  0.13059874  0.74377325  0.99420099  1
  O  O252  1  0.62369909  0.24394538  0.48958235  1
  O  O253  1  0.62982776  0.23994813  0.99939012  1
  O  O254  1  0.63238406  0.74264146  0.50037859  1
  O  O255  1  0.63083012  0.74448381  0.99467177  1
  O  O256  1  0.49844759  0.24980867  0.13815504  1
  O  O257  1  0.49489283  0.24398410  0.62924536  1
  O  O258  1  0.49094100  0.73906198  0.12593015  1
  O  O259  1  0.49033594  0.74318952  0.62669217  1
  O  O260  1  0.99532378  0.24466672  0.13008631  1
  O  O261  1  0.99882744  0.24883277  0.63723220  1
  O  O262  1  0.99500198  0.74105083  0.12431375  1
  O  O263  1  0.99453109  0.74493363  0.63113937  1
  O  O264  1  0.00500940  0.25676135  0.36860681  1
  O  O265  1  0.00678164  0.25078884  0.86296556  1
  O  O266  1  0.00524695  0.75639433  0.37347607  1
  O  O267  1  0.00534506  0.75386695  0.86995938  1
  O  O268  1  0.50641852  0.25638246  0.36793523  1
  O  O269  1  0.49952444  0.25937945  0.86901893  1
  O  O270  1  0.50355512  0.75860833  0.37407671  1
  O  O271  1  0.50692405  0.75571948  0.87526985  1
  O  O272  1  0.24403482  0.13526798  0.49769185  1
  O  O273  1  0.24394683  0.12655042  0.99339003  1
  O  O274  1  0.24207484  0.62720947  0.49382945  1
  O  O275  1  0.24554200  0.62889719  0.99492953  1
  O  O276  1  0.74102534  0.12853885  0.49671641  1
  O  O277  1  0.74070847  0.13013084  0.99949322  1
  O  O278  1  0.74517058  0.62898893  0.49611105  1
  O  O279  1  0.74495937  0.63140167  0.99450071  1
  O  O280  1  0.25887031  0.37397879  0.00732422  1
  O  O281  1  0.25016124  0.36259732  0.50093925  1
  O  O282  1  0.25324727  0.86572013  0.00354622  1
  O  O283  1  0.25874333  0.87261978  0.50293312  1
  O  O284  1  0.75551075  0.36894694  0.00577466  1
  O  O285  1  0.75555580  0.37564684  0.50861899  1
  O  O286  1  0.75086071  0.86906838  0.00666034  1
  O  O287  1  0.75086967  0.86854498  0.50760920  1
  O  O288  1  0.12622316  0.49192763  0.24260505  1
  O  O289  1  0.13003901  0.49632370  0.74554149  1
  O  O290  1  0.12992819  0.99621330  0.24469935  1
  O  O291  1  0.12888826  0.99478702  0.74553456  1
  O  O292  1  0.63794873  0.49785983  0.24900883  1
  O  O293  1  0.63263825  0.49725678  0.74333024  1
  O  O294  1  0.62997621  0.99630800  0.24400909  1
  O  O295  1  0.62575329  0.99472795  0.74329480  1
  O  O296  1  0.37105332  0.00687783  0.25377828  1
  O  O297  1  0.36979693  0.00534607  0.75548207  1
  O  O298  1  0.37339615  0.51280101  0.25289211  1
  O  O299  1  0.36944809  0.50543819  0.75533653  1
  O  O300  1  0.86999404  0.00621182  0.25377622  1
  O  O301  1  0.87758280  0.00907830  0.75803391  1
  O  O302  1  0.86491335  0.50077446  0.25628768  1
  O  O303  1  0.86946267  0.50667265  0.75485714  1
  O  O304  1  0.11901611  0.37003096  0.36910074  1
  O  O305  1  0.12439442  0.36869691  0.86804604  1
  O  O306  1  0.11911892  0.87047304  0.36980787  1
  O  O307  1  0.11970234  0.86867956  0.86952759  1
  O  O308  1  0.61454130  0.36585924  0.37364950  1
  O  O309  1  0.61268391  0.37428087  0.87550114  1
  O  O310  1  0.61870956  0.87584225  0.36890014  1
  O  O311  1  0.62015995  0.87056181  0.87059585  1
  O  O312  1  0.37649166  0.12743552  0.13682783  1
  O  O313  1  0.38062889  0.12914907  0.63051227  1
  O  O314  1  0.38138454  0.63018775  0.13204974  1
  O  O315  1  0.38027911  0.63200334  0.63027899  1
  O  O316  1  0.88115458  0.13049113  0.12910519  1
  O  O317  1  0.87683857  0.12609808  0.63597444  1
  O  O318  1  0.88451377  0.63098283  0.12407644  1
  O  O319  1  0.88022910  0.63022866  0.63138851  1
  O  O320  1  0.25161559  0.26290678  0.12278558  1
  O  O321  1  0.25478781  0.24989596  0.61537409  1
  O  O322  1  0.25947720  0.74782762  0.11992378  1
  O  O323  1  0.26273784  0.75097845  0.62393881  1
  O  O324  1  0.75647909  0.25520499  0.12019911  1
  O  O325  1  0.75108456  0.26252782  0.62312863  1
  O  O326  1  0.75516958  0.75501397  0.11930536  1
  O  O327  1  0.75495505  0.75471513  0.62060808  1
  O  O328  1  0.24367505  0.24879601  0.38371021  1
  O  O329  1  0.24417725  0.24224286  0.87468810  1
  O  O330  1  0.24187619  0.74295420  0.37710564  1
  O  O331  1  0.24500112  0.74345338  0.87971946  1
  O  O332  1  0.73665788  0.25087458  0.37390974  1
  O  O333  1  0.74740210  0.24755510  0.88327639  1
  O  O334  1  0.75006388  0.74330980  0.38239264  1
  O  O335  1  0.74473493  0.74510272  0.87994774  1
  O  O336  1  0.00601153  0.12040205  0.00464353  1
  O  O337  1  0.00643515  0.11894179  0.50082834  1
  O  O338  1  0.00673199  0.62431286  0.01012371  1
  O  O339  1  0.00461001  0.61926887  0.50602677  1
  O  O340  1  0.50809489  0.11985102  0.00149065  1
  O  O341  1  0.50402720  0.11940385  0.50547725  1
  O  O342  1  0.50517976  0.62263233  0.00995063  1
  O  O343  1  0.50581184  0.61925987  0.50610856  1
  O  O344  1  0.49936905  0.37999345  0.49098264  1
  O  O345  1  0.49223633  0.37492710  0.99304619  1
  O  O346  1  0.49466875  0.88169032  0.49542008  1
  O  O347  1  0.49852545  0.88153677  0.99400164  1
  O  O348  1  0.99622026  0.38104733  0.49438341  1
  O  O349  1  0.99143659  0.37682961  0.99734538  1
  O  O350  1  0.99754036  0.88256144  0.49253884  1
  O  O351  1  0.99891664  0.88230898  0.99241227  1
  O  O352  1  0.50117143  0.49013411  0.37993205  1
  O  O353  1  0.49394725  0.48965844  0.87564153  1
  O  O354  1  0.49378979  0.99469425  0.38087262  1
  O  O355  1  0.49394363  0.99447239  0.88090539  1
  O  O356  1  0.99559877  0.49501991  0.38002514  1
  O  O357  1  0.99114260  0.49927548  0.87721963  1
  O  O358  1  0.99462016  0.99515813  0.37954135  1
  O  O359  1  0.99291206  0.99558624  0.87898459  1
  O  O360  1  0.00496643  0.00642611  0.11908492  1
  O  O361  1  0.00671217  0.00070536  0.61781089  1
  O  O362  1  0.00501456  0.50935292  0.12274511  1
  O  O363  1  0.00484642  0.50624358  0.62040775  1
  O  O364  1  0.50681526  0.00111752  0.11845339  1
  O  O365  1  0.50445952  0.00577003  0.61973205  1
  O  O366  1  0.50143684  0.51183206  0.12520041  1
  O  O367  1  0.50550285  0.50423172  0.62049564  1
  O  O368  1  0.24517367  0.37517024  0.24159900  1
  O  O369  1  0.24415805  0.38231143  0.74893056  1
  O  O370  1  0.24334463  0.88177941  0.24799006  1
  O  O371  1  0.24283290  0.88153209  0.74947989  1
  O  O372  1  0.74949271  0.38409022  0.24461804  1
  O  O373  1  0.75014097  0.38071779  0.74008782  1
  O  O374  1  0.74444763  0.88202655  0.24397578  1
  O  O375  1  0.74241057  0.87746831  0.74332953  1
  O  O376  1  0.25920025  0.12042142  0.25105958  1
  O  O377  1  0.25517963  0.11893338  0.75527389  1
  O  O378  1  0.25882904  0.62304914  0.25586483  1
  O  O379  1  0.25575574  0.61941049  0.75681136  1
  O  O380  1  0.75655082  0.11894416  0.25007869  1
  O  O381  1  0.76147766  0.12418375  0.75187252  1
  O  O382  1  0.75167507  0.61563258  0.25588110  1
  O  O383  1  0.75543434  0.62032961  0.75530290  1
  O  O384  1  0.37500681  0.11836023  0.36396088  1
  O  O385  1  0.37007569  0.11902081  0.86932894  1
  O  O386  1  0.37043148  0.62676034  0.36657830  1
  O  O387  1  0.37073628  0.61976269  0.87124596  1
  O  O388  1  0.87384950  0.11942091  0.36640154  1
  O  O389  1  0.87636115  0.11640937  0.86599170  1
  O  O390  1  0.86898513  0.61757407  0.37441642  1
  O  O391  1  0.86861804  0.62114272  0.87000107  1
  O  O392  1  0.13222457  0.37880308  0.12847942  1
  O  O393  1  0.12709970  0.38344942  0.63199427  1
  O  O394  1  0.12497958  0.88208997  0.13126040  1
  O  O395  1  0.12590366  0.88051814  0.63215546  1
  O  O396  1  0.63350546  0.37730175  0.12801153  1
  O  O397  1  0.63448855  0.38100163  0.62460625  1
  O  O398  1  0.63037295  0.88037128  0.13016055  1
  O  O399  1  0.62843792  0.88020107  0.63042460  1
  O  O400  1  0.11920208  0.25507807  0.25461723  1
  O  O401  1  0.11840311  0.25406266  0.75350732  1
  O  O402  1  0.12267028  0.75695759  0.25682989  1
  O  O403  1  0.11982128  0.75378753  0.75557954  1
  O  O404  1  0.61503883  0.24824753  0.25830379  1
  O  O405  1  0.61617070  0.25193832  0.75289499  1
  O  O406  1  0.62399671  0.75933016  0.25299670  1
  O  O407  1  0.62318745  0.75655706  0.75742618  1
  O  O408  1  0.38328797  0.24150964  0.25184892  1
  O  O409  1  0.37958625  0.24292170  0.74406190  1
  O  O410  1  0.37548475  0.73917611  0.24170936  1
  O  O411  1  0.37659470  0.74351845  0.74196878  1
  O  O412  1  0.88065272  0.24560454  0.24390209  1
  O  O413  1  0.88373247  0.24212087  0.75033983  1
  O  O414  1  0.87708465  0.74734482  0.24037645  1
  O  O415  1  0.88037119  0.74446580  0.74593620  1
  O  O416  1  0.38346732  0.49820675  0.49782346  1
  O  O417  1  0.37703991  0.48879065  0.99430907  1
  O  O418  1  0.38002392  0.99599304  0.49506402  1
  O  O419  1  0.38088332  0.99912127  0.99414008  1
  O  O420  1  0.88144819  0.49471390  0.49472788  1
  O  O421  1  0.87435878  0.49334312  0.99316108  1
  O  O422  1  0.88122691  0.99990991  0.49280068  1
  O  O423  1  0.88164359  1.00139170  0.98957485  1
  O  O424  1  0.12005548  0.00587781  0.00447450  1
  O  O425  1  0.12012179  0.00502703  0.50386596  1
  O  O426  1  0.12428281  0.50660959  0.00635405  1
  O  O427  1  0.11869921  0.50577599  0.50572487  1
  O  O428  1  0.62045536  0.00738933  0.00442564  1
  O  O429  1  0.61811244  0.00520791  0.50544567  1
  O  O430  1  0.62374431  0.50913873  0.00402506  1
  O  O431  1  0.61972680  0.50577972  0.50614771  1
  O  O432  1  0.36811446  0.37589660  0.11791068  1
  O  O433  1  0.37222851  0.36571992  0.62241976  1
  O  O434  1  0.37508909  0.86060630  0.12598558  1
  O  O435  1  0.37588886  0.86599354  0.62051405  1
  O  O436  1  0.87004826  0.36874056  0.11934232  1
  O  O437  1  0.86565879  0.37589913  0.61920356  1
  O  O438  1  0.86855167  0.86996542  0.12240162  1
  O  O439  1  0.86799334  0.86844561  0.62548995  1
  O  O440  1  0.12567046  0.13281319  0.38080434  1
  O  O441  1  0.13037395  0.12923212  0.87918106  1
  O  O442  1  0.12837116  0.62988915  0.37986957  1
  O  O443  1  0.13101855  0.62997613  0.88005134  1
  O  O444  1  0.62348307  0.13417561  0.38024882  1
  O  O445  1  0.62604111  0.12418133  0.88720538  1
  O  O446  1  0.63228710  0.62573410  0.38292966  1
  O  O447  1  0.63035264  0.63001872  0.87999176  1
