# generated using pymatgen
data_V3Zn3O8
_symmetry_space_group_name_H-M   'P 1'
_cell_length_a   17.08821235
_cell_length_b   17.08778432
_cell_length_c   17.08827675
_cell_angle_alpha   89.98135795
_cell_angle_beta   89.99703285
_cell_angle_gamma   90.00301002
_symmetry_Int_Tables_number   1
_chemical_formula_structural   V3Zn3O8
_chemical_formula_sum   'V96 Zn96 O256'
_cell_volume   4989.77118594
_cell_formula_units_Z   32
loop_
 _symmetry_equiv_pos_site_id
 _symmetry_equiv_pos_as_xyz
  1  'x, y, z'
loop_
 _atom_site_type_symbol
 _atom_site_label
 _atom_site_symmetry_multiplicity
 _atom_site_fract_x
 _atom_site_fract_y
 _atom_site_fract_z
 _atom_site_occupancy
  V  V0  1  0.87337758  0.75080579  0.62604665  1
  V  V1  1  0.12544164  0.37473700  0.25146438  1
  V  V2  1  0.75051874  0.49949132  0.24995228  1
  V  V3  1  0.00097146  0.87571220  0.37443300  1
  V  V4  1  0.87468893  0.50051128  0.37472308  1
  V  V5  1  0.24973547  0.12537290  0.87429243  1
  V  V6  1  0.87404544  0.87558482  0.49910530  1
  V  V7  1  0.87432751  0.00074170  0.87471638  1
  V  V8  1  0.62436911  0.00031377  0.62490130  1
  V  V9  1  -0.00007109  0.12588473  0.62477591  1
  V  V10  1  0.75023155  0.25049774  0.50058689  1
  V  V11  1  0.25086479  0.75180939  0.50106548  1
  V  V12  1  0.12429785  0.75102842  0.37513319  1
  V  V13  1  0.12447689  0.12466077  0.00061703  1
  V  V14  1  0.00086119  0.12526014  0.12525684  1
  V  V15  1  0.74948407  0.00057694  0.74956282  1
  V  V16  1  0.49954873  0.49899629  -0.00008574  1
  V  V17  1  0.62545009  0.37562759  0.75056899  1
  V  V18  1  0.12328824  0.00174528  0.62464535  1
  V  V19  1  0.37470599  0.37381089  -0.00001925  1
  V  V20  1  0.87515455  0.75068060  0.12503426  1
  V  V21  1  0.62539612  0.62580627  -0.00146771  1
  V  V22  1  0.62452560  0.37295353  0.24999421  1
  V  V23  1  0.49936312  0.87536311  0.87446143  1
  V  V24  1  0.49925591  0.37446462  0.87527206  1
  V  V25  1  0.24915033  0.00164570  0.74946327  1
  V  V26  1  0.75079469  0.62374980  0.37380008  1
  V  V27  1  -0.00054201  0.00173924  0.50056984  1
  V  V28  1  0.12346739  0.62612076  0.50024743  1
  V  V29  1  0.87441642  0.50153260  0.87593297  1
  V  V30  1  0.12380209  0.25115622  0.87458549  1
  V  V31  1  0.62406453  0.12268198  0.00172266  1
  V  V32  1  0.25109418  0.49998354  0.25045501  1
  V  V33  1  0.25028290  0.37429012  0.12583854  1
  V  V34  1  0.62482252  0.62369003  0.49889311  1
  V  V35  1  0.25037317  0.12474724  0.37614107  1
  V  V36  1  0.37554155  0.87525241  -0.00089491  1
  V  V37  1  0.87466774  0.37479659  0.50099774  1
  V  V38  1  0.50065501  0.50004264  0.49956151  1
  V  V39  1  0.87414501  0.12544363  0.75100026  1
  V  V40  1  0.49882052  0.62607633  0.62539886  1
  V  V41  1  0.37440265  0.62315014  0.24959241  1
  V  V42  1  0.74977860  0.37493304  0.12503570  1
  V  V43  1  0.24779736  0.74823321  -0.00435648  1
  V  V44  1  0.62457700  0.24992156  0.87641057  1
  V  V45  1  0.74928407  0.50164740  0.75147127  1
  V  V46  1  0.12244915  0.87328287  0.75163578  1
  V  V47  1  0.37548046  0.49967585  0.37452309  1
  V  V48  1  0.37505474  0.74880536  0.12400752  1
  V  V49  1  0.49981626  0.62389445  0.12468411  1
  V  V50  1  0.50045203  0.12475769  0.62430287  1
  V  V51  1  0.24988767  0.24883872  0.00009229  1
  V  V52  1  0.49920630  0.87446494  0.37519820  1
  V  V53  1  0.00110593  0.37532734  0.37548050  1
  V  V54  1  0.75038795  0.74960721  0.49785971  1
  V  V55  1  0.25125217  -0.00125520  0.25041827  1
  V  V56  1  -0.00002504  0.00113834  0.00061285  1
  V  V57  1  -0.00056865  0.25148147  0.75071215  1
  V  V58  1  0.87466219  0.37508499  0.00095338  1
  V  V59  1  0.62439874  0.87598853  0.74894108  1
  V  V60  1  -0.00193038  0.62538534  0.62693403  1
  V  V61  1  -0.00010120  0.37491844  0.87535620  1
  V  V62  1  0.37492479  0.24750765  0.12514541  1
  V  V63  1  0.37663029  0.37639117  0.49957031  1
  V  V64  1  0.87501226  0.87506685  0.00097993  1
  V  V65  1  0.49922875  0.75035642  0.74854235  1
  V  V66  1  0.24872021  0.37868619  0.62658357  1
  V  V67  1  0.74908474  0.24959681  0.00007339  1
  V  V68  1  0.62528441  0.74943021  0.87556390  1
  V  V69  1  0.12528929  0.49990644  0.12490064  1
  V  V70  1  0.62523470  0.12498282  0.50070538  1
  V  V71  1  0.87560561  0.00073285  0.37533699  1
  V  V72  1  0.25091475  0.24971811  0.49932943  1
  V  V73  1  0.50046874  0.74860583  0.24945534  1
  V  V74  1  0.50032464  -0.00128868  0.00031256  1
  V  V75  1  0.37496993  0.12322070  0.24993285  1
  V  V76  1  0.24975105  0.87471833  0.12539498  1
  V  V77  1  0.50100038  0.24850903  0.25044368  1
  V  V78  1  0.50034166  0.24986502  0.75040217  1
  V  V79  1  0.87472708  0.25158816  0.62549613  1
  V  V80  1  0.74914089  -0.00215911  0.24735036  1
  V  V81  1  0.62541478  0.74870114  0.37260543  1
  V  V82  1  -0.00014369  0.50062730  0.50047496  1
  V  V83  1  0.37209628  0.50231359  0.87176995  1
  V  V84  1  0.37552974  0.25060280  0.62491504  1
  V  V85  1  0.24926195  0.87577994  0.62436717  1
  V  V86  1  0.37393249  0.12538703  0.74979862  1
  V  V87  1  0.12614741  0.87477653  0.25031050  1
  V  V88  1  0.62463656  0.49909688  0.12409849  1
  V  V89  1  0.74969238  0.12579759  0.37584092  1
  V  V90  1  -0.00007457  0.87520909  0.87490524  1
  V  V91  1  0.00089041  0.25083223  0.25115583  1
  V  V92  1  0.87591500  0.12568431  0.25057928  1
  V  V93  1  0.00021927  0.49929366  0.00099546  1
  V  V94  1  0.00124879  0.62500124  0.12601988  1
  V  V95  1  0.87516926  0.25063806  0.12557291  1
  Zn  Zn96  1  0.24602354  0.50399135  0.74953145  1
  Zn  Zn97  1  0.62556527  0.87367657  0.24699598  1
  Zn  Zn98  1  0.37670804  0.87673187  0.50203729  1
  Zn  Zn99  1  0.37395880  0.75221347  0.62648706  1
  Zn  Zn100  1  0.74935050  0.75084891  -0.00041946  1
  Zn  Zn101  1  0.12458958  0.37758629  0.74962307  1
  Zn  Zn102  1  0.12427493  0.50048980  0.62710469  1
  Zn  Zn103  1  0.49913236  -0.00057340  0.49890604  1
  Zn  Zn104  1  0.74999016  0.12525712  0.87519366  1
  Zn  Zn105  1  0.37670327  -0.00251076  0.37680956  1
  Zn  Zn106  1  0.00113433  0.75036422  0.25044946  1
  Zn  Zn107  1  0.37162967  0.62770814  0.74939519  1
  Zn  Zn108  1  0.62485054  0.25032709  0.37627889  1
  Zn  Zn109  1  0.24900919  0.62527329  0.37550183  1
  Zn  Zn110  1  0.12516408  -0.00060477  0.12531688  1
  Zn  Zn111  1  0.50000023  0.11944513  0.12669131  1
  Zn  Zn112  1  -0.00339580  0.74924484  0.75358553  1
  Zn  Zn113  1  0.12638050  0.62323585  -0.00390601  1
  Zn  Zn114  1  0.24560901  0.62517254  0.86961943  1
  Zn  Zn115  1  0.37429207  0.00053628  0.87490324  1
  Zn  Zn116  1  0.87570836  0.62631830  0.25046035  1
  Zn  Zn117  1  0.50216666  0.37429281  0.37667180  1
  Zn  Zn118  1  0.74925406  0.87322565  0.12417168  1
  Zn  Zn119  1  0.62617491  0.49900039  0.62487498  1
  Zn  Zn120  1  0.87323338  0.62719949  0.75385544  1
  Zn  Zn121  1  0.12148429  0.74596419  0.87492857  1
  Zn  Zn122  1  0.12522898  0.12670001  0.49987764  1
  Zn  Zn123  1  0.62540519  -0.00536647  0.12381983  1
  Zn  Zn124  1  0.75210231  0.62843990  0.87691340  1
  Zn  Zn125  1  0.74891850  0.37653152  0.62493380  1
  Zn  Zn126  1  0.74799915  0.87561082  0.62304779  1
  Zn  Zn127  1  0.12556511  0.25042398  0.37659450  1
  Zn  Zn128  1  0.18711229  0.18699128  0.18883845  1
  Zn  Zn129  1  0.18642040  0.19016644  0.68685708  1
  Zn  Zn130  1  0.18764370  0.68787437  0.18665571  1
  Zn  Zn131  1  0.18699033  0.68702067  0.68765360  1
  Zn  Zn132  1  0.68763255  0.18553612  0.18668482  1
  Zn  Zn133  1  0.68822692  0.18769290  0.68725785  1
  Zn  Zn134  1  0.68833161  0.68578175  0.18665354  1
  Zn  Zn135  1  0.68608311  0.68668294  0.68773855  1
  Zn  Zn136  1  0.31445872  0.31201182  0.31348748  1
  Zn  Zn137  1  0.31216088  0.31329203  0.81157593  1
  Zn  Zn138  1  0.31337426  0.81082690  0.31338108  1
  Zn  Zn139  1  0.31339113  0.81365219  0.81122432  1
  Zn  Zn140  1  0.81248916  0.31299058  0.31418954  1
  Zn  Zn141  1  0.81161234  0.31416232  0.81374090  1
  Zn  Zn142  1  0.81492883  0.81204350  0.31093813  1
  Zn  Zn143  1  0.80959519  0.81492868  0.81317090  1
  Zn  Zn144  1  0.18766209  0.43921690  0.43902015  1
  Zn  Zn145  1  0.18690215  0.43678891  0.93806518  1
  Zn  Zn146  1  0.18660083  0.93902661  0.43776570  1
  Zn  Zn147  1  0.18749442  0.93795781  0.93716022  1
  Zn  Zn148  1  0.68665558  0.43612516  0.43639870  1
  Zn  Zn149  1  0.68767971  0.43812743  0.93659247  1
  Zn  Zn150  1  0.68550627  0.93716752  0.43582346  1
  Zn  Zn151  1  0.68934252  0.93572014  0.93658804  1
  Zn  Zn152  1  0.31282819  0.06064571  0.06319360  1
  Zn  Zn153  1  0.31514668  0.05991386  0.56066323  1
  Zn  Zn154  1  0.31212836  0.56256611  0.06064662  1
  Zn  Zn155  1  0.31352491  0.56405382  0.56092531  1
  Zn  Zn156  1  0.81293028  0.06317457  0.06244287  1
  Zn  Zn157  1  0.81162072  0.06368404  0.56413659  1
  Zn  Zn158  1  0.81208337  0.56467181  0.06196796  1
  Zn  Zn159  1  0.81174006  0.56215203  0.56306655  1
  Zn  Zn160  1  0.43768263  0.43512320  0.18776959  1
  Zn  Zn161  1  0.43792541  0.43875368  0.68721005  1
  Zn  Zn162  1  0.43793721  0.93662290  0.18755763  1
  Zn  Zn163  1  0.43580260  0.93821904  0.68621421  1
  Zn  Zn164  1  0.93742280  0.43793842  0.18896137  1
  Zn  Zn165  1  0.93534694  0.43826773  0.68910173  1
  Zn  Zn166  1  0.93859532  0.93763401  0.18790430  1
  Zn  Zn167  1  0.93631276  0.93798655  0.68721019  1
  Zn  Zn168  1  0.06548806  0.06178364  0.31221533  1
  Zn  Zn169  1  0.06157205  0.06288254  0.81270247  1
  Zn  Zn170  1  0.06366575  0.56298380  0.31296238  1
  Zn  Zn171  1  0.06460113  0.56157236  0.81119674  1
  Zn  Zn172  1  0.56459571  0.06162864  0.31372868  1
  Zn  Zn173  1  0.56188487  0.06208326  0.81374623  1
  Zn  Zn174  1  0.56236864  0.56063102  0.31234924  1
  Zn  Zn175  1  0.56197508  0.56352075  0.81249410  1
  Zn  Zn176  1  0.43740853  0.18732792  0.43723022  1
  Zn  Zn177  1  0.43772329  0.18536955  0.93726576  1
  Zn  Zn178  1  0.43580927  0.68726357  0.43694642  1
  Zn  Zn179  1  0.43787286  0.68731953  0.93630486  1
  Zn  Zn180  1  0.93719586  0.18850634  0.43784979  1
  Zn  Zn181  1  0.93695653  0.18734890  0.93753457  1
  Zn  Zn182  1  0.93740012  0.68811467  0.43793893  1
  Zn  Zn183  1  0.93835112  0.68752832  0.93896689  1
  Zn  Zn184  1  0.06309472  0.31239679  0.06312049  1
  Zn  Zn185  1  0.06466529  0.31146589  0.56130553  1
  Zn  Zn186  1  0.06333549  0.81307049  0.06241359  1
  Zn  Zn187  1  0.06162177  0.81328764  0.56255451  1
  Zn  Zn188  1  0.56116817  0.31042554  0.06396397  1
  Zn  Zn189  1  0.56461637  0.31310244  0.56421486  1
  Zn  Zn190  1  0.56438874  0.81324352  0.06327980  1
  Zn  Zn191  1  0.56412706  0.81160099  0.56111447  1
  O  O192  1  0.11853835  0.12470793  0.11847750  1
  O  O193  1  0.11746068  0.11941029  0.62509819  1
  O  O194  1  0.11647309  0.61860531  0.12357651  1
  O  O195  1  0.11165858  0.62710719  0.61895560  1
  O  O196  1  0.62393344  0.12281281  0.11117493  1
  O  O197  1  0.61936125  0.12040751  0.62076135  1
  O  O198  1  0.61870916  0.61802816  0.11954061  1
  O  O199  1  0.61461938  0.62431197  0.61762394  1
  O  O200  1  0.37711576  0.38157514  0.38192683  1
  O  O201  1  0.37990903  0.38078813  0.88086765  1
  O  O202  1  0.38754162  0.87291252  0.37611232  1
  O  O203  1  0.38182818  0.87731253  0.88131751  1
  O  O204  1  0.88136769  0.38088644  0.38092347  1
  O  O205  1  0.88043766  0.38017512  0.88278477  1
  O  O206  1  0.88123754  0.88103214  0.38014717  1
  O  O207  1  0.88063726  0.88142959  0.88013334  1
  O  O208  1  0.25160660  0.00864304  0.36944242  1
  O  O209  1  0.25032663  0.00803939  0.86775878  1
  O  O210  1  0.25674618  0.50207327  0.36844731  1
  O  O211  1  0.26179628  0.49854205  0.87606048  1
  O  O212  1  0.75630918  0.00578998  0.36760580  1
  O  O213  1  0.75715937  0.00166815  0.86767924  1
  O  O214  1  0.75540529  0.50446897  0.36955546  1
  O  O215  1  0.75585873  0.50087516  0.86740795  1
  O  O216  1  0.24600867  0.49335118  0.12957986  1
  O  O217  1  0.25115277  0.48865066  0.62312859  1
  O  O218  1  0.24867461  0.99212891  0.13156423  1
  O  O219  1  0.24276252  0.99615372  0.63026349  1
  O  O220  1  0.74445804  0.49399440  0.12957762  1
  O  O221  1  0.74860675  0.49894551  0.63730316  1
  O  O222  1  0.75272368  0.99944063  0.13718792  1
  O  O223  1  0.74303853  0.99912992  0.63178836  1
  O  O224  1  0.00529780  0.37056716  0.25546098  1
  O  O225  1  -0.00129215  0.36833809  0.75773846  1
  O  O226  1  0.00748308  0.87537261  0.25743043  1
  O  O227  1  0.00805776  0.87650528  0.75504677  1
  O  O228  1  0.50548028  0.36420649  0.24919275  1
  O  O229  1  0.50466498  0.36895891  0.75570703  1
  O  O230  1  0.50095412  0.86622479  0.25802056  1
  O  O231  1  0.50526776  0.87073910  0.75445469  1
  O  O232  1  0.49488410  0.13237137  0.24934679  1
  O  O233  1  0.49468212  0.13107747  0.74525200  1
  O  O234  1  0.49435223  0.62814305  0.24346254  1
  O  O235  1  0.50046611  0.63073971  0.73978276  1
  O  O236  1  0.99533040  0.13030965  0.24587465  1
  O  O237  1  0.99367039  0.13124330  0.74490129  1
  O  O238  1  0.99902328  0.62521010  0.23728850  1
  O  O239  1  0.99610968  0.62764128  0.73783302  1
  O  O240  1  0.36956908  0.25406236  0.00454847  1
  O  O241  1  0.37092271  0.25601269  0.50603790  1
  O  O242  1  0.36834657  0.75506700  0.00466309  1
  O  O243  1  0.36112627  0.75118801  0.50097445  1
  O  O244  1  0.86969111  0.25525762  0.00599756  1
  O  O245  1  0.87028144  0.25546857  0.50587482  1
  O  O246  1  0.87588367  0.75619691  0.01005389  1
  O  O247  1  0.86972414  0.75561772  0.50676635  1
  O  O248  1  0.13454125  0.24650903  0.49648975  1
  O  O249  1  0.13038309  0.24458226  0.99507345  1
  O  O250  1  0.13155472  0.74669751  0.49532440  1
  O  O251  1  0.13691327  0.75017777  0.99908334  1
  O  O252  1  0.63217584  0.24343947  0.49992538  1
  O  O253  1  0.62863991  0.24270431  0.99627875  1
  O  O254  1  0.63155518  0.74312218  0.49247506  1
  O  O255  1  0.62429810  0.74329038  0.99342635  1
  O  O256  1  0.49355215  0.24647359  0.13479748  1
  O  O257  1  0.49475524  0.24488717  0.63148358  1
  O  O258  1  0.49403950  0.74322609  0.12931589  1
  O  O259  1  0.50047465  0.74140271  0.62903597  1
  O  O260  1  0.99427999  0.24569572  0.13100956  1
  O  O261  1  0.99443136  0.24573933  0.63038524  1
  O  O262  1  0.99359560  0.74100172  0.12484220  1
  O  O263  1  0.98910562  0.74262973  0.62358285  1
  O  O264  1  0.00081448  0.25704515  0.36871322  1
  O  O265  1  0.00407800  0.25530763  0.87095000  1
  O  O266  1  0.00584008  0.75766942  0.37497846  1
  O  O267  1  0.00081103  0.75952498  0.87301495  1
  O  O268  1  0.50082484  0.25128654  0.36175537  1
  O  O269  1  0.50428898  0.25539675  0.87008893  1
  O  O270  1  0.50545584  0.75396579  0.36904921  1
  O  O271  1  0.50526361  0.75592074  0.86889544  1
  O  O272  1  0.25124700  0.13033385  0.49129126  1
  O  O273  1  0.24492229  0.13010389  0.99490032  1
  O  O274  1  0.24244255  0.63543895  0.50107506  1
  O  O275  1  0.24960312  0.63683582  0.99884757  1
  O  O276  1  0.74582938  0.13069398  0.49521723  1
  O  O277  1  0.74157891  0.13091644  0.99852882  1
  O  O278  1  0.74493503  0.62934994  0.49316830  1
  O  O279  1  0.74011824  0.62708249  0.99835780  1
  O  O280  1  0.25507093  0.36778558  0.00644805  1
  O  O281  1  0.25678171  0.37039448  0.50706501  1
  O  O282  1  0.25531454  0.86838844  0.00472604  1
  O  O283  1  0.24684110  0.86600301  0.50572130  1
  O  O284  1  0.75460362  0.36984175  0.00623998  1
  O  O285  1  0.75712599  0.36923714  0.50089170  1
  O  O286  1  0.76045107  0.87311746  0.00299873  1
  O  O287  1  0.75622103  0.86785287  0.49934174  1
  O  O288  1  0.13108609  0.49421716  0.24467690  1
  O  O289  1  0.12786211  0.49426009  0.74423115  1
  O  O290  1  0.13326290  0.99274525  0.24827751  1
  O  O291  1  0.12859682  0.99280292  0.74478616  1
  O  O292  1  0.63007821  0.49374831  0.24313474  1
  O  O293  1  0.63344738  0.49406557  0.75208821  1
  O  O294  1  0.63861255  1.00086573  0.24807468  1
  O  O295  1  0.62939133  0.99597874  0.74517310  1
  O  O296  1  0.36875085  0.00573849  0.25214303  1
  O  O297  1  0.36684627  0.00802003  0.75056765  1
  O  O298  1  0.37030591  0.50355142  0.25367531  1
  O  O299  1  0.37477843  0.50017375  0.76224130  1
  O  O300  1  0.86942417  0.00636808  0.25593740  1
  O  O301  1  0.87001914  0.00570557  0.75460307  1
  O  O302  1  0.86789715  0.50028220  0.25675375  1
  O  O303  1  0.86506707  0.50081511  0.75748097  1
  O  O304  1  0.11886865  0.37508910  0.36885991  1
  O  O305  1  0.11745684  0.36775146  0.87583681  1
  O  O306  1  0.11969671  0.87055261  0.37022139  1
  O  O307  1  0.11868598  0.87684046  0.86488660  1
  O  O308  1  0.62257664  0.37095454  0.36572973  1
  O  O309  1  0.61780127  0.36932370  0.87157384  1
  O  O310  1  0.61687849  0.86655560  0.37129189  1
  O  O311  1  0.61850634  0.86967513  0.86889655  1
  O  O312  1  0.37506990  0.13097311  0.13172225  1
  O  O313  1  0.37984380  0.13153177  0.63057351  1
  O  O314  1  0.38104578  0.62857169  0.12941607  1
  O  O315  1  0.38858941  0.62768732  0.62421037  1
  O  O316  1  0.88114844  0.13197191  0.13052119  1
  O  O317  1  0.88088515  0.13132947  0.63129864  1
  O  O318  1  0.88491355  0.63218578  0.12518626  1
  O  O319  1  0.88244202  0.63505902  0.62315274  1
  O  O320  1  0.25494623  0.25475828  0.11989125  1
  O  O321  1  0.25658618  0.25760658  0.61977534  1
  O  O322  1  0.25595586  0.75477722  0.11658418  1
  O  O323  1  0.24748370  0.75681098  0.61517158  1
  O  O324  1  0.75591843  0.25548977  0.12029053  1
  O  O325  1  0.75781926  0.25161745  0.61912044  1
  O  O326  1  0.76393636  0.74892586  0.12418911  1
  O  O327  1  0.75873039  0.74920293  0.61743137  1
  O  O328  1  0.25100067  0.24099585  0.38003388  1
  O  O329  1  0.24452068  0.24570915  0.88074043  1
  O  O330  1  0.24303247  0.74929535  0.38491077  1
  O  O331  1  0.24944650  0.75108548  0.88618168  1
  O  O332  1  0.75023931  0.24282845  0.38176091  1
  O  O333  1  0.74273191  0.24977669  0.88278535  1
  O  O334  1  0.74644014  0.74353761  0.37824315  1
  O  O335  1  0.74082698  0.74884884  0.87721310  1
  O  O336  1  0.00468543  0.12123743  0.00565108  1
  O  O337  1  0.00020241  0.11946797  0.50657313  1
  O  O338  1  0.00144109  0.61800264  0.01188010  1
  O  O339  1  0.00310344  0.62084655  0.50789334  1
  O  O340  1  0.50829692  0.11861974  0.00066023  1
  O  O341  1  0.50688641  0.12574387  0.50686560  1
  O  O342  1  0.50464201  0.61846263  0.00608185  1
  O  O343  1  0.50490226  0.62117215  0.50625064  1
  O  O344  1  0.49412230  0.38121559  0.50071492  1
  O  O345  1  0.49422269  0.37884570  0.99556045  1
  O  O346  1  0.50023747  0.87288013  0.48744201  1
  O  O347  1  0.49499491  0.87905937  0.99417271  1
  O  O348  1  0.99482790  0.38037367  0.49527125  1
  O  O349  1  0.99365730  0.37931113  0.99630060  1
  O  O350  1  0.99408742  0.88207229  0.49448562  1
  O  O351  1  0.99536761  0.88187603  0.99509896  1
  O  O352  1  0.49347052  0.49808781  0.38113594  1
  O  O353  1  0.49239512  0.49365841  0.88058887  1
  O  O354  1  0.50089303  0.98685663  0.37438200  1
  O  O355  1  0.49792004  0.99310196  0.88163662  1
  O  O356  1  0.99465091  0.49509487  0.38041042  1
  O  O357  1  0.99419219  0.49415789  0.88162076  1
  O  O358  1  0.99476968  0.99636971  0.38031408  1
  O  O359  1  0.99374319  0.99551382  0.88085667  1
  O  O360  1  0.00078367  0.00789388  0.11876108  1
  O  O361  1  0.00307313  0.00639390  0.61990582  1
  O  O362  1  0.00449964  0.50603297  0.12121902  1
  O  O363  1  -0.00403711  0.51086205  0.61877061  1
  O  O364  1  0.50336538  0.00038841  0.11624050  1
  O  O365  1  0.50701443  0.00776297  0.62495081  1
  O  O366  1  0.50477540  0.50356287  0.11957259  1
  O  O367  1  0.50168305  0.50987743  0.61904019  1
  O  O368  1  0.24614371  0.37970621  0.24454312  1
  O  O369  1  0.25034591  0.37549025  0.73702302  1
  O  O370  1  0.24639175  0.87865171  0.24540253  1
  O  O371  1  0.24060586  0.88121885  0.74543710  1
  O  O372  1  0.74511762  0.37924679  0.24392602  1
  O  O373  1  0.74411919  0.38505336  0.75106557  1
  O  O374  1  0.75131083  0.88741698  0.25052386  1
  O  O375  1  0.74197907  0.88283890  0.74695749  1
  O  O376  1  0.25487044  0.12032343  0.25721929  1
  O  O377  1  0.25402424  0.12199081  0.75451257  1
  O  O378  1  0.25661686  0.61774585  0.24965459  1
  O  O379  1  0.25465001  0.62221430  0.75107451  1
  O  O380  1  0.75681780  0.11864491  0.25484480  1
  O  O381  1  0.75652272  0.11943777  0.75252597  1
  O  O382  1  0.75159100  0.61641280  0.25596833  1
  O  O383  1  0.75021516  0.61394122  0.75315198  1
  O  O384  1  0.36491813  0.12448882  0.36861476  1
  O  O385  1  0.36735163  0.12504245  0.86782586  1
  O  O386  1  0.37286078  0.61820481  0.36727123  1
  O  O387  1  0.37497418  0.61238291  0.87487848  1
  O  O388  1  0.87026531  0.11988519  0.36964922  1
  O  O389  1  0.87416253  0.11881004  0.86884533  1
  O  O390  1  0.86932795  0.61867288  0.37394161  1
  O  O391  1  0.87370174  0.61732016  0.87435746  1
  O  O392  1  0.13067272  0.37978965  0.13116261  1
  O  O393  1  0.13717133  0.37580698  0.62434901  1
  O  O394  1  0.13201582  0.87586827  0.13213035  1
  O  O395  1  0.12728126  0.88186609  0.63323615  1
  O  O396  1  0.63043634  0.37980643  0.12896856  1
  O  O397  1  0.62772575  0.37819788  0.63512791  1
  O  O398  1  0.63139450  0.87640145  0.12958939  1
  O  O399  1  0.62566463  0.88137298  0.63090101  1
  O  O400  1  0.11866946  0.25751746  0.25138893  1
  O  O401  1  0.11717420  0.25246581  0.75714866  1
  O  O402  1  0.12482567  0.75664825  0.25686637  1
  O  O403  1  0.12227352  0.76478078  0.74969050  1
  O  O404  1  0.61631213  0.25330880  0.24860712  1
  O  O405  1  0.61966092  0.25443261  0.75659215  1
  O  O406  1  0.61823256  0.74749753  0.25575128  1
  O  O407  1  0.61902972  0.75630028  0.75458135  1
  O  O408  1  0.38246949  0.24465344  0.24448127  1
  O  O409  1  0.38094115  0.24518937  0.74474123  1
  O  O410  1  0.37973188  0.74265515  0.24329690  1
  O  O411  1  0.38405109  0.74871763  0.74743948  1
  O  O412  1  0.88046417  0.24561246  0.24477942  1
  O  O413  1  0.87972443  0.24565464  0.74615145  1
  O  O414  1  0.88026925  0.74780272  0.23928376  1
  O  O415  1  0.87401383  0.75002530  0.73784324  1
  O  O416  1  0.38109672  0.49590653  0.49379668  1
  O  O417  1  0.38027684  0.49313735  0.99345168  1
  O  O418  1  0.38080364  0.99501324  0.49514726  1
  O  O419  1  0.38137963  0.99318482  0.99831716  1
  O  O420  1  0.87983554  0.49484634  0.49414593  1
  O  O421  1  0.88002880  0.49360474  0.99692481  1
  O  O422  1  0.87918384  0.99571500  0.49481956  1
  O  O423  1  0.88094060  0.99604542  0.99491920  1
  O  O424  1  0.11814664  0.00722604  0.00114145  1
  O  O425  1  0.11717293  0.00227237  0.50715140  1
  O  O426  1  0.11821061  0.49885279  0.00830909  1
  O  O427  1  0.11726742  0.50754650  0.50293076  1
  O  O428  1  0.62029368  0.00828096  -0.00144240  1
  O  O429  1  0.62413047  0.00709317  0.50665986  1
  O  O430  1  0.61834811  0.50348148  0.00506541  1
  O  O431  1  0.61927591  0.50637428  0.50054854  1
  O  O432  1  0.36930182  0.36844883  0.11933888  1
  O  O433  1  0.36876326  0.37005877  0.61949584  1
  O  O434  1  0.36982857  0.86738458  0.11931647  1
  O  O435  1  0.36486198  0.87268228  0.62322973  1
  O  O436  1  0.86971432  0.37002540  0.12038706  1
  O  O437  1  0.87420553  0.36876018  0.61828846  1
  O  O438  1  0.87768254  0.86524040  0.11992628  1
  O  O439  1  0.87388945  0.86604972  0.61816586  1
  O  O440  1  0.13855999  0.12709298  0.37577785  1
  O  O441  1  0.12944715  0.13155715  0.88056750  1
  O  O442  1  0.12531644  0.63218489  0.38213651  1
  O  O443  1  0.12720734  0.62868177  0.87886227  1
  O  O444  1  0.63256374  0.12679667  0.38246241  1
  O  O445  1  0.62525786  0.13136247  0.88574047  1
  O  O446  1  0.63077998  0.62892402  0.37927632  1
  O  O447  1  0.62337519  0.63195764  0.88205666  1
