# generated using pymatgen
data_V3Zn3O8
_symmetry_space_group_name_H-M   'P 1'
_cell_length_a   17.08804232
_cell_length_b   17.08843994
_cell_length_c   17.08866014
_cell_angle_alpha   89.99525895
_cell_angle_beta   90.01588147
_cell_angle_gamma   90.00242179
_symmetry_Int_Tables_number   1
_chemical_formula_structural   V3Zn3O8
_chemical_formula_sum   'V96 Zn96 O256'
_cell_volume   4990.02500120
_cell_formula_units_Z   32
loop_
 _symmetry_equiv_pos_site_id
 _symmetry_equiv_pos_as_xyz
  1  'x, y, z'
loop_
 _atom_site_type_symbol
 _atom_site_label
 _atom_site_symmetry_multiplicity
 _atom_site_fract_x
 _atom_site_fract_y
 _atom_site_fract_z
 _atom_site_occupancy
  V  V0  1  0.75089249  0.00139471  0.75039448  1
  V  V1  1  0.74971453  0.49976135  0.25026997  1
  V  V2  1  0.12658640  0.12344631  0.00010243  1
  V  V3  1  -0.00132445  0.62451494  0.62429940  1
  V  V4  1  0.50123598  0.00205415  0.49999783  1
  V  V5  1  0.25025966  0.12436221  0.87478127  1
  V  V6  1  0.74899142  0.62583796  0.37609490  1
  V  V7  1  0.50128318  0.37535623  0.37490083  1
  V  V8  1  0.00036769  0.49821151  -0.00071138  1
  V  V9  1  -0.00098983  0.12501787  0.62463131  1
  V  V10  1  0.74998398  0.74969253  -0.00044782  1
  V  V11  1  0.74912695  0.37564055  0.62522550  1
  V  V12  1  0.37664344  0.12508159  0.24995388  1
  V  V13  1  0.87588293  0.24999862  0.12299885  1
  V  V14  1  0.25159297  0.25020513  0.00093934  1
  V  V15  1  0.87302323  0.25144560  0.62576007  1
  V  V16  1  0.49962341  0.00056005  -0.00008847  1
  V  V17  1  0.62233441  0.37644943  0.75100234  1
  V  V18  1  0.12405354  0.62413598  0.49927223  1
  V  V19  1  0.00048513  0.74969447  0.74949446  1
  V  V20  1  0.12432745  0.87383010  0.74975250  1
  V  V21  1  -0.00048373  0.62313025  0.12479524  1
  V  V22  1  0.12428276  0.74905011  0.87399241  1
  V  V23  1  0.62602538  0.00320921  0.62494913  1
  V  V24  1  0.00001459  0.37287207  0.37361224  1
  V  V25  1  0.25084490  0.37478852  0.12509451  1
  V  V26  1  0.62674803  0.75011931  0.37610724  1
  V  V27  1  0.62602632  0.87515894  0.24892729  1
  V  V28  1  0.62545105  0.49987155  0.12514317  1
  V  V29  1  0.49894064  0.50265730  0.50184960  1
  V  V30  1  0.62199293  0.50378887  0.62603170  1
  V  V31  1  0.87621068  0.74860082  0.12398872  1
  V  V32  1  0.87534752  0.62418319  0.24860317  1
  V  V33  1  0.50008577  0.74973382  0.25024438  1
  V  V34  1  0.12522539  0.37453078  0.74890717  1
  V  V35  1  0.37382046  0.37559390  0.50064007  1
  V  V36  1  0.00003798  0.24902411  0.74990856  1
  V  V37  1  0.62497890  0.24980762  0.87679609  1
  V  V38  1  0.50065734  0.12617840  0.62465227  1
  V  V39  1  0.12511475  0.24906463  0.87438785  1
  V  V40  1  0.62457911  0.62558288  -0.00006446  1
  V  V41  1  0.37530308  0.62727221  0.74700042  1
  V  V42  1  0.75034666  0.87510741  0.12468541  1
  V  V43  1  0.00084816  0.12453975  0.12506856  1
  V  V44  1  0.62571041  -0.00045677  0.12453469  1
  V  V45  1  -0.00018709  0.87358002  0.37446281  1
  V  V46  1  0.50120043  0.87638549  0.37554352  1
  V  V47  1  0.24948417  -0.00005212  0.74977820  1
  V  V48  1  -0.00204715  0.49945458  0.49971343  1
  V  V49  1  0.00049984  -0.00004080  0.49938176  1
  V  V50  1  0.37567936  0.62564350  0.25026953  1
  V  V51  1  -0.00054059  0.37411022  0.87466873  1
  V  V52  1  0.12480822  -0.00032864  0.62501002  1
  V  V53  1  0.87489969  0.87476246  0.49941346  1
  V  V54  1  0.24930897  0.62366976  0.87350894  1
  V  V55  1  0.12350212  0.49843654  0.62533071  1
  V  V56  1  0.12569589  0.49785035  0.12490247  1
  V  V57  1  0.12558413  0.87295492  0.25060742  1
  V  V58  1  0.62426940  0.75112340  0.87373094  1
  V  V59  1  0.37462579  0.50022186  0.37603469  1
  V  V60  1  0.37509950  0.37564446  0.00052357  1
  V  V61  1  0.49969351  0.87562371  0.87463097  1
  V  V62  1  0.49835414  0.25056266  0.74960317  1
  V  V63  1  0.37520807  -0.00034880  0.87580623  1
  V  V64  1  0.25103912  0.75047463  0.50077127  1
  V  V65  1  0.49991212  0.62593796  0.12590870  1
  V  V66  1  0.62564208  0.12619175  0.00003033  1
  V  V67  1  0.87561028  0.00054597  0.37310902  1
  V  V68  1  0.87468923  0.12433898  0.75091740  1
  V  V69  1  0.24975367  0.25084539  0.50010800  1
  V  V70  1  0.87696554  0.12406162  0.24881486  1
  V  V71  1  0.24986750  0.49904606  0.24970607  1
  V  V72  1  0.49996877  0.12537174  0.12706676  1
  V  V73  1  0.00087346  -0.00180060  -0.00064279  1
  V  V74  1  0.49950719  0.49991739  0.00007854  1
  V  V75  1  0.24990061  0.12396909  0.37567142  1
  V  V76  1  0.37538403  0.12596003  0.74944444  1
  V  V77  1  0.24828586  0.49974239  0.74946250  1
  V  V78  1  0.37673285  -0.00044696  0.37611720  1
  V  V79  1  0.87408093  0.62566011  0.75001833  1
  V  V80  1  0.49905055  0.37597042  0.87620086  1
  V  V81  1  0.74954181  0.12705154  0.37506470  1
  V  V82  1  0.87327910  0.49934962  0.87485516  1
  V  V83  1  0.87645313  0.87473512  -0.00058533  1
  V  V84  1  0.25191599  0.74966058  0.00211405  1
  V  V85  1  0.25102477  -0.00097605  0.25036892  1
  V  V86  1  0.75109213  0.87569626  0.62416045  1
  V  V87  1  0.24933059  0.62431822  0.37558593  1
  V  V88  1  0.75063061  0.37379590  0.12479595  1
  V  V89  1  0.25065862  0.87459146  0.62408552  1
  V  V90  1  0.62406821  0.37463774  0.25202544  1
  V  V91  1  0.87530118  -0.00028760  0.87510531  1
  V  V92  1  0.12511236  0.12505442  0.49929418  1
  V  V93  1  0.12701112  -0.00101312  0.12499381  1
  V  V94  1  0.12522621  0.62340417  -0.00048966  1
  V  V95  1  0.87422434  0.49958228  0.37543351  1
  Zn  Zn96  1  0.74999857  0.24985270  -0.00181851  1
  Zn  Zn97  1  0.62464809  0.25076432  0.37605514  1
  Zn  Zn98  1  0.75001525  0.12632659  0.87639873  1
  Zn  Zn99  1  0.75110991  0.00000517  0.24879228  1
  Zn  Zn100  1  0.74871047  0.62489746  0.87495670  1
  Zn  Zn101  1  0.12267442  0.24876643  0.37274086  1
  Zn  Zn102  1  0.74606878  0.50279727  0.75169203  1
  Zn  Zn103  1  0.37662903  0.25052106  0.12767470  1
  Zn  Zn104  1  0.87480458  0.75012637  0.62333204  1
  Zn  Zn105  1  0.00442203  0.24962822  0.24904875  1
  Zn  Zn106  1  0.12314873  0.74757677  0.37377524  1
  Zn  Zn107  1  0.50108011  0.63306212  0.62426015  1
  Zn  Zn108  1  0.00036452  0.87402682  0.87455290  1
  Zn  Zn109  1  0.62498648  0.87637841  0.74915962  1
  Zn  Zn110  1  0.50077107  0.24993862  0.25131323  1
  Zn  Zn111  1  0.49919061  0.75246924  0.74780311  1
  Zn  Zn112  1  0.87355497  0.37359892  -0.00090186  1
  Zn  Zn113  1  0.74848599  0.25102878  0.49912486  1
  Zn  Zn114  1  0.62536660  0.12961946  0.49896497  1
  Zn  Zn115  1  0.87302604  0.37412502  0.49978415  1
  Zn  Zn116  1  0.12681950  0.37139494  0.25010752  1
  Zn  Zn117  1  0.37661718  0.87535009  0.50195139  1
  Zn  Zn118  1  0.37359690  0.87497076  0.00266283  1
  Zn  Zn119  1  0.37553870  0.75173521  0.12569185  1
  Zn  Zn120  1  0.25306438  0.87355194  0.12553255  1
  Zn  Zn121  1  0.37524165  0.25184578  0.62534009  1
  Zn  Zn122  1  0.62443617  0.62882999  0.50174798  1
  Zn  Zn123  1  0.75051043  0.74877798  0.50053250  1
  Zn  Zn124  1  0.37448872  0.50053662  0.87401000  1
  Zn  Zn125  1  0.00119112  0.74736099  0.25095972  1
  Zn  Zn126  1  0.38009428  0.75433010  0.62543585  1
  Zn  Zn127  1  0.25024030  0.37446120  0.62528003  1
  Zn  Zn128  1  0.18869510  0.18855833  0.18873395  1
  Zn  Zn129  1  0.18756704  0.18706472  0.68582357  1
  Zn  Zn130  1  0.18660112  0.68558109  0.18717752  1
  Zn  Zn131  1  0.18748736  0.68675908  0.68529647  1
  Zn  Zn132  1  0.68815405  0.18854489  0.18966107  1
  Zn  Zn133  1  0.68643224  0.18878613  0.68977301  1
  Zn  Zn134  1  0.68780702  0.68812957  0.18853262  1
  Zn  Zn135  1  0.68932062  0.68998434  0.68924432  1
  Zn  Zn136  1  0.31423561  0.31136213  0.31334013  1
  Zn  Zn137  1  0.31271666  0.31327244  0.81370733  1
  Zn  Zn138  1  0.31392154  0.81195118  0.31528755  1
  Zn  Zn139  1  0.31177120  0.81181173  0.81377582  1
  Zn  Zn140  1  0.81459289  0.31094678  0.30938899  1
  Zn  Zn141  1  0.80940671  0.31260808  0.81037627  1
  Zn  Zn142  1  0.81287788  0.81120420  0.31066770  1
  Zn  Zn143  1  0.81226020  0.81379686  0.81224676  1
  Zn  Zn144  1  0.18525975  0.43682597  0.43705505  1
  Zn  Zn145  1  0.18857359  0.43654468  0.93633487  1
  Zn  Zn146  1  0.18741841  0.93648361  0.43652071  1
  Zn  Zn147  1  0.18708606  0.93462956  0.93631274  1
  Zn  Zn148  1  0.68575520  0.43988845  0.43997977  1
  Zn  Zn149  1  0.68820440  0.43577200  0.93958540  1
  Zn  Zn150  1  0.68750650  0.94098595  0.43782633  1
  Zn  Zn151  1  0.68847366  0.93850518  0.93811996  1
  Zn  Zn152  1  0.31389370  0.06182824  0.06414258  1
  Zn  Zn153  1  0.31481676  0.06300251  0.56246369  1
  Zn  Zn154  1  0.31391688  0.56258726  0.06335005  1
  Zn  Zn155  1  0.31108721  0.56277362  0.56478003  1
  Zn  Zn156  1  0.81133004  0.06282553  0.06077631  1
  Zn  Zn157  1  0.81288593  0.06281687  0.56035186  1
  Zn  Zn158  1  0.81127788  0.56202480  0.06105089  1
  Zn  Zn159  1  0.81007979  0.56149879  0.56147797  1
  Zn  Zn160  1  0.43737323  0.43795450  0.18790429  1
  Zn  Zn161  1  0.43472515  0.43856102  0.68689499  1
  Zn  Zn162  1  0.43678437  0.93597583  0.18657952  1
  Zn  Zn163  1  0.43725746  0.93908548  0.68680082  1
  Zn  Zn164  1  0.93767652  0.43609809  0.18889109  1
  Zn  Zn165  1  0.93700254  0.43749814  0.68868426  1
  Zn  Zn166  1  0.93876133  0.93683511  0.18712977  1
  Zn  Zn167  1  0.93730767  0.93732883  0.68762830  1
  Zn  Zn168  1  0.06303447  0.06179938  0.31214764  1
  Zn  Zn169  1  0.06175940  0.06137078  0.81293398  1
  Zn  Zn170  1  0.06287097  0.55943268  0.31179951  1
  Zn  Zn171  1  0.06124379  0.56235156  0.81215179  1
  Zn  Zn172  1  0.56453696  0.06166058  0.31110264  1
  Zn  Zn173  1  0.56394489  0.06345375  0.81166592  1
  Zn  Zn174  1  0.56309088  0.56240899  0.31397760  1
  Zn  Zn175  1  0.55863700  0.56433398  0.81252850  1
  Zn  Zn176  1  0.43779541  0.18914572  0.43674952  1
  Zn  Zn177  1  0.43812981  0.18831061  0.93867279  1
  Zn  Zn178  1  0.43824740  0.68783191  0.43804331  1
  Zn  Zn179  1  0.43636669  0.68596351  0.93543086  1
  Zn  Zn180  1  0.93355779  0.19001144  0.43962324  1
  Zn  Zn181  1  0.93811953  0.18511774  0.93820417  1
  Zn  Zn182  1  0.93543107  0.68923965  0.43662154  1
  Zn  Zn183  1  0.93896865  0.68676960  0.93712995  1
  Zn  Zn184  1  0.06303895  0.31239002  0.06116548  1
  Zn  Zn185  1  0.06160943  0.31245445  0.56079850  1
  Zn  Zn186  1  0.06340283  0.81143562  0.06342186  1
  Zn  Zn187  1  0.06292510  0.81089093  0.56232120  1
  Zn  Zn188  1  0.56166568  0.31096836  0.06464059  1
  Zn  Zn189  1  0.56326061  0.31186494  0.56001054  1
  Zn  Zn190  1  0.56190225  0.81267132  0.06177595  1
  Zn  Zn191  1  0.56469026  0.81455206  0.56164006  1
  O  O192  1  0.12135034  0.11863911  0.11908095  1
  O  O193  1  0.11863059  0.11871810  0.61979340  1
  O  O194  1  0.11940344  0.61725791  0.11904074  1
  O  O195  1  0.11783919  0.61813658  0.61937757  1
  O  O196  1  0.62034838  0.11917820  0.12103268  1
  O  O197  1  0.61849812  0.12003650  0.62509049  1
  O  O198  1  0.62003856  0.61965425  0.12013508  1
  O  O199  1  0.62574239  0.61428648  0.62735167  1
  O  O200  1  0.38022867  0.38243060  0.38094873  1
  O  O201  1  0.38135811  0.37743495  0.88214623  1
  O  O202  1  0.38336296  0.88231821  0.37643830  1
  O  O203  1  0.38357714  0.88076187  0.87676502  1
  O  O204  1  0.88243195  0.38148507  0.37544878  1
  O  O205  1  0.88043751  0.38402299  0.87311968  1
  O  O206  1  0.87993807  0.88055070  0.37866288  1
  O  O207  1  0.87762490  0.88078653  0.88193485  1
  O  O208  1  0.25606571  0.00476540  0.37072214  1
  O  O209  1  0.25429926  0.00501066  0.86949213  1
  O  O210  1  0.25520287  0.50492298  0.37060463  1
  O  O211  1  0.24954056  0.50663080  0.86749981  1
  O  O212  1  0.75797447  0.00892997  0.37245422  1
  O  O213  1  0.75741427  0.00049155  0.86839228  1
  O  O214  1  0.75472568  0.50488938  0.36955606  1
  O  O215  1  0.76060766  0.50174225  0.87330871  1
  O  O216  1  0.24491926  0.49504143  0.12957714  1
  O  O217  1  0.24014325  0.49832355  0.63127087  1
  O  O218  1  0.24380905  0.99825776  0.13194365  1
  O  O219  1  0.24387398  0.99589381  0.63014196  1
  O  O220  1  0.74500886  0.49481266  0.13034779  1
  O  O221  1  0.73999171  0.49277152  0.62803672  1
  O  O222  1  0.74384670  0.99233020  0.12457543  1
  O  O223  1  0.74690302  0.99420984  0.62989471  1
  O  O224  1  0.00201201  0.37457384  0.26173007  1
  O  O225  1  0.00544214  0.36841100  0.75531579  1
  O  O226  1  0.01053339  0.87451502  0.25487365  1
  O  O227  1  0.00665222  0.86803492  0.74977883  1
  O  O228  1  0.50655509  0.37753418  0.25722966  1
  O  O229  1  0.50274240  0.37070002  0.75620179  1
  O  O230  1  0.50665072  0.86961306  0.25547132  1
  O  O231  1  0.50201954  0.87662088  0.76408846  1
  O  O232  1  0.49398073  0.12395997  0.24452604  1
  O  O233  1  0.49429455  0.13057868  0.74524423  1
  O  O234  1  0.49546515  0.62980315  0.24569903  1
  O  O235  1  0.48722954  0.62834581  0.74900362  1
  O  O236  1  0.99482414  0.12465507  0.24225112  1
  O  O237  1  0.99546691  0.12970974  0.74402129  1
  O  O238  1  0.99347108  0.62312087  0.24264152  1
  O  O239  1  0.99244234  0.62937275  0.74447006  1
  O  O240  1  0.36822316  0.25676681  0.00125603  1
  O  O241  1  0.36454979  0.25577439  0.50045772  1
  O  O242  1  0.36244108  0.74839797  -0.00044970  1
  O  O243  1  0.36190892  0.75083342  0.50159392  1
  O  O244  1  0.87462374  0.24972954  0.01140838  1
  O  O245  1  0.86992972  0.25418490  0.51130081  1
  O  O246  1  0.87024770  0.75397918  0.00404251  1
  O  O247  1  0.87132172  0.75891269  0.50316220  1
  O  O248  1  0.13330487  0.24322976  0.49855468  1
  O  O249  1  0.13090039  0.24323735  0.99352533  1
  O  O250  1  0.13447652  0.74299775  0.49855022  1
  O  O251  1  0.13189861  0.74271138  0.99488405  1
  O  O252  1  0.63063862  0.24728932  0.49468662  1
  O  O253  1  0.62443571  0.24374505  0.99415682  1
  O  O254  1  0.62947310  0.74944446  0.49098849  1
  O  O255  1  0.62964839  0.74554587  0.99229771  1
  O  O256  1  0.49722605  0.24099640  0.12917989  1
  O  O257  1  0.49866594  0.24475975  0.63219179  1
  O  O258  1  0.50083121  0.74305962  0.13187429  1
  O  O259  1  0.49887412  0.75133734  0.63003897  1
  O  O260  1  0.99235481  0.24321622  0.12348713  1
  O  O261  1  0.99456135  0.24458074  0.63085528  1
  O  O262  1  0.99391208  0.74069334  0.12481502  1
  O  O263  1  0.99815674  0.74223142  0.63137019  1
  O  O264  1  -0.00149308  0.26070834  0.37468399  1
  O  O265  1  0.00550272  0.25363578  0.86974620  1
  O  O266  1  0.00279081  0.75761369  0.37205779  1
  O  O267  1  0.00724711  0.75011716  0.86809886  1
  O  O268  1  0.50150054  0.26067869  0.37276001  1
  O  O269  1  0.50496783  0.25644377  0.86958605  1
  O  O270  1  0.50604050  0.75601927  0.36975902  1
  O  O271  1  0.50830205  0.75914248  0.87661872  1
  O  O272  1  0.24555369  0.13145791  0.49557911  1
  O  O273  1  0.24549926  0.12926113  0.99410570  1
  O  O274  1  0.24421632  0.63138388  0.49566996  1
  O  O275  1  0.24440111  0.63021234  0.99437960  1
  O  O276  1  0.75058831  0.12597583  0.48734751  1
  O  O277  1  0.74077881  0.12737288  0.99717457  1
  O  O278  1  0.74702397  0.62714769  0.49165194  1
  O  O279  1  0.74261929  0.63169392  0.99785133  1
  O  O280  1  0.25522649  0.36992535  0.00445374  1
  O  O281  1  0.25366051  0.36597923  0.49922346  1
  O  O282  1  0.24957570  0.86171063  0.00020796  1
  O  O283  1  0.24922286  0.86582405  0.50459484  1
  O  O284  1  0.75363259  0.37181336  0.00937883  1
  O  O285  1  0.75040829  0.37641685  0.51455379  1
  O  O286  1  0.75630514  0.86918082  0.00558448  1
  O  O287  1  0.75649712  0.87829516  0.50989484  1
  O  O288  1  0.13289148  0.49793750  0.24223715  1
  O  O289  1  0.12779268  0.49438729  0.74513525  1
  O  O290  1  0.13084355  0.99171695  0.24523135  1
  O  O291  1  0.13005175  0.99505802  0.74462718  1
  O  O292  1  0.63080593  0.49540792  0.24391913  1
  O  O293  1  0.62341411  0.49543164  0.74275471  1
  O  O294  1  0.62731119  0.99197025  0.24171707  1
  O  O295  1  0.63278605  0.99925344  0.74359566  1
  O  O296  1  0.37019116  0.00469052  0.25654020  1
  O  O297  1  0.36858022  0.00616563  0.75632290  1
  O  O298  1  0.36959720  0.50630092  0.25627069  1
  O  O299  1  0.36699276  0.50927665  0.75104364  1
  O  O300  1  0.87490710  0.00582533  0.25528150  1
  O  O301  1  0.87140901  0.00554077  0.75524156  1
  O  O302  1  0.86846233  0.50522034  0.25464824  1
  O  O303  1  0.87630622  0.50937949  0.75951782  1
  O  O304  1  0.11188784  0.37445460  0.37406558  1
  O  O305  1  0.11943001  0.36826701  0.86904329  1
  O  O306  1  0.11900969  0.87523208  0.36502422  1
  O  O307  1  0.12348825  0.86744934  0.86672151  1
  O  O308  1  0.61903803  0.37850207  0.36861937  1
  O  O309  1  0.61847130  0.37097169  0.87073328  1
  O  O310  1  0.62104403  0.87132520  0.36871990  1
  O  O311  1  0.61694189  0.86756282  0.87604017  1
  O  O312  1  0.38230044  0.12402859  0.13251765  1
  O  O313  1  0.38206413  0.12607259  0.63296371  1
  O  O314  1  0.38253309  0.62624713  0.13269439  1
  O  O315  1  0.37469438  0.62760186  0.63639403  1
  O  O316  1  0.88066878  0.13080801  0.12807136  1
  O  O317  1  0.88050187  0.12994250  0.63094992  1
  O  O318  1  0.87980971  0.62837709  0.12869367  1
  O  O319  1  0.87934248  0.62377182  0.63523445  1
  O  O320  1  0.25198441  0.25607997  0.11734985  1
  O  O321  1  0.25082622  0.24998284  0.61194571  1
  O  O322  1  0.25009136  0.74794845  0.11270840  1
  O  O323  1  0.24859651  0.75586443  0.61463935  1
  O  O324  1  0.76070286  0.25494905  0.12471753  1
  O  O325  1  0.75417431  0.26115753  0.62839183  1
  O  O326  1  0.75566779  0.75491882  0.11861412  1
  O  O327  1  0.75175071  0.76392925  0.62508238  1
  O  O328  1  0.24896104  0.24357147  0.38628657  1
  O  O329  1  0.24386855  0.24370079  0.88018538  1
  O  O330  1  0.24813163  0.74336923  0.38486830  1
  O  O331  1  0.24314869  0.74341075  0.88265799  1
  O  O332  1  0.75250669  0.23885986  0.37493710  1
  O  O333  1  0.74097273  0.24858288  0.87637686  1
  O  O334  1  0.74394929  0.74357930  0.37385288  1
  O  O335  1  0.73993170  0.75122523  0.88112701  1
  O  O336  1  0.00773394  0.11799751  0.00517324  1
  O  O337  1  0.00449458  0.11973464  0.50537395  1
  O  O338  1  0.00599195  0.61790980  0.00469118  1
  O  O339  1  0.00386089  0.61944803  0.50444273  1
  O  O340  1  0.50529292  0.11914556  0.00603880  1
  O  O341  1  0.50057687  0.11946808  0.50650970  1
  O  O342  1  0.50525524  0.62031737  0.00519191  1
  O  O343  1  0.50222299  0.61783538  0.50384427  1
  O  O344  1  0.49345373  0.38253944  0.49496107  1
  O  O345  1  0.49518124  0.38068914  0.99620587  1
  O  O346  1  0.49945439  0.88365264  0.49267655  1
  O  O347  1  0.49940413  0.88102496  0.98933557  1
  O  O348  1  0.99707722  0.38133108  0.49156921  1
  O  O349  1  0.99802654  0.38083449  0.99188997  1
  O  O350  1  0.99603126  0.88091400  0.49536107  1
  O  O351  1  0.99471204  0.88056522  0.99934971  1
  O  O352  1  0.49369797  0.49604848  0.38169640  1
  O  O353  1  0.49913380  0.49347176  0.88288350  1
  O  O354  1  0.49648879  0.99574813  0.38000612  1
  O  O355  1  0.49592618  0.99349398  0.87974329  1
  O  O356  1  0.99369069  0.49285830  0.38000689  1
  O  O357  1  0.99238450  0.49440173  0.87898370  1
  O  O358  1  0.99518781  0.99447468  0.38087512  1
  O  O359  1  0.99428834  0.99778357  0.88175813  1
  O  O360  1  0.00683230  0.00488459  0.11853234  1
  O  O361  1  0.00536885  0.00545338  0.61943175  1
  O  O362  1  0.00467587  0.50331972  0.11860902  1
  O  O363  1  0.00381282  0.50488023  0.62005064  1
  O  O364  1  0.50639654  0.00443446  0.11911383  1
  O  O365  1  0.50618760  0.00585050  0.62060676  1
  O  O366  1  0.50649804  0.50612888  0.11989814  1
  O  O367  1  0.50952256  0.50037457  0.62080248  1
  O  O368  1  0.25124188  0.38218315  0.24411639  1
  O  O369  1  0.24236151  0.38019780  0.74927246  1
  O  O370  1  0.24090570  0.87986233  0.25151437  1
  O  O371  1  0.24382769  0.88079767  0.74527906  1
  O  O372  1  0.74509342  0.38148429  0.24455388  1
  O  O373  1  0.74165165  0.37890015  0.74064552  1
  O  O374  1  0.74413731  0.87564267  0.24171060  1
  O  O375  1  0.75119369  0.88250038  0.73976067  1
  O  O376  1  0.25529457  0.11788451  0.25615665  1
  O  O377  1  0.25402588  0.11957197  0.75529521  1
  O  O378  1  0.25520458  0.61930536  0.25558012  1
  O  O379  1  0.25473006  0.62001235  0.75416592  1
  O  O380  1  0.75853140  0.12266596  0.25769736  1
  O  O381  1  0.75767025  0.11894012  0.75132110  1
  O  O382  1  0.75565009  0.61846158  0.25438543  1
  O  O383  1  0.76203042  0.62399893  0.75323618  1
  O  O384  1  0.36949367  0.11829968  0.36991778  1
  O  O385  1  0.36971993  0.11949045  0.86962545  1
  O  O386  1  0.36924287  0.61903970  0.36991893  1
  O  O387  1  0.36780911  0.62342288  0.86440073  1
  O  O388  1  0.87004346  0.12013251  0.36903244  1
  O  O389  1  0.87480549  0.11812497  0.86839363  1
  O  O390  1  0.86977526  0.61905126  0.36821764  1
  O  O391  1  0.87605673  0.61600975  0.86674325  1
  O  O392  1  0.13243831  0.38125523  0.12427254  1
  O  O393  1  0.12425519  0.38067611  0.63183704  1
  O  O394  1  0.12692051  0.88018718  0.13515555  1
  O  O395  1  0.13037344  0.88099644  0.63020641  1
  O  O396  1  0.63000510  0.38143213  0.13091916  1
  O  O397  1  0.63017590  0.38366380  0.63114336  1
  O  O398  1  0.63028557  0.87945414  0.12871194  1
  O  O399  1  0.63608982  0.88366157  0.62660184  1
  O  O400  1  0.12235425  0.25314160  0.25465149  1
  O  O401  1  0.11952052  0.25326262  0.75501732  1
  O  O402  1  0.12410919  0.76005682  0.25125349  1
  O  O403  1  0.12045764  0.75379028  0.75420464  1
  O  O404  1  0.62353600  0.26055001  0.25357341  1
  O  O405  1  0.61723132  0.25683844  0.75643890  1
  O  O406  1  0.61940089  0.75584013  0.25541956  1
  O  O407  1  0.62423385  0.75320362  0.76346968  1
  O  O408  1  0.37679720  0.23976093  0.24889523  1
  O  O409  1  0.38030634  0.24356403  0.74974509  1
  O  O410  1  0.38209225  0.74270199  0.25087898  1
  O  O411  1  0.37342105  0.73982151  0.74853234  1
  O  O412  1  0.87926972  0.24345929  0.23681732  1
  O  O413  1  0.88139970  0.24446455  0.74579731  1
  O  O414  1  0.87707921  0.74220454  0.24121124  1
  O  O415  1  0.88060358  0.73981081  0.75068849  1
  O  O416  1  0.37810341  0.49594571  0.49515914  1
  O  O417  1  0.38184511  0.49465855  0.99799867  1
  O  O418  1  0.38220310  0.99927474  0.49313553  1
  O  O419  1  0.38131986  0.99951829  0.99238768  1
  O  O420  1  0.88090295  0.49847980  0.49345643  1
  O  O421  1  0.88102588  0.50005867  0.98928292  1
  O  O422  1  0.88266351  0.99498015  0.49359063  1
  O  O423  1  0.88123678  0.99449089  0.99538268  1
  O  O424  1  0.12176657  0.00421411  0.00435589  1
  O  O425  1  0.12014520  0.00485342  0.50580327  1
  O  O426  1  0.12023618  0.50448468  0.00415419  1
  O  O427  1  0.11829523  0.50522708  0.50558118  1
  O  O428  1  0.61899947  0.00539091  0.00501179  1
  O  O429  1  0.61863881  0.00483131  0.50705679  1
  O  O430  1  0.61981060  0.50570416  0.00575501  1
  O  O431  1  0.61784150  0.50194407  0.51160127  1
  O  O432  1  0.36862828  0.37504893  0.11817898  1
  O  O433  1  0.37054846  0.37293988  0.61640087  1
  O  O434  1  0.37117017  0.86963396  0.12071055  1
  O  O435  1  0.36559375  0.87501160  0.62281707  1
  O  O436  1  0.87085061  0.36563898  0.12456464  1
  O  O437  1  0.86446697  0.37137876  0.62815080  1
  O  O438  1  0.87093350  0.86895561  0.11893633  1
  O  O439  1  0.86637666  0.87642943  0.61888123  1
  O  O440  1  0.13175075  0.12367685  0.38255736  1
  O  O441  1  0.13056874  0.12928915  0.87999077  1
  O  O442  1  0.13132998  0.62381817  0.38139152  1
  O  O443  1  0.12908671  0.62923053  0.87993090  1
  O  O444  1  0.63833315  0.12522946  0.37316107  1
  O  O445  1  0.62427912  0.13198623  0.88195694  1
  O  O446  1  0.63187501  0.63184246  0.37456560  1
  O  O447  1  0.62413153  0.63528168  0.88067836  1
