# generated using pymatgen
data_V3Zn3O8
_symmetry_space_group_name_H-M   'P 1'
_cell_length_a   17.09173781
_cell_length_b   17.09209806
_cell_length_c   17.09202209
_cell_angle_alpha   89.98736301
_cell_angle_beta   89.98864753
_cell_angle_gamma   89.99857099
_symmetry_Int_Tables_number   1
_chemical_formula_structural   V3Zn3O8
_chemical_formula_sum   'V96 Zn96 O256'
_cell_volume   4993.15472692
_cell_formula_units_Z   32
loop_
 _symmetry_equiv_pos_site_id
 _symmetry_equiv_pos_as_xyz
  1  'x, y, z'
loop_
 _atom_site_type_symbol
 _atom_site_label
 _atom_site_symmetry_multiplicity
 _atom_site_fract_x
 _atom_site_fract_y
 _atom_site_fract_z
 _atom_site_occupancy
  V  V0  1  0.49963346  0.62574829  0.12673867  1
  V  V1  1  0.24930424  0.62463118  0.87543000  1
  V  V2  1  0.87591789  0.74933336  0.12521172  1
  V  V3  1  0.49906934  0.37604806  0.37522309  1
  V  V4  1  0.37525297  0.12486993  0.24988676  1
  V  V5  1  0.12432921  0.37299118  0.24968953  1
  V  V6  1  0.12510076  0.62375867  0.00065545  1
  V  V7  1  0.12526856  -0.00042718  0.12479086  1
  V  V8  1  0.62545307  0.62537208  -0.00001422  1
  V  V9  1  0.12495048  0.74964711  0.37547505  1
  V  V10  1  0.75001428  0.37464555  0.12442205  1
  V  V11  1  0.25057010  0.12576284  0.87399807  1
  V  V12  1  0.24870349  0.49955878  0.74892155  1
  V  V13  1  0.75043765  0.74865317  -0.00021311  1
  V  V14  1  0.62608004  0.87604179  0.25033971  1
  V  V15  1  0.87572605  0.87437847  0.00047908  1
  V  V16  1  0.74968298  0.62669652  0.37591709  1
  V  V17  1  0.50055388  0.75143520  0.75241764  1
  V  V18  1  0.12398205  0.49929891  0.12473950  1
  V  V19  1  0.37472580  0.12585464  0.74959486  1
  V  V20  1  0.87390070  0.37581500  0.50043147  1
  V  V21  1  0.75142960  0.12442376  0.37474070  1
  V  V22  1  0.49988216  0.62498506  0.62298684  1
  V  V23  1  0.37479708  0.24861314  0.12552316  1
  V  V24  1  0.87584951  0.74985151  0.62576886  1
  V  V25  1  0.37462468  0.87561740  0.50124413  1
  V  V26  1  0.75018577  0.62462369  0.87515444  1
  V  V27  1  0.12530414  0.62429881  0.49994677  1
  V  V28  1  0.00138103  0.00037736  0.50024782  1
  V  V29  1  0.12494935  0.12555382  0.49944262  1
  V  V30  1  -0.00151088  0.12621982  0.62542161  1
  V  V31  1  0.49964872  0.24918497  0.24875706  1
  V  V32  1  0.24905387  0.37400973  0.12444218  1
  V  V33  1  0.75068366  0.00048176  0.75008891  1
  V  V34  1  0.87475616  0.49934536  0.87451833  1
  V  V35  1  0.49907155  0.50047831  0.00139328  1
  V  V36  1  0.25184100  0.50074135  0.25263418  1
  V  V37  1  0.37472149  0.37480709  0.00036472  1
  V  V38  1  0.12499511  0.24925657  0.37471935  1
  V  V39  1  0.62495287  0.12539880  0.49994458  1
  V  V40  1  0.74973069  0.25159524  0.50043407  1
  V  V41  1  0.87500094  0.00096239  0.37458030  1
  V  V42  1  0.25104073  0.75038093  0.50120019  1
  V  V43  1  -0.00076504  0.37457448  0.87392362  1
  V  V44  1  0.87451475  0.00007807  0.87488354  1
  V  V45  1  0.50170171  0.87557767  0.37522761  1
  V  V46  1  0.49915587  0.74989575  0.25024234  1
  V  V47  1  0.12384010  0.25093541  0.87432912  1
  V  V48  1  0.24909906  0.24972829  -0.00058839  1
  V  V49  1  0.62319357  0.12469181  -0.00007372  1
  V  V50  1  0.75067911  0.87467293  0.12566994  1
  V  V51  1  0.74965709  0.50117879  0.75010543  1
  V  V52  1  0.12589116  0.87529382  0.74926976  1
  V  V53  1  -0.00099373  0.24994099  0.74976068  1
  V  V54  1  0.00038983  0.74964063  0.74974934  1
  V  V55  1  0.00081700  0.87434524  0.37530551  1
  V  V56  1  0.87523160  0.49948904  0.37536246  1
  V  V57  1  0.37531069  0.25011919  0.62467318  1
  V  V58  1  0.62481395  0.00021625  0.12433711  1
  V  V59  1  0.00115980  0.74941792  0.25125821  1
  V  V60  1  0.00027361  0.87441807  0.87472985  1
  V  V61  1  0.75045436  0.50006287  0.25011063  1
  V  V62  1  0.62467606  0.87440909  0.75111836  1
  V  V63  1  0.87613371  0.87516665  0.50039096  1
  V  V64  1  0.74845169  0.37600263  0.62446989  1
  V  V65  1  0.25213552  0.87392682  0.12478682  1
  V  V66  1  0.62567067  0.00054587  0.62493916  1
  V  V67  1  0.75084905  0.87526465  0.62511249  1
  V  V68  1  0.12433575  0.12403560  -0.00035949  1
  V  V69  1  0.74975650  0.74972256  0.49974167  1
  V  V70  1  0.62510689  0.49978541  0.12518473  1
  V  V71  1  0.49986357  0.00016947  0.50038357  1
  V  V72  1  0.62367778  0.50167770  0.62395177  1
  V  V73  1  0.25039615  -0.00035604  0.25002342  1
  V  V74  1  0.87518606  0.62427276  0.24963817  1
  V  V75  1  -0.00119606  0.24782369  0.24949316  1
  V  V76  1  0.50025048  0.37498013  0.87452724  1
  V  V77  1  0.74976600  0.24965213  -0.00073697  1
  V  V78  1  -0.00009828  0.49982197  0.50026477  1
  V  V79  1  0.49953107  0.12609873  0.62568406  1
  V  V80  1  0.37512280  0.00132793  0.37466528  1
  V  V81  1  0.87471792  0.37487930  -0.00122866  1
  V  V82  1  0.87534473  0.24876319  0.12523963  1
  V  V83  1  0.37594370  0.37635622  0.49836109  1
  V  V84  1  0.00014438  0.62484570  0.62508649  1
  V  V85  1  0.25156542  0.74996349  0.00061232  1
  V  V86  1  0.25047849  0.00021409  0.75034844  1
  V  V87  1  0.00095855  -0.00068039  0.00045452  1
  V  V88  1  0.00020075  0.62365089  0.12451617  1
  V  V89  1  0.24946842  0.24966570  0.49941720  1
  V  V90  1  0.75015988  0.12477515  0.87451084  1
  V  V91  1  0.62515315  0.24997048  0.37434710  1
  V  V92  1  0.62501638  0.37449055  0.24984278  1
  V  V93  1  0.62359310  0.37553333  0.75007916  1
  V  V94  1  0.37401782  0.62608173  0.75003750  1
  V  V95  1  0.24985402  0.37564784  0.62476050  1
  Zn  Zn96  1  0.37818607  0.87778257  -0.00305509  1
  Zn  Zn97  1  0.62535702  0.24944940  0.87335904  1
  Zn  Zn98  1  0.25285939  0.62421228  0.37536826  1
  Zn  Zn99  1  0.37437507  0.75259680  0.62575777  1
  Zn  Zn100  1  0.49741875  -0.00365680  -0.00243549  1
  Zn  Zn101  1  -0.00179305  0.12254375  0.12454006  1
  Zn  Zn102  1  0.49874661  0.12354824  0.12338382  1
  Zn  Zn103  1  0.24987071  0.12405057  0.37542602  1
  Zn  Zn104  1  0.87330084  0.25116017  0.62610512  1
  Zn  Zn105  1  0.12427163  0.74867646  0.87530296  1
  Zn  Zn106  1  0.37444128  0.62535870  0.25129922  1
  Zn  Zn107  1  0.12399596  0.37515624  0.74811158  1
  Zn  Zn108  1  0.62557789  0.75028374  0.37716628  1
  Zn  Zn109  1  0.37586963  0.74926361  0.12519320  1
  Zn  Zn110  1  0.50010491  0.25019013  0.75041354  1
  Zn  Zn111  1  0.25119686  0.87657764  0.62552497  1
  Zn  Zn112  1  0.49972511  0.87738475  0.87819190  1
  Zn  Zn113  1  0.62411463  0.62621530  0.49807231  1
  Zn  Zn114  1  0.87343118  0.12623399  0.74946874  1
  Zn  Zn115  1  0.37361607  0.50055862  0.87687076  1
  Zn  Zn116  1  0.12571585  0.87481110  0.25096718  1
  Zn  Zn117  1  -0.00076994  0.37447090  0.37648218  1
  Zn  Zn118  1  0.87385180  0.12276337  0.24804163  1
  Zn  Zn119  1  0.00021950  0.49922795  -0.00123975  1
  Zn  Zn120  1  0.37932753  -0.00069916  0.87731749  1
  Zn  Zn121  1  0.12531155  0.00035673  0.62395057  1
  Zn  Zn122  1  0.12396678  0.49832202  0.62364585  1
  Zn  Zn123  1  0.62577057  0.75152457  0.87652338  1
  Zn  Zn124  1  0.75242982  0.00092221  0.25027294  1
  Zn  Zn125  1  0.49931038  0.50216660  0.49673023  1
  Zn  Zn126  1  0.37691976  0.50274595  0.37573517  1
  Zn  Zn127  1  0.87563738  0.62494339  0.75053131  1
  Zn  Zn128  1  0.18734407  0.18470333  0.18705564  1
  Zn  Zn129  1  0.18582333  0.18862313  0.68668697  1
  Zn  Zn130  1  0.18635785  0.68638071  0.18776221  1
  Zn  Zn131  1  0.18592978  0.68705650  0.68596265  1
  Zn  Zn132  1  0.68922502  0.18634186  0.18790627  1
  Zn  Zn133  1  0.68604336  0.18942615  0.68856293  1
  Zn  Zn134  1  0.68615848  0.68817971  0.18824263  1
  Zn  Zn135  1  0.68666522  0.68767564  0.68775225  1
  Zn  Zn136  1  0.31222688  0.31263430  0.31349595  1
  Zn  Zn137  1  0.31336907  0.31297660  0.81214907  1
  Zn  Zn138  1  0.31351677  0.81426191  0.31449313  1
  Zn  Zn139  1  0.31496401  0.81307327  0.81566588  1
  Zn  Zn140  1  0.81308783  0.31222225  0.31339316  1
  Zn  Zn141  1  0.81204122  0.31162467  0.81108663  1
  Zn  Zn142  1  0.81313827  0.81310132  0.31272013  1
  Zn  Zn143  1  0.81275962  0.81189160  0.81270211  1
  Zn  Zn144  1  0.18606288  0.43559994  0.43683935  1
  Zn  Zn145  1  0.18610899  0.43768546  0.93600031  1
  Zn  Zn146  1  0.18744591  0.93699933  0.43682778  1
  Zn  Zn147  1  0.18872401  0.93691848  0.93622061  1
  Zn  Zn148  1  0.68529970  0.44029809  0.43843360  1
  Zn  Zn149  1  0.68685449  0.43830350  0.93713096  1
  Zn  Zn150  1  0.68845427  0.93759314  0.43726397  1
  Zn  Zn151  1  0.68636732  0.93660570  0.93657247  1
  Zn  Zn152  1  0.31308592  0.06186731  0.06182243  1
  Zn  Zn153  1  0.31175983  0.06291120  0.56369845  1
  Zn  Zn154  1  0.31376251  0.56322773  0.06640434  1
  Zn  Zn155  1  0.31429941  0.56265565  0.56261076  1
  Zn  Zn156  1  0.81185684  0.06267404  0.06218681  1
  Zn  Zn157  1  0.81350063  0.06302716  0.56092115  1
  Zn  Zn158  1  0.81310035  0.56121640  0.06130851  1
  Zn  Zn159  1  0.81281098  0.56347204  0.56273900  1
  Zn  Zn160  1  0.43688685  0.43635756  0.18746253  1
  Zn  Zn161  1  0.43535005  0.43915363  0.68710712  1
  Zn  Zn162  1  0.43801603  0.93709480  0.18611611  1
  Zn  Zn163  1  0.43645091  0.93733759  0.68782118  1
  Zn  Zn164  1  0.93795385  0.43572166  0.18716347  1
  Zn  Zn165  1  0.93604454  0.43764055  0.68715098  1
  Zn  Zn166  1  0.93842616  0.93679104  0.18931870  1
  Zn  Zn167  1  0.93803141  0.93870767  0.68778169  1
  Zn  Zn168  1  0.06345031  0.06247518  0.31253684  1
  Zn  Zn169  1  0.06268326  0.06272762  0.81239839  1
  Zn  Zn170  1  0.06399376  0.56251343  0.31434107  1
  Zn  Zn171  1  0.06290970  0.56244047  0.81314765  1
  Zn  Zn172  1  0.56279756  0.06279735  0.31118647  1
  Zn  Zn173  1  0.56176818  0.06146881  0.81301482  1
  Zn  Zn174  1  0.56392225  0.56337791  0.31373378  1
  Zn  Zn175  1  0.56265178  0.56299557  0.81309446  1
  Zn  Zn176  1  0.43695816  0.18836335  0.43685986  1
  Zn  Zn177  1  0.43728318  0.18732491  0.93601256  1
  Zn  Zn178  1  0.43449841  0.68761155  0.43433617  1
  Zn  Zn179  1  0.43560906  0.68694627  0.93706804  1
  Zn  Zn180  1  0.93669033  0.18832867  0.43742586  1
  Zn  Zn181  1  0.93699510  0.18652910  0.93726024  1
  Zn  Zn182  1  0.93702625  0.68670228  0.43830360  1
  Zn  Zn183  1  0.93811650  0.68623667  0.93650235  1
  Zn  Zn184  1  0.06104936  0.31203480  0.06199004  1
  Zn  Zn185  1  0.06269177  0.31330666  0.56316000  1
  Zn  Zn186  1  0.06489821  0.81171003  0.06347815  1
  Zn  Zn187  1  0.06386936  0.81199678  0.56342234  1
  Zn  Zn188  1  0.56195360  0.31142685  0.06231196  1
  Zn  Zn189  1  0.56133462  0.31346595  0.56216485  1
  Zn  Zn190  1  0.56252078  0.81239772  0.06254455  1
  Zn  Zn191  1  0.56339245  0.81157887  0.56342677  1
  O  O192  1  0.12386867  0.11737878  0.11669341  1
  O  O193  1  0.11335343  0.12498713  0.61877866  1
  O  O194  1  0.11891690  0.61875390  0.12021501  1
  O  O195  1  0.11747959  0.62335401  0.61709645  1
  O  O196  1  0.62703385  0.11677189  0.11669694  1
  O  O197  1  0.62009413  0.11990728  0.61902511  1
  O  O198  1  0.62050516  0.61841869  0.11991071  1
  O  O199  1  0.61500495  0.61980626  0.62532833  1
  O  O200  1  0.38207568  0.37473366  0.38102702  1
  O  O201  1  0.38387804  0.37635413  0.88183109  1
  O  O202  1  0.38237453  0.88239251  0.38131261  1
  O  O203  1  0.37922398  0.87967346  0.87795419  1
  O  O204  1  0.87491672  0.38255128  0.38188659  1
  O  O205  1  0.87898128  0.37975975  0.88010424  1
  O  O206  1  0.88129755  0.87998292  0.38159983  1
  O  O207  1  0.88013408  0.88039919  0.88136046  1
  O  O208  1  0.25751410  0.00009371  0.36836460  1
  O  O209  1  0.24844619  0.00739996  0.86333656  1
  O  O210  1  0.24920132  0.49874244  0.36252620  1
  O  O211  1  0.25119111  0.50515419  0.86607733  1
  O  O212  1  0.75717078  0.00635761  0.37563289  1
  O  O213  1  0.75530630  0.00453333  0.86979387  1
  O  O214  1  0.75527394  0.50565758  0.36877774  1
  O  O215  1  0.75476213  0.50470751  0.87002092  1
  O  O216  1  0.24370081  0.49345508  0.13265931  1
  O  O217  1  0.24975275  0.49511385  0.63392397  1
  O  O218  1  0.24477513  0.99150974  0.12957642  1
  O  O219  1  0.24633072  1.00000693  0.63788860  1
  O  O220  1  0.74502178  0.49443627  0.13051183  1
  O  O221  1  0.74396460  0.49578803  0.63017921  1
  O  O222  1  0.74114971  0.99342551  0.12575060  1
  O  O223  1  0.74564960  0.99507132  0.62900414  1
  O  O224  1  0.00558480  0.36368665  0.25029453  1
  O  O225  1  0.00084727  0.36842983  0.75570083  1
  O  O226  1  0.00164586  0.86668785  0.25732996  1
  O  O227  1  0.00763670  0.87120869  0.75472578  1
  O  O228  1  0.50618313  0.36881025  0.25422039  1
  O  O229  1  0.50357754  0.37706155  0.75969488  1
  O  O230  1  0.50562470  0.86855496  0.25447962  1
  O  O231  1  0.50624796  0.86456105  0.74634956  1
  O  O232  1  0.49410001  0.13196274  0.24767692  1
  O  O233  1  0.49372024  0.12658564  0.74261212  1
  O  O234  1  0.50299565  0.63518244  0.24492287  1
  O  O235  1  0.49564352  0.63159052  0.74300612  1
  O  O236  1  0.99899083  0.13716025  0.24775949  1
  O  O237  1  0.99932679  0.12970298  0.74094631  1
  O  O238  1  0.99432077  0.62945895  0.24470347  1
  O  O239  1  1.00002694  0.63189025  0.74374347  1
  O  O240  1  0.36850187  0.25462532  0.00546123  1
  O  O241  1  0.36915427  0.25510988  0.50516415  1
  O  O242  1  0.36080666  0.74903753  0.00297423  1
  O  O243  1  0.36560833  0.75685018  0.49967445  1
  O  O244  1  0.86908805  0.25534911  0.00486912  1
  O  O245  1  0.86703299  0.25762601  0.50074066  1
  O  O246  1  0.87079778  0.75493191  0.00631552  1
  O  O247  1  0.87070565  0.75673785  0.50606990  1
  O  O248  1  0.12961636  0.24528770  0.49433030  1
  O  O249  1  0.13001777  0.24467325  0.99454682  1
  O  O250  1  0.13226022  0.74556430  0.49535546  1
  O  O251  1  0.13571491  0.74304638  1.00013511  1
  O  O252  1  0.62981212  0.24488972  0.49389785  1
  O  O253  1  0.63179826  0.24056201  1.00091766  1
  O  O254  1  0.63447999  0.74867831  0.49847466  1
  O  O255  1  0.63331973  0.74225835  1.00048309  1
  O  O256  1  0.49284988  0.24948059  0.13143026  1
  O  O257  1  0.49311976  0.24354299  0.62534925  1
  O  O258  1  0.50020826  0.74473526  0.13497445  1
  O  O259  1  0.50021416  0.74114639  0.63494374  1
  O  O260  1  0.99443052  0.24879710  0.13373092  1
  O  O261  1  0.99872648  0.24116496  0.63004439  1
  O  O262  1  0.99524245  0.74416396  0.13062734  1
  O  O263  1  0.99482540  0.74515329  0.62972261  1
  O  O264  1  0.00515576  0.25119261  0.36541305  1
  O  O265  1  0.00424363  0.25445365  0.86964948  1
  O  O266  1  0.00429949  0.75468740  0.37084811  1
  O  O267  1  0.00148995  0.75688399  0.86876242  1
  O  O268  1  0.50648302  0.25517531  0.36861784  1
  O  O269  1  0.50220349  0.26375092  0.87419732  1
  O  O270  1  0.50223805  0.75724248  0.36645375  1
  O  O271  1  0.50232087  0.74694748  0.86098438  1
  O  O272  1  0.24325269  0.13185884  0.50000777  1
  O  O273  1  0.24372797  0.13118404  0.99407082  1
  O  O274  1  0.24503676  0.63459702  0.49981144  1
  O  O275  1  0.24529152  0.63119678  0.99747644  1
  O  O276  1  0.74360948  0.13082095  0.49544921  1
  O  O277  1  0.74179993  0.12956351  0.99482261  1
  O  O278  1  0.75101175  0.63245983  0.49358031  1
  O  O279  1  0.74522112  0.62907994  0.99571553  1
  O  O280  1  0.25443769  0.36932113  0.00465780  1
  O  O281  1  0.25540959  0.36901600  0.50497645  1
  O  O282  1  0.24756697  0.86543169  0.00807775  1
  O  O283  1  0.25496537  0.86710104  0.50137283  1
  O  O284  1  0.75405837  0.37001962  0.00525811  1
  O  O285  1  0.75317689  0.37123359  0.50512821  1
  O  O286  1  0.75626161  0.86889066  0.00562970  1
  O  O287  1  0.75671521  0.87075818  0.50617827  1
  O  O288  1  0.13157904  0.49348965  0.24477969  1
  O  O289  1  0.13816293  0.49937997  0.74799038  1
  O  O290  1  0.13170489  0.99836746  0.24366160  1
  O  O291  1  0.13252715  0.99210886  0.74973120  1
  O  O292  1  0.63140836  0.49400173  0.24405102  1
  O  O293  1  0.63017393  0.49501396  0.74431361  1
  O  O294  1  0.62738079  0.99521331  0.24039815  1
  O  O295  1  0.63162835  0.99499268  0.74289645  1
  O  O296  1  0.37105726  0.00486377  0.25474909  1
  O  O297  1  0.36415343  0.00704362  0.74912216  1
  O  O298  1  0.36186594  0.49740849  0.24955505  1
  O  O299  1  0.36335471  0.50654105  0.75131885  1
  O  O300  1  0.87379164  0.00172202  0.25849159  1
  O  O301  1  0.86833203  0.00080180  0.75709448  1
  O  O302  1  0.86954824  0.50451289  0.25424075  1
  O  O303  1  0.86682775  0.50120461  0.75674027  1
  O  O304  1  0.12166542  0.36675175  0.36743677  1
  O  O305  1  0.11786017  0.36793948  0.87329895  1
  O  O306  1  0.11760483  0.86790335  0.37412249  1
  O  O307  1  0.11915533  0.87405181  0.86442833  1
  O  O308  1  0.62079586  0.36927819  0.36881486  1
  O  O309  1  0.61509228  0.37568071  0.87022311  1
  O  O310  1  0.61880707  0.87554513  0.36858284  1
  O  O311  1  0.62400278  0.87124891  0.86562668  1
  O  O312  1  0.37634976  0.13164492  0.13154861  1
  O  O313  1  0.38043870  0.13065770  0.62941595  1
  O  O314  1  0.38416539  0.62787431  0.13084289  1
  O  O315  1  0.38473897  0.62760812  0.63144080  1
  O  O316  1  0.87712633  0.13273883  0.12636944  1
  O  O317  1  0.88712263  0.12698965  0.62489567  1
  O  O318  1  0.87979402  0.62956852  0.13018268  1
  O  O319  1  0.88200176  0.63244075  0.62683026  1
  O  O320  1  0.25429110  0.25497745  0.11924881  1
  O  O321  1  0.25559286  0.25528723  0.61929571  1
  O  O322  1  0.24948817  0.75743772  0.11868269  1
  O  O323  1  0.25051619  0.75220384  0.61233762  1
  O  O324  1  0.75507247  0.25620942  0.11971171  1
  O  O325  1  0.74922925  0.25748682  0.61784501  1
  O  O326  1  0.75674706  0.75413310  0.11999294  1
  O  O327  1  0.75608961  0.75613325  0.62081525  1
  O  O328  1  0.24313814  0.24802857  0.38151165  1
  O  O329  1  0.24416149  0.24593488  0.88014073  1
  O  O330  1  0.24428841  0.75125044  0.38562827  1
  O  O331  1  0.24733459  0.74353723  0.88482889  1
  O  O332  1  0.74369939  0.24546017  0.38076441  1
  O  O333  1  0.74837096  0.24372409  0.88195563  1
  O  O334  1  0.75094075  0.74456088  0.38141380  1
  O  O335  1  0.75072475  0.74283384  0.88240214  1
  O  O336  1  0.00686059  0.11702128  -0.00006073  1
  O  O337  1  0.00470112  0.12101717  0.50714001  1
  O  O338  1  0.00640912  0.62358311  0.00693453  1
  O  O339  1  0.00483320  0.61992844  0.50535092  1
  O  O340  1  0.51375611  0.12640192  0.00163113  1
  O  O341  1  0.50548770  0.11977357  0.50507625  1
  O  O342  1  0.50514086  0.62051276  0.00598619  1
  O  O343  1  0.49958607  0.62731575  0.51261483  1
  O  O344  1  0.49343620  0.37505731  0.49261137  1
  O  O345  1  0.49574748  0.38015784  0.99359376  1
  O  O346  1  0.49566231  0.88097229  0.49577467  1
  O  O347  1  0.49734804  0.87539299  0.99779980  1
  O  O348  1  0.99257879  0.38147615  0.49946233  1
  O  O349  1  0.99245904  0.37520915  0.99249257  1
  O  O350  1  0.99543393  0.87994999  0.49563388  1
  O  O351  1  0.99564679  0.87892394  0.99497011  1
  O  O352  1  0.49918929  0.49104094  0.37513754  1
  O  O353  1  0.49794101  0.49113466  0.88202089  1
  O  O354  1  0.49536794  0.99544746  0.38093975  1
  O  O355  1  0.49823387  0.99701830  0.87809846  1
  O  O356  1  0.99268252  0.49863288  0.38117061  1
  O  O357  1  0.99325869  0.49302165  0.87558588  1
  O  O358  1  0.99565301  0.99446970  0.38102596  1
  O  O359  1  0.99484479  0.99395698  0.88049027  1
  O  O360  1  0.00673912  -0.00133566  0.11799358  1
  O  O361  1  0.00098020  0.00955998  0.61923419  1
  O  O362  1  0.00593083  0.50573884  0.12417331  1
  O  O363  1  0.00034459  0.50674955  0.61852308  1
  O  O364  1  0.51446554  0.00126241  0.12355874  1
  O  O365  1  0.50601326  0.00609693  0.61966550  1
  O  O366  1  0.50641071  0.50422355  0.12121766  1
  O  O367  1  0.50458694  0.51109535  0.62637731  1
  O  O368  1  0.24395042  0.38019038  0.24342428  1
  O  O369  1  0.25091400  0.38439092  0.74464942  1
  O  O370  1  0.24916182  0.87979958  0.24107300  1
  O  O371  1  0.24182384  0.88262108  0.75080134  1
  O  O372  1  0.74470982  0.38006271  0.24431908  1
  O  O373  1  0.74345537  0.38139141  0.74463915  1
  O  O374  1  0.74449607  0.87552024  0.24297935  1
  O  O375  1  0.74543388  0.88029173  0.74387832  1
  O  O376  1  0.25731212  0.11769040  0.25122215  1
  O  O377  1  0.25325933  0.11846851  0.75380679  1
  O  O378  1  0.24960227  0.61262812  0.24987884  1
  O  O379  1  0.25354820  0.61910230  0.75395432  1
  O  O380  1  0.75254433  0.12312093  0.25944793  1
  O  O381  1  0.74998242  0.11823970  0.75556448  1
  O  O382  1  0.75607208  0.61975442  0.25406432  1
  O  O383  1  0.75074740  0.61869603  0.75657612  1
  O  O384  1  0.37399662  0.11855403  0.36847229  1
  O  O385  1  0.36687136  0.12647954  0.86712573  1
  O  O386  1  0.37075852  0.62039781  0.36863494  1
  O  O387  1  0.36732782  0.62203376  0.86827542  1
  O  O388  1  0.86874446  0.11840722  0.37552173  1
  O  O389  1  0.86775374  0.11702052  0.87494345  1
  O  O390  1  0.87004737  0.61929909  0.36839601  1
  O  O391  1  0.86846508  0.61754646  0.87398903  1
  O  O392  1  0.13024419  0.37886228  0.12957985  1
  O  O393  1  0.13413010  0.37744272  0.62752058  1
  O  O394  1  0.13582502  0.88029430  0.12681596  1
  O  O395  1  0.12552601  0.87780577  0.63808048  1
  O  O396  1  0.63047899  0.38000220  0.12994894  1
  O  O397  1  0.62864573  0.38175460  0.63005356  1
  O  O398  1  0.63161799  0.88302436  0.12950058  1
  O  O399  1  0.63153535  0.88172560  0.63001552  1
  O  O400  1  0.11786600  0.25316183  0.25326123  1
  O  O401  1  0.11773913  0.25108639  0.75733025  1
  O  O402  1  0.11825141  0.75005782  0.25713237  1
  O  O403  1  0.12016585  0.75977002  0.75131431  1
  O  O404  1  0.62045445  0.25541588  0.25445244  1
  O  O405  1  0.62095476  0.25955739  0.75290381  1
  O  O406  1  0.61521580  0.75749093  0.25048994  1
  O  O407  1  0.61673107  0.75587163  0.75048593  1
  O  O408  1  0.37949530  0.24521480  0.24476837  1
  O  O409  1  0.37550269  0.24378987  0.74220200  1
  O  O410  1  0.38896828  0.75196189  0.24934567  1
  O  O411  1  0.38337610  0.74433088  0.74757934  1
  O  O412  1  0.88399476  0.25053166  0.24469375  1
  O  O413  1  0.88265976  0.24656091  0.74678200  1
  O  O414  1  0.88093439  0.74371273  0.24438188  1
  O  O415  1  0.88234428  0.74989634  0.74311493  1
  O  O416  1  0.37764201  0.49109502  0.49771604  1
  O  O417  1  0.38117075  0.49272864  1.00112544  1
  O  O418  1  0.38070363  0.99639861  0.49509548  1
  O  O419  1  0.37807460  0.99865069  0.99703479  1
  O  O420  1  0.87954095  0.49537803  0.49434876  1
  O  O421  1  0.87602517  0.49217263  0.99331260  1
  O  O422  1  0.88166463  0.99390111  0.49485566  1
  O  O423  1  0.88028681  0.99307858  0.99526459  1
  O  O424  1  0.12063129  0.00415941  0.00410768  1
  O  O425  1  0.11886209  0.00626886  0.50134127  1
  O  O426  1  0.12420014  0.50555350  0.00747832  1
  O  O427  1  0.11842385  0.50623857  0.50003008  1
  O  O428  1  0.62797331  0.00915533  0.00903852  1
  O  O429  1  0.61963756  0.00555522  0.50559366  1
  O  O430  1  0.61931197  0.50509606  0.00666310  1
  O  O431  1  0.62057040  0.50441311  0.50877108  1
  O  O432  1  0.36875251  0.36814098  0.11929198  1
  O  O433  1  0.37003226  0.36947779  0.61888107  1
  O  O434  1  0.36138349  0.87341100  0.12329591  1
  O  O435  1  0.37229834  0.87312666  0.61647454  1
  O  O436  1  0.86871374  0.36956497  0.11909641  1
  O  O437  1  0.86568436  0.37486490  0.61785052  1
  O  O438  1  0.87102826  0.86870835  0.11971878  1
  O  O439  1  0.87061337  0.87049886  0.61957651  1
  O  O440  1  0.12667207  0.13144361  0.38211276  1
  O  O441  1  0.13037440  0.13110735  0.88028234  1
  O  O442  1  0.12748200  0.63241213  0.38261507  1
  O  O443  1  0.13139846  0.62618766  0.88270963  1
  O  O444  1  0.62975881  0.13035146  0.38100915  1
  O  O445  1  0.63178416  0.12564265  0.88476739  1
  O  O446  1  0.63443468  0.62850706  0.37703357  1
  O  O447  1  0.63204141  0.62558201  0.88282480  1
