# generated using pymatgen
data_V3Zn3O8
_symmetry_space_group_name_H-M   'P 1'
_cell_length_a   17.09159107
_cell_length_b   17.09199819
_cell_length_c   17.09086586
_cell_angle_alpha   89.98395005
_cell_angle_beta   90.00086678
_cell_angle_gamma   89.99636174
_symmetry_Int_Tables_number   1
_chemical_formula_structural   V3Zn3O8
_chemical_formula_sum   'V96 Zn96 O256'
_cell_volume   4992.74492892
_cell_formula_units_Z   32
loop_
 _symmetry_equiv_pos_site_id
 _symmetry_equiv_pos_as_xyz
  1  'x, y, z'
loop_
 _atom_site_type_symbol
 _atom_site_label
 _atom_site_symmetry_multiplicity
 _atom_site_fract_x
 _atom_site_fract_y
 _atom_site_fract_z
 _atom_site_occupancy
  V  V0  1  0.49799312  0.87615343  0.87760217  1
  V  V1  1  0.00019108  0.49988434  -0.00260206  1
  V  V2  1  0.12523743  0.12407231  0.49990021  1
  V  V3  1  0.25051163  0.12596195  0.37681462  1
  V  V4  1  0.62485344  0.12450612  0.50062555  1
  V  V5  1  0.62414315  0.00018861  0.62552338  1
  V  V6  1  0.50057928  0.37528710  0.87455698  1
  V  V7  1  0.24838954  0.87337037  0.62649816  1
  V  V8  1  0.75011640  0.62564055  0.37459755  1
  V  V9  1  0.74963394  0.62449191  0.87444005  1
  V  V10  1  0.00073489  0.75097737  0.25055940  1
  V  V11  1  0.00055301  0.37469459  0.37428259  1
  V  V12  1  0.12634434  0.12549627  -0.00080229  1
  V  V13  1  0.37605455  0.24939080  0.62533251  1
  V  V14  1  0.50030610  0.24951010  0.74950898  1
  V  V15  1  -0.00041477  0.12367259  0.62431160  1
  V  V16  1  0.37534403  0.25152255  0.12505748  1
  V  V17  1  0.62453464  0.62541264  0.49915817  1
  V  V18  1  0.75073627  0.50025424  0.24839596  1
  V  V19  1  0.12403782  0.75021584  0.37528670  1
  V  V20  1  0.12562858  0.24971835  0.37495814  1
  V  V21  1  0.37378173  0.62393010  0.75029604  1
  V  V22  1  0.12253721  0.87343919  0.75047386  1
  V  V23  1  0.00091501  0.24966124  0.74869280  1
  V  V24  1  0.74990646  0.75043370  0.00093433  1
  V  V25  1  0.87563851  0.37474012  0.49807451  1
  V  V26  1  0.37468337  0.87507098  0.50090914  1
  V  V27  1  0.62579395  0.00066467  0.12575144  1
  V  V28  1  0.62354289  0.75104587  0.37390344  1
  V  V29  1  0.75018473  -0.00009835  0.75105469  1
  V  V30  1  0.62448861  0.87595370  0.25073551  1
  V  V31  1  0.12529947  0.24932807  0.87409701  1
  V  V32  1  0.25054275  0.75086221  0.00150657  1
  V  V33  1  0.75025593  0.37458469  0.62405435  1
  V  V34  1  0.87314914  0.74971614  0.62620891  1
  V  V35  1  0.49804726  0.62754989  0.12546040  1
  V  V36  1  0.12724104  -0.00050977  0.12648279  1
  V  V37  1  0.25152541  0.62252386  0.37371470  1
  V  V38  1  0.74996105  0.50027405  0.75014796  1
  V  V39  1  0.12303755  -0.00088070  0.62423058  1
  V  V40  1  0.74978743  0.00012059  0.24909364  1
  V  V41  1  0.87460162  0.87585987  0.49935018  1
  V  V42  1  0.00137164  0.12464191  0.12492689  1
  V  V43  1  0.87557267  -0.00102930  0.37542204  1
  V  V44  1  0.25092867  0.37420812  0.62465938  1
  V  V45  1  0.62619193  0.37591372  0.24924721  1
  V  V46  1  0.49979456  0.87514912  0.37591757  1
  V  V47  1  0.24976625  0.24966859  -0.00103241  1
  V  V48  1  0.37613270  0.12625264  0.25188763  1
  V  V49  1  0.75021040  0.12532130  0.37425304  1
  V  V50  1  0.87410646  0.00088809  0.87505398  1
  V  V51  1  0.74838475  0.87454690  0.62573506  1
  V  V52  1  -0.00069591  0.62285001  0.62424576  1
  V  V53  1  0.62544231  0.50040077  0.12436557  1
  V  V54  1  0.62513905  0.37448323  0.74902389  1
  V  V55  1  0.87518380  0.75080486  0.12539827  1
  V  V56  1  0.49984071  0.00044476  0.00001783  1
  V  V57  1  0.25000712  0.37632407  0.12490427  1
  V  V58  1  0.00056451  -0.00051568  0.00016885  1
  V  V59  1  0.62580477  0.25028512  0.37422728  1
  V  V60  1  0.37581911  0.37507435  0.49971918  1
  V  V61  1  0.25067602  0.00083365  0.75299168  1
  V  V62  1  0.37316911  0.74936086  0.62640690  1
  V  V63  1  0.50088332  0.25152854  0.24986804  1
  V  V64  1  0.74866671  0.75045432  0.50032264  1
  V  V65  1  0.50089649  0.12635300  0.12506734  1
  V  V66  1  0.87529406  0.62546450  0.25024270  1
  V  V67  1  0.37545058  0.37529570  -0.00052459  1
  V  V68  1  0.62617145  0.12656275  -0.00031584  1
  V  V69  1  0.00168659  0.25031831  0.24985542  1
  V  V70  1  0.12672443  0.49962353  0.12569167  1
  V  V71  1  0.12580319  0.37395065  0.74831689  1
  V  V72  1  0.37455958  0.50027438  0.87354013  1
  V  V73  1  0.87679417  0.49964355  0.37420502  1
  V  V74  1  0.50096962  0.50084280  -0.00033937  1
  V  V75  1  0.24971696  0.49926854  0.74918247  1
  V  V76  1  0.49946555  0.62499549  0.62517453  1
  V  V77  1  0.49896723  0.75046211  0.75179616  1
  V  V78  1  0.62333548  0.87461877  0.75054797  1
  V  V79  1  0.62608731  0.24999295  0.87545974  1
  V  V80  1  0.87644295  0.24946688  0.12389039  1
  V  V81  1  0.49968162  0.50004054  0.49854748  1
  V  V82  1  -0.00079503  0.87397947  0.87542001  1
  V  V83  1  0.50008317  0.12469902  0.62605073  1
  V  V84  1  0.75101416  0.25039239  -0.00050568  1
  V  V85  1  0.25012149  -0.00038005  0.25010082  1
  V  V86  1  0.87567167  0.24881758  0.62488232  1
  V  V87  1  -0.00229048  0.74976458  0.75091506  1
  V  V88  1  0.87583826  0.12451637  0.24980841  1
  V  V89  1  0.00060254  0.62513663  0.12425307  1
  V  V90  1  0.62519752  0.49974055  0.62377523  1
  V  V91  1  0.49988478  0.37665221  0.37498936  1
  V  V92  1  0.87614333  0.37502441  -0.00107108  1
  V  V93  1  0.75068800  0.24989576  0.49943278  1
  V  V94  1  0.24806461  0.74844543  0.50097031  1
  V  V95  1  0.37559568  0.00024779  0.37689469  1
  Zn  Zn96  1  0.00015435  -0.00242694  0.49874542  1
  Zn  Zn97  1  0.25309063  0.49968894  0.24974315  1
  Zn  Zn98  1  0.12617185  0.87531968  0.24991686  1
  Zn  Zn99  1  0.12532190  0.62612101  -0.00331667  1
  Zn  Zn100  1  0.12296890  0.74745944  0.87634706  1
  Zn  Zn101  1  0.49933664  -0.00013109  0.50225087  1
  Zn  Zn102  1  0.62392452  0.74929304  0.87657279  1
  Zn  Zn103  1  0.12413823  0.62087168  0.50086699  1
  Zn  Zn104  1  0.75039012  0.37598381  0.12485623  1
  Zn  Zn105  1  0.00062166  0.37552071  0.87140405  1
  Zn  Zn106  1  0.12742081  0.37508359  0.25182805  1
  Zn  Zn107  1  0.87501141  0.87599038  0.00310446  1
  Zn  Zn108  1  0.37518176  0.62608735  0.25033085  1
  Zn  Zn109  1  0.25228949  0.12470918  0.87476377  1
  Zn  Zn110  1  0.24673765  0.62605923  0.87363410  1
  Zn  Zn111  1  0.12325120  0.49846506  0.62389883  1
  Zn  Zn112  1  0.87417989  0.12606345  0.74927351  1
  Zn  Zn113  1  0.87430949  0.62246869  0.74980397  1
  Zn  Zn114  1  0.00070159  0.87620551  0.37560590  1
  Zn  Zn115  1  0.87535103  0.49919474  0.87298510  1
  Zn  Zn116  1  0.37415321  0.49997444  0.37212700  1
  Zn  Zn117  1  0.37375202  0.00323749  0.87779679  1
  Zn  Zn118  1  0.37516074  0.12424182  0.75141465  1
  Zn  Zn119  1  0.75082874  0.12591379  0.87334117  1
  Zn  Zn120  1  0.25113150  0.25033568  0.50030908  1
  Zn  Zn121  1  0.37596089  0.75401278  0.12814753  1
  Zn  Zn122  1  0.49724044  0.75094895  0.24867525  1
  Zn  Zn123  1  0.25305055  0.87451643  0.12844438  1
  Zn  Zn124  1  0.75078797  0.87547704  0.12480887  1
  Zn  Zn125  1  0.37360447  0.87826616  0.00390104  1
  Zn  Zn126  1  0.62419568  0.62513725  -0.00017853  1
  Zn  Zn127  1  0.00100166  0.49983381  0.49979680  1
  Zn  Zn128  1  0.18867055  0.18699322  0.18791640  1
  Zn  Zn129  1  0.18777469  0.18679025  0.68584714  1
  Zn  Zn130  1  0.18687014  0.68638917  0.18759460  1
  Zn  Zn131  1  0.18387629  0.68590682  0.68956900  1
  Zn  Zn132  1  0.68933778  0.18838630  0.18588895  1
  Zn  Zn133  1  0.68834030  0.18605902  0.68819511  1
  Zn  Zn134  1  0.68521763  0.68760962  0.18695783  1
  Zn  Zn135  1  0.68546292  0.68768912  0.68902080  1
  Zn  Zn136  1  0.31127550  0.31421497  0.31225432  1
  Zn  Zn137  1  0.31248825  0.31204181  0.81186794  1
  Zn  Zn138  1  0.31405664  0.81093575  0.31089642  1
  Zn  Zn139  1  0.31189385  0.81322689  0.81626982  1
  Zn  Zn140  1  0.81364977  0.31278310  0.31081481  1
  Zn  Zn141  1  0.81334913  0.31280863  0.81243020  1
  Zn  Zn142  1  0.81193048  0.81370409  0.31207675  1
  Zn  Zn143  1  0.81315484  0.81264901  0.81354015  1
  Zn  Zn144  1  0.18532061  0.43809502  0.44140905  1
  Zn  Zn145  1  0.18746809  0.43592503  0.93530090  1
  Zn  Zn146  1  0.18881151  0.93703572  0.43789616  1
  Zn  Zn147  1  0.18511643  0.93409608  0.93785082  1
  Zn  Zn148  1  0.68830577  0.43844360  0.43591643  1
  Zn  Zn149  1  0.68796596  0.43769131  0.93804640  1
  Zn  Zn150  1  0.68741271  0.93839056  0.43792837  1
  Zn  Zn151  1  0.68637934  0.93632164  0.93806656  1
  Zn  Zn152  1  0.31342691  0.06329682  0.06307425  1
  Zn  Zn153  1  0.31167030  0.06209132  0.56459783  1
  Zn  Zn154  1  0.31326538  0.56550616  0.05976037  1
  Zn  Zn155  1  0.31165895  0.56087379  0.56102808  1
  Zn  Zn156  1  0.81229262  0.06367810  0.06171621  1
  Zn  Zn157  1  0.81219549  0.06150629  0.56250809  1
  Zn  Zn158  1  0.81307528  0.56424373  0.06221182  1
  Zn  Zn159  1  0.81402152  0.56213600  0.56137167  1
  Zn  Zn160  1  0.43614596  0.44228359  0.18863094  1
  Zn  Zn161  1  0.43696667  0.43702148  0.68649496  1
  Zn  Zn162  1  0.43677696  0.93685069  0.18759463  1
  Zn  Zn163  1  0.43603186  0.93720135  0.68853884  1
  Zn  Zn164  1  0.93914237  0.43676972  0.18658277  1
  Zn  Zn165  1  0.93627480  0.43690717  0.68794190  1
  Zn  Zn166  1  0.93931514  0.93489810  0.18844523  1
  Zn  Zn167  1  0.93643289  0.93705246  0.68776606  1
  Zn  Zn168  1  0.06248129  0.06211947  0.31354447  1
  Zn  Zn169  1  0.06270266  0.06341183  0.81192969  1
  Zn  Zn170  1  0.06364434  0.56343849  0.31172090  1
  Zn  Zn171  1  0.06473907  0.56389563  0.81106160  1
  Zn  Zn172  1  0.56158621  0.06153805  0.31369579  1
  Zn  Zn173  1  0.56299902  0.06289504  0.81322202  1
  Zn  Zn174  1  0.56244132  0.56284691  0.31015872  1
  Zn  Zn175  1  0.56374403  0.56285114  0.81255362  1
  Zn  Zn176  1  0.43888076  0.18863614  0.43951604  1
  Zn  Zn177  1  0.43649172  0.18587191  0.93562870  1
  Zn  Zn178  1  0.43596650  0.68919538  0.43770497  1
  Zn  Zn179  1  0.43393202  0.68764141  0.93872798  1
  Zn  Zn180  1  0.93964151  0.18606184  0.43773157  1
  Zn  Zn181  1  0.94007634  0.18658972  0.93562784  1
  Zn  Zn182  1  0.93713051  0.68859422  0.43911765  1
  Zn  Zn183  1  0.93426026  0.68648072  0.93735154  1
  Zn  Zn184  1  0.06350064  0.31365097  0.06186731  1
  Zn  Zn185  1  0.06334077  0.31131373  0.56097631  1
  Zn  Zn186  1  0.06569106  0.81510261  0.06303702  1
  Zn  Zn187  1  0.06024943  0.81062951  0.56171191  1
  Zn  Zn188  1  0.56308440  0.31424043  0.06246764  1
  Zn  Zn189  1  0.56233524  0.31167421  0.56162964  1
  Zn  Zn190  1  0.56564504  0.81281419  0.06245361  1
  Zn  Zn191  1  0.56062437  0.81236849  0.56258555  1
  O  O192  1  0.11983520  0.12037588  0.11908843  1
  O  O193  1  0.11945006  0.11913662  0.61906935  1
  O  O194  1  0.11859688  0.61460536  0.12126498  1
  O  O195  1  0.11097719  0.62440006  0.62450762  1
  O  O196  1  0.61963024  0.12152020  0.12016973  1
  O  O197  1  0.62042921  0.12009360  0.61974087  1
  O  O198  1  0.61641307  0.61767854  0.12310709  1
  O  O199  1  0.61921640  0.61974705  0.61896519  1
  O  O200  1  0.38274045  0.37541021  0.38135080  1
  O  O201  1  0.38181985  0.37968546  0.88002699  1
  O  O202  1  0.37968483  0.88039621  0.38170156  1
  O  O203  1  0.38889552  0.87840117  0.87689312  1
  O  O204  1  0.88011104  0.37961060  0.37877968  1
  O  O205  1  0.87785614  0.37581620  0.88793172  1
  O  O206  1  0.87365689  0.88125153  0.38195858  1
  O  O207  1  0.88019050  0.88648472  0.87674910  1
  O  O208  1  0.25620450  0.00662240  0.37037171  1
  O  O209  1  0.24888045  -0.00163065  0.86370631  1
  O  O210  1  0.24771089  0.51155758  0.37503940  1
  O  O211  1  0.25808681  0.49894919  0.86758070  1
  O  O212  1  0.75455283  0.00701991  0.36885895  1
  O  O213  1  0.75869129  -0.00038183  0.87081084  1
  O  O214  1  0.75591474  0.50628170  0.36866306  1
  O  O215  1  0.74953109  0.50825120  0.86955913  1
  O  O216  1  0.24035610  0.49577095  0.12043559  1
  O  O217  1  0.25036323  0.49198286  0.63219584  1
  O  O218  1  0.24396342  1.00284639  0.13311891  1
  O  O219  1  0.24327033  0.99278001  0.63317341  1
  O  O220  1  0.74458109  0.50013265  0.13124694  1
  O  O221  1  0.74411567  0.49437132  0.62867254  1
  O  O222  1  0.74360322  1.00090953  0.13132193  1
  O  O223  1  0.74412463  0.99371093  0.63090825  1
  O  O224  1  0.00118911  0.36742400  0.25597034  1
  O  O225  1  0.00679065  0.36759585  0.74893434  1
  O  O226  1  0.00371846  0.86591324  0.25478271  1
  O  O227  1  0.00357728  0.86951782  0.75476416  1
  O  O228  1  0.50619155  0.37047989  0.25489418  1
  O  O229  1  0.50651743  0.37015302  0.75452895  1
  O  O230  1  0.50755664  0.87561660  0.25837158  1
  O  O231  1  0.50375218  0.87033909  0.75788651  1
  O  O232  1  0.49583707  0.13203865  0.24542884  1
  O  O233  1  0.50130147  0.13231109  0.74322285  1
  O  O234  1  0.50122240  0.62700655  0.23786582  1
  O  O235  1  0.49479560  0.62972945  0.74423400  1
  O  O236  1  0.99437796  0.13062636  0.24447920  1
  O  O237  1  0.99888365  0.13168555  0.74185857  1
  O  O238  1  0.99414217  0.63061738  0.24395981  1
  O  O239  1  0.99581887  0.63063239  0.74151329  1
  O  O240  1  0.37098366  0.25593058  0.00571793  1
  O  O241  1  0.37586409  0.25747158  0.50759248  1
  O  O242  1  0.36126052  0.75254720  0.00177573  1
  O  O243  1  0.36831040  0.75569822  0.50750844  1
  O  O244  1  0.87289370  0.25638972  0.00398760  1
  O  O245  1  0.86895368  0.25460148  0.50405979  1
  O  O246  1  0.86552758  0.75033128  0.00690658  1
  O  O247  1  0.86657043  0.75567340  0.50546673  1
  O  O248  1  0.12725886  0.24206366  0.49236271  1
  O  O249  1  0.12997507  0.24544032  0.99494636  1
  O  O250  1  0.13009023  0.74741866  0.49177099  1
  O  O251  1  0.13630549  0.74862795  0.99917471  1
  O  O252  1  0.63140306  0.24518657  0.49384181  1
  O  O253  1  0.63058493  0.24687870  0.99539573  1
  O  O254  1  0.62972417  0.74457421  0.49516019  1
  O  O255  1  0.63807340  0.74699484  0.99834780  1
  O  O256  1  0.49520319  0.24608727  0.13041839  1
  O  O257  1  0.49665213  0.24505447  0.63072865  1
  O  O258  1  0.50177380  0.73857537  0.12325983  1
  O  O259  1  0.49322988  0.74444342  0.63095714  1
  O  O260  1  0.99603440  0.24395039  0.12923430  1
  O  O261  1  0.99461919  0.24374405  0.62925744  1
  O  O262  1  0.99580091  0.74436914  0.12967810  1
  O  O263  1  0.99244118  0.74282517  0.63070991  1
  O  O264  1  0.00515055  0.25428975  0.36884558  1
  O  O265  1  0.00739300  0.25088564  0.86726880  1
  O  O266  1  0.00895675  0.74790688  0.36976415  1
  O  O267  1  -0.00357091  0.75669658  0.86908538  1
  O  O268  1  0.50692748  0.25597360  0.36921942  1
  O  O269  1  0.50638137  0.25662723  0.86997276  1
  O  O270  1  0.50722317  0.75684476  0.37575941  1
  O  O271  1  0.50038933  0.75866366  0.87080940  1
  O  O272  1  0.24382711  0.12631497  0.49437119  1
  O  O273  1  0.24354125  0.13256236  0.99978977  1
  O  O274  1  0.24784336  0.63139181  0.49279187  1
  O  O275  1  0.24887371  0.63777119  0.99669309  1
  O  O276  1  0.74459367  0.13096862  0.49413623  1
  O  O277  1  0.74364575  0.13264939  0.99779369  1
  O  O278  1  0.74401432  0.63036259  0.49441106  1
  O  O279  1  0.74952406  0.63241041  0.99171110  1
  O  O280  1  0.25655734  0.36933352  0.00500234  1
  O  O281  1  0.25811983  0.37307835  0.50659842  1
  O  O282  1  0.25042690  0.86298638  0.00163019  1
  O  O283  1  0.25510869  0.86839783  0.50709943  1
  O  O284  1  0.76046482  0.37017541  0.00156748  1
  O  O285  1  0.75479988  0.36925771  0.50402529  1
  O  O286  1  0.75195347  0.86331831  0.00140627  1
  O  O287  1  0.75328350  0.86919095  0.50659547  1
  O  O288  1  0.12515394  0.49822425  0.23546798  1
  O  O289  1  0.13171972  0.49160910  0.74724125  1
  O  O290  1  0.13267796  1.00216375  0.24461863  1
  O  O291  1  0.13119662  0.99348394  0.74419503  1
  O  O292  1  0.63171007  0.49447927  0.24502378  1
  O  O293  1  0.62941753  0.49371654  0.74270417  1
  O  O294  1  0.63043841  0.99686678  0.24548152  1
  O  O295  1  0.63040146  0.99404537  0.74491100  1
  O  O296  1  0.37107257  0.00803543  0.25726090  1
  O  O297  1  0.36154454  -0.00050424  0.75067904  1
  O  O298  1  0.37087429  0.50688574  0.25457525  1
  O  O299  1  0.37074272  0.50430791  0.75425784  1
  O  O300  1  0.86974557  0.00607187  0.25437348  1
  O  O301  1  0.86896236  0.00012164  0.75939804  1
  O  O302  1  0.87075604  0.50571722  0.25397009  1
  O  O303  1  0.86489440  0.49978434  0.75312302  1
  O  O304  1  0.11857882  0.36796928  0.37386719  1
  O  O305  1  0.12315351  0.36724410  0.86704408  1
  O  O306  1  0.12527783  0.86119478  0.37524635  1
  O  O307  1  0.11481600  0.87335952  0.86756278  1
  O  O308  1  0.62054571  0.36945917  0.36934532  1
  O  O309  1  0.61988350  0.37009256  0.86896803  1
  O  O310  1  0.62003458  0.87079067  0.37131871  1
  O  O311  1  0.61435872  0.87372533  0.86879387  1
  O  O312  1  0.38176424  0.13242975  0.13182872  1
  O  O313  1  0.38213752  0.13099001  0.62721431  1
  O  O314  1  0.38869102  0.62556510  0.12374425  1
  O  O315  1  0.38073631  0.62993006  0.62993168  1
  O  O316  1  0.88193967  0.12986883  0.12997894  1
  O  O317  1  0.88063907  0.13148885  0.62496508  1
  O  O318  1  0.88101347  0.63029069  0.13156003  1
  O  O319  1  0.88078175  0.63189498  0.62612685  1
  O  O320  1  0.25610421  0.25540990  0.11897672  1
  O  O321  1  0.25821525  0.25617804  0.62433846  1
  O  O322  1  0.24953325  0.74968383  0.11276880  1
  O  O323  1  0.25406808  0.75412488  0.62182791  1
  O  O324  1  0.75870695  0.25203162  0.11799587  1
  O  O325  1  0.75457121  0.25537686  0.61893201  1
  O  O326  1  0.75589477  0.74828686  0.11630342  1
  O  O327  1  0.75246256  0.75506165  0.61988089  1
  O  O328  1  0.24423028  0.24311473  0.37599312  1
  O  O329  1  0.24347626  0.24981043  0.88168267  1
  O  O330  1  0.24228667  0.74256305  0.38056713  1
  O  O331  1  0.24752979  0.75002072  0.88737421  1
  O  O332  1  0.74531760  0.24475147  0.37913176  1
  O  O333  1  0.74378788  0.24951191  0.88128199  1
  O  O334  1  0.74398724  0.74439527  0.38075517  1
  O  O335  1  0.74991426  0.74221151  0.88287913  1
  O  O336  1  0.00654131  0.11938389  0.00589151  1
  O  O337  1  0.00703937  0.12220294  0.50674878  1
  O  O338  1  -0.00250475  0.61390994  0.00601753  1
  O  O339  1  -0.00119403  0.62469584  0.51233747  1
  O  O340  1  0.50675874  0.12179738  0.00620771  1
  O  O341  1  0.50798360  0.12414017  0.50743533  1
  O  O342  1  0.50184572  0.61850265  0.00614687  1
  O  O343  1  0.50529698  0.62078366  0.50572152  1
  O  O344  1  0.49694890  0.38045090  0.49445739  1
  O  O345  1  0.49467446  0.38029300  0.99414744  1
  O  O346  1  0.49242243  0.87640929  0.49494300  1
  O  O347  1  0.50275117  0.88120204  0.99100034  1
  O  O348  1  0.99179790  0.37381770  0.49243116  1
  O  O349  1  0.99211854  0.38321279  0.99940950  1
  O  O350  1  0.98973965  0.87607429  0.49778321  1
  O  O351  1  0.99856562  0.88243343  0.99382665  1
  O  O352  1  0.50171189  0.49402277  0.38178964  1
  O  O353  1  0.49529883  0.49403535  0.87877664  1
  O  O354  1  0.49325842  0.99430578  0.37881792  1
  O  O355  1  0.50151553  0.99113969  0.88088641  1
  O  O356  1  0.99329908  0.49386032  0.37381641  1
  O  O357  1  0.99806852  0.49841739  0.88651199  1
  O  O358  1  0.99116485  0.99805707  0.37704059  1
  O  O359  1  0.99253841  0.99506420  0.87946472  1
  O  O360  1  0.00560016  0.00624595  0.12058398  1
  O  O361  1  0.00593687  0.00537672  0.62448105  1
  O  O362  1  0.00731264  0.50369363  0.11669449  1
  O  O363  1  -0.00266830  0.51143030  0.62450774  1
  O  O364  1  0.50665149  0.00788969  0.12075409  1
  O  O365  1  0.50658764  0.00557095  0.62538381  1
  O  O366  1  0.50569207  0.50715137  0.11874777  1
  O  O367  1  0.50612030  0.50529750  0.61922081  1
  O  O368  1  0.24736593  0.37800550  0.24053936  1
  O  O369  1  0.24586407  0.37974252  0.74386601  1
  O  O370  1  0.24805530  0.88551851  0.25067008  1
  O  O371  1  0.24344341  0.88078274  0.74542535  1
  O  O372  1  0.74465782  0.38174126  0.24836624  1
  O  O373  1  0.74385533  0.37946799  0.74364768  1
  O  O374  1  0.74261577  0.88290266  0.24931157  1
  O  O375  1  0.74333386  0.87943627  0.74494611  1
  O  O376  1  0.25778062  0.12075090  0.25668741  1
  O  O377  1  0.24889327  0.11160928  0.74989196  1
  O  O378  1  0.24962139  0.62353785  0.26216898  1
  O  O379  1  0.25715269  0.61800837  0.74945956  1
  O  O380  1  0.75594788  0.12069053  0.25499450  1
  O  O381  1  0.75292857  0.11641080  0.75302044  1
  O  O382  1  0.75547598  0.62022004  0.25571542  1
  O  O383  1  0.74922527  0.61946918  0.75768531  1
  O  O384  1  0.37143988  0.12121918  0.37128603  1
  O  O385  1  0.37062345  0.12148803  0.86919299  1
  O  O386  1  0.36271272  0.62408513  0.37737710  1
  O  O387  1  0.37415418  0.61712497  0.86686061  1
  O  O388  1  0.86911164  0.12053925  0.36936555  1
  O  O389  1  0.87484310  0.11227964  0.87306524  1
  O  O390  1  0.86940437  0.62046535  0.36965093  1
  O  O391  1  0.86126748  0.62154323  0.87269368  1
  O  O392  1  0.13104446  0.38379435  0.12463568  1
  O  O393  1  0.13278059  0.37288807  0.63114972  1
  O  O394  1  0.12913721  0.88585426  0.12903279  1
  O  O395  1  0.12923456  0.87883585  0.63018410  1
  O  O396  1  0.62647778  0.38172826  0.13193887  1
  O  O397  1  0.63076139  0.37989418  0.62874690  1
  O  O398  1  0.62683126  0.88341298  0.13240669  1
  O  O399  1  0.62892278  0.88001309  0.63025563  1
  O  O400  1  0.11855333  0.24984332  0.25623697  1
  O  O401  1  0.12079914  0.25433009  0.75432476  1
  O  O402  1  0.11928034  0.74968075  0.25947646  1
  O  O403  1  0.11588439  0.75727365  0.75123185  1
  O  O404  1  0.62082309  0.25520857  0.25464672  1
  O  O405  1  0.62076237  0.25610569  0.75477299  1
  O  O406  1  0.62415102  0.75771844  0.25720413  1
  O  O407  1  0.61643737  0.75706254  0.75102868  1
  O  O408  1  0.38167347  0.24597336  0.24471979  1
  O  O409  1  0.38336637  0.25028123  0.74313088  1
  O  O410  1  0.37958551  0.74415670  0.24646656  1
  O  O411  1  0.37926513  0.74469207  0.74539262  1
  O  O412  1  0.88091437  0.24373467  0.24413220  1
  O  O413  1  0.88125680  0.24976345  0.74259387  1
  O  O414  1  0.87942481  0.74367802  0.24596242  1
  O  O415  1  0.87972743  0.74951721  0.74259054  1
  O  O416  1  0.38340163  0.49277777  0.49852373  1
  O  O417  1  0.38073519  0.49381028  0.99339395  1
  O  O418  1  0.37495030  0.99268471  0.49520600  1
  O  O419  1  0.38456874  0.99975220  0.99836726  1
  O  O420  1  0.87511978  0.49231170  0.49155592  1
  O  O421  1  0.88380266  0.49096412  1.00197968  1
  O  O422  1  0.87369818  0.99330419  0.49327251  1
  O  O423  1  0.88113734  1.00011134  0.99167069  1
  O  O424  1  0.11984013  0.00608991  0.00556664  1
  O  O425  1  0.12442975  0.00529387  0.50656460  1
  O  O426  1  0.11514109  0.49803067  0.00775319  1
  O  O427  1  0.11816422  0.50315288  0.50632090  1
  O  O428  1  0.62056596  0.00669444  0.00600530  1
  O  O429  1  0.62474274  0.00693009  0.50761579  1
  O  O430  1  0.61836527  0.49973841  0.00638546  1
  O  O431  1  0.62062384  0.50584422  0.50469901  1
  O  O432  1  0.37103452  0.37068703  0.11873987  1
  O  O433  1  0.37163736  0.36904840  0.61936727  1
  O  O434  1  0.37211470  0.87243204  0.12144889  1
  O  O435  1  0.36852360  0.86814468  0.62128334  1
  O  O436  1  0.87568113  0.36853925  0.11445464  1
  O  O437  1  0.86883599  0.36854092  0.61802891  1
  O  O438  1  0.87179769  0.86666502  0.12369696  1
  O  O439  1  0.86705476  0.86987289  0.62000581  1
  O  O440  1  0.13085893  0.12975145  0.38041467  1
  O  O441  1  0.12703130  0.13120826  0.88208694  1
  O  O442  1  0.13184634  0.63485736  0.37645003  1
  O  O443  1  0.12838092  0.62897781  0.87835969  1
  O  O444  1  0.63047039  0.13102388  0.37964466  1
  O  O445  1  0.62590521  0.13276547  0.88223686  1
  O  O446  1  0.63060062  0.63020115  0.38016693  1
  O  O447  1  0.63667295  0.62722240  0.87666019  1
