# generated using pymatgen
data_V3Zn3O8
_symmetry_space_group_name_H-M   'P 1'
_cell_length_a   17.08469672
_cell_length_b   17.08645191
_cell_length_c   17.08590828
_cell_angle_alpha   89.99675995
_cell_angle_beta   90.00653834
_cell_angle_gamma   89.99408803
_symmetry_Int_Tables_number   1
_chemical_formula_structural   V3Zn3O8
_chemical_formula_sum   'V96 Zn96 O256'
_cell_volume   4987.66443641
_cell_formula_units_Z   32
loop_
 _symmetry_equiv_pos_site_id
 _symmetry_equiv_pos_as_xyz
  1  'x, y, z'
loop_
 _atom_site_type_symbol
 _atom_site_label
 _atom_site_symmetry_multiplicity
 _atom_site_fract_x
 _atom_site_fract_y
 _atom_site_fract_z
 _atom_site_occupancy
  V  V0  1  0.75092279  0.24961755  0.00027659  1
  V  V1  1  0.49858519  0.87540445  0.37509930  1
  V  V2  1  0.37472916  0.00004805  0.87458274  1
  V  V3  1  0.12400450  0.24998473  0.37467133  1
  V  V4  1  0.87564319  0.62533576  0.24966423  1
  V  V5  1  -0.00099877  0.12393983  0.62516175  1
  V  V6  1  0.24974539  0.24982132  0.50017177  1
  V  V7  1  0.12626410  0.62329831  -0.00010199  1
  V  V8  1  0.25048940  0.25032469  -0.00007763  1
  V  V9  1  0.62495653  0.12453506  0.00116414  1
  V  V10  1  0.24906176  0.87615140  0.12453762  1
  V  V11  1  0.25032693  0.75038222  0.49936750  1
  V  V12  1  0.62564854  0.37516804  0.25139311  1
  V  V13  1  0.24850317  0.62456418  0.37281563  1
  V  V14  1  0.37544830  0.74917319  0.12414809  1
  V  V15  1  0.75113253  0.12471427  0.87595989  1
  V  V16  1  0.87538338  0.24913743  0.12638924  1
  V  V17  1  0.37389226  0.49985693  0.37480324  1
  V  V18  1  0.50150866  0.49941132  -0.00002804  1
  V  V19  1  0.24824207  -0.00016156  0.24883165  1
  V  V20  1  0.87519782  0.49962813  0.37593318  1
  V  V21  1  0.37581927  0.24988520  0.62607656  1
  V  V22  1  0.62570495  0.25077361  0.87469331  1
  V  V23  1  0.49973316  0.25000299  0.25050513  1
  V  V24  1  -0.00064656  0.87461229  0.87500817  1
  V  V25  1  0.87483290  0.87502127  0.00016624  1
  V  V26  1  0.62391461  0.12599195  0.50025797  1
  V  V27  1  0.87669346  0.49951605  0.87502947  1
  V  V28  1  0.12462728  0.50004784  0.62403709  1
  V  V29  1  0.62336542  0.75023949  0.37502559  1
  V  V30  1  0.62411417  0.87538586  0.24947348  1
  V  V31  1  0.75064466  0.75014291  -0.00057794  1
  V  V32  1  0.24956659  0.37430629  0.12532130  1
  V  V33  1  0.37473829  0.37574277  0.50004565  1
  V  V34  1  0.75042806  0.50033734  0.74935351  1
  V  V35  1  0.24938115  0.49884547  0.24947186  1
  V  V36  1  0.12537012  0.37404308  0.75022258  1
  V  V37  1  0.74900477  0.12539758  0.37615930  1
  V  V38  1  0.37616391  0.24960712  0.12457565  1
  V  V39  1  0.74973869  0.87439761  0.62472140  1
  V  V40  1  0.75230941  0.62570752  0.87546661  1
  V  V41  1  -0.00011316  0.62532619  0.12528071  1
  V  V42  1  0.49912367  0.50024143  0.49962227  1
  V  V43  1  0.00105471  0.37500755  0.87512186  1
  V  V44  1  0.49903639  -0.00012501  0.50028634  1
  V  V45  1  0.00093976  0.62567919  0.62476711  1
  V  V46  1  0.50018914  0.75035411  0.75041633  1
  V  V47  1  0.24937297  0.37465886  0.62499452  1
  V  V48  1  0.37738377  0.49963471  0.87427791  1
  V  V49  1  0.87578011  0.12495189  0.75019300  1
  V  V50  1  0.12605310  0.25066039  0.87506410  1
  V  V51  1  0.25181146  0.50008445  0.75014668  1
  V  V52  1  0.50018887  0.62442632  0.12487727  1
  V  V53  1  0.87674583  0.37516636  -0.00043322  1
  V  V54  1  0.74867436  0.87535829  0.12640557  1
  V  V55  1  0.24931847  -0.00104883  0.74911175  1
  V  V56  1  0.62475134  0.25045225  0.37612454  1
  V  V57  1  0.37535116  0.87544120  -0.00109731  1
  V  V58  1  0.74884250  -0.00015729  0.75033037  1
  V  V59  1  0.87361027  0.12572969  0.25121700  1
  V  V60  1  0.74932058  0.75081861  0.50056046  1
  V  V61  1  0.49808772  0.74944775  0.24907154  1
  V  V62  1  0.75121476  0.37566213  0.12529808  1
  V  V63  1  0.49986871  0.62541375  0.62454126  1
  V  V64  1  0.74962566  0.62575578  0.37491820  1
  V  V65  1  0.25024648  0.12428760  0.37507163  1
  V  V66  1  0.37377246  0.75019297  0.62386311  1
  V  V67  1  0.87356048  0.00078250  0.37503799  1
  V  V68  1  0.50009964  0.00104271  0.00118588  1
  V  V69  1  0.00104024  0.75000640  0.74963776  1
  V  V70  1  0.87703811  0.62573025  0.74945817  1
  V  V71  1  -0.00063532  0.24951898  0.25036983  1
  V  V72  1  0.25084501  0.75018677  -0.00097463  1
  V  V73  1  0.87557138  -0.00045821  0.87621399  1
  V  V74  1  0.12457229  0.12515849  0.50033415  1
  V  V75  1  0.74995675  0.50039496  0.25009346  1
  V  V76  1  0.37520265  0.62440038  0.75004407  1
  V  V77  1  0.12381974  0.12310965  0.00141972  1
  V  V78  1  0.12396543  0.75049051  0.37301841  1
  V  V79  1  0.62515641  0.75035637  0.87414126  1
  V  V80  1  0.62374127  0.00134224  0.62555016  1
  V  V81  1  -0.00085646  0.00008307  0.49912594  1
  V  V82  1  0.37436127  -0.00031503  0.37595818  1
  V  V83  1  0.87468348  0.37582176  0.50043096  1
  V  V84  1  0.62420893  0.62521678  0.49984627  1
  V  V85  1  0.87372235  0.25025424  0.62523328  1
  V  V86  1  0.12562362  0.75031586  0.87429400  1
  V  V87  1  0.50057094  0.25005486  0.75086109  1
  V  V88  1  0.62653622  0.50025830  0.62581756  1
  V  V89  1  0.12478159  0.37320286  0.24963062  1
  V  V90  1  0.12488766  -0.00050588  0.62544057  1
  V  V91  1  0.37562346  0.12507873  0.75048272  1
  V  V92  1  -0.00050119  0.87440807  0.37295029  1
  V  V93  1  0.62513741  0.50059688  0.12496757  1
  V  V94  1  0.50216650  0.37525035  0.87474087  1
  V  V95  1  0.12358635  0.62432188  0.49910688  1
  Zn  Zn96  1  0.74662720  0.25156359  0.50185720  1
  Zn  Zn97  1  0.12299334  0.87362308  0.24562513  1
  Zn  Zn98  1  0.50015389  0.12487757  0.62552113  1
  Zn  Zn99  1  0.62714466  0.62442439  0.00067198  1
  Zn  Zn100  1  0.12571110  0.49806459  0.12443753  1
  Zn  Zn101  1  0.62293724  0.00189668  0.12763219  1
  Zn  Zn102  1  0.00219778  0.49889257  -0.00015791  1
  Zn  Zn103  1  0.50026951  0.87457477  0.87383374  1
  Zn  Zn104  1  0.87538407  0.75049519  0.12656558  1
  Zn  Zn105  1  0.00140981  0.24929646  0.75043487  1
  Zn  Zn106  1  0.37538979  0.37502067  -0.00116789  1
  Zn  Zn107  1  -0.00024956  0.50074567  0.49871894  1
  Zn  Zn108  1  0.24931875  0.87385879  0.62315470  1
  Zn  Zn109  1  0.50039651  0.37599429  0.37657849  1
  Zn  Zn110  1  0.37291240  0.62415205  0.24869516  1
  Zn  Zn111  1  -0.00010914  0.37634485  0.37452668  1
  Zn  Zn112  1  -0.00067356  0.75028985  0.24945225  1
  Zn  Zn113  1  0.74702893  0.00085797  0.25081792  1
  Zn  Zn114  1  0.24966130  0.12567765  0.87550132  1
  Zn  Zn115  1  0.37344490  0.87497193  0.50124004  1
  Zn  Zn116  1  0.37597121  0.12506851  0.25040120  1
  Zn  Zn117  1  0.87656456  0.75084943  0.62350715  1
  Zn  Zn118  1  0.74977437  0.37605674  0.62683815  1
  Zn  Zn119  1  0.87447987  0.87407498  0.49938693  1
  Zn  Zn120  1  0.62266785  0.87701830  0.75067448  1
  Zn  Zn121  1  0.00056900  -0.00125436  0.00222743  1
  Zn  Zn122  1  0.12185944  -0.00193782  0.12393462  1
  Zn  Zn123  1  0.50183712  0.12584487  0.12553358  1
  Zn  Zn124  1  0.62783415  0.37439369  0.74827979  1
  Zn  Zn125  1  0.12458518  0.87432970  0.74860427  1
  Zn  Zn126  1  0.25196727  0.62484038  0.87492865  1
  Zn  Zn127  1  -0.00156603  0.12066724  0.12576659  1
  Zn  Zn128  1  0.18735607  0.18615705  0.18676288  1
  Zn  Zn129  1  0.18804664  0.18608484  0.68804490  1
  Zn  Zn130  1  0.18658675  0.68874675  0.18753847  1
  Zn  Zn131  1  0.18795795  0.68668543  0.68700120  1
  Zn  Zn132  1  0.68753323  0.18681658  0.18767543  1
  Zn  Zn133  1  0.68778075  0.18649949  0.68817256  1
  Zn  Zn134  1  0.68653087  0.68834666  0.18755544  1
  Zn  Zn135  1  0.68777126  0.68693338  0.68857020  1
  Zn  Zn136  1  0.31233610  0.31362527  0.31320774  1
  Zn  Zn137  1  0.31337726  0.31309989  0.81381246  1
  Zn  Zn138  1  0.31233727  0.81356158  0.31196882  1
  Zn  Zn139  1  0.31294752  0.81338028  0.81248529  1
  Zn  Zn140  1  0.81167119  0.31160866  0.31454680  1
  Zn  Zn141  1  0.81296894  0.31351098  0.81160484  1
  Zn  Zn142  1  0.81353324  0.81164143  0.31157760  1
  Zn  Zn143  1  0.81355678  0.81266224  0.81097623  1
  Zn  Zn144  1  0.18684552  0.43709102  0.43652037  1
  Zn  Zn145  1  0.19010783  0.43721780  0.93715813  1
  Zn  Zn146  1  0.18645737  0.93575171  0.43728861  1
  Zn  Zn147  1  0.18725380  0.93721034  0.93551085  1
  Zn  Zn148  1  0.68849168  0.43707535  0.43887747  1
  Zn  Zn149  1  0.68840655  0.43748346  0.93702183  1
  Zn  Zn150  1  0.68561717  0.93867359  0.43791427  1
  Zn  Zn151  1  0.68697923  0.93675893  0.93855198  1
  Zn  Zn152  1  0.31182475  0.06464496  0.06274164  1
  Zn  Zn153  1  0.31346885  0.06277701  0.56372835  1
  Zn  Zn154  1  0.31409274  0.56123519  0.06221402  1
  Zn  Zn155  1  0.31116663  0.56383069  0.56158655  1
  Zn  Zn156  1  0.81245380  0.06072604  0.06402927  1
  Zn  Zn157  1  0.81110616  0.06230732  0.56063453  1
  Zn  Zn158  1  0.81412401  0.56225213  0.06125119  1
  Zn  Zn159  1  0.81322041  0.56376267  0.56327215  1
  Zn  Zn160  1  0.43701838  0.43664373  0.18800863  1
  Zn  Zn161  1  0.43978328  0.43621979  0.68794920  1
  Zn  Zn162  1  0.43512387  0.93672888  0.18734533  1
  Zn  Zn163  1  0.43707904  0.93483606  0.68669820  1
  Zn  Zn164  1  0.93944953  0.43851515  0.18735706  1
  Zn  Zn165  1  0.93949462  0.43783607  0.68798437  1
  Zn  Zn166  1  0.93554282  0.94050271  0.18721375  1
  Zn  Zn167  1  0.93643472  0.93687406  0.68860211  1
  Zn  Zn168  1  0.06173327  0.06297450  0.31180356  1
  Zn  Zn169  1  0.06216807  0.06286132  0.81412559  1
  Zn  Zn170  1  0.06183344  0.55991342  0.31173030  1
  Zn  Zn171  1  0.06346003  0.56193264  0.81245732  1
  Zn  Zn172  1  0.56251572  0.06286276  0.31325117  1
  Zn  Zn173  1  0.56246679  0.06405199  0.81367226  1
  Zn  Zn174  1  0.56056570  0.56295736  0.31174403  1
  Zn  Zn175  1  0.56414619  0.56361819  0.81197483  1
  Zn  Zn176  1  0.43745022  0.18643944  0.43753640  1
  Zn  Zn177  1  0.43739161  0.18669931  0.93635230  1
  Zn  Zn178  1  0.43483105  0.68648094  0.43635225  1
  Zn  Zn179  1  0.43943463  0.68489296  0.93806905  1
  Zn  Zn180  1  0.93696006  0.18859386  0.43758033  1
  Zn  Zn181  1  0.94016049  0.18819470  0.93796154  1
  Zn  Zn182  1  0.93610170  0.68897968  0.43885839  1
  Zn  Zn183  1  0.93844854  0.68909613  0.93825121  1
  Zn  Zn184  1  0.06192366  0.30948216  0.06333962  1
  Zn  Zn185  1  0.06002685  0.31261813  0.56232791  1
  Zn  Zn186  1  0.06252278  0.81138536  0.06158942  1
  Zn  Zn187  1  0.06432009  0.81318365  0.56136144  1
  Zn  Zn188  1  0.56369833  0.31420301  0.06197925  1
  Zn  Zn189  1  0.56166857  0.31439202  0.56457429  1
  Zn  Zn190  1  0.56297771  0.81249726  0.06128018  1
  Zn  Zn191  1  0.56199385  0.81406220  0.56253368  1
  O  O192  1  0.12402877  0.12416227  0.11316521  1
  O  O193  1  0.11885357  0.12027879  0.61931725  1
  O  O194  1  0.11797356  0.62506130  0.11544317  1
  O  O195  1  0.12059376  0.61898743  0.61889416  1
  O  O196  1  0.62345123  0.12264634  0.11668894  1
  O  O197  1  0.62414295  0.11851806  0.61887269  1
  O  O198  1  0.61916345  0.61815245  0.12424142  1
  O  O199  1  0.61916873  0.62093329  0.61876115  1
  O  O200  1  0.37517795  0.38158025  0.38306894  1
  O  O201  1  0.38393198  0.38182088  0.87570497  1
  O  O202  1  0.38183684  0.88163070  0.37653149  1
  O  O203  1  0.37686436  0.88182154  0.88214083  1
  O  O204  1  0.87425983  0.38007738  0.38447181  1
  O  O205  1  0.88111763  0.37932792  0.88016279  1
  O  O206  1  0.88316336  0.88095756  0.37605450  1
  O  O207  1  0.87868806  0.88031266  0.88019348  1
  O  O208  1  0.25399150  0.00417194  0.36802050  1
  O  O209  1  0.25582606  0.00124682  0.86468564  1
  O  O210  1  0.25440141  0.50485182  0.36952647  1
  O  O211  1  0.25869436  0.50072623  0.86755023  1
  O  O212  1  0.75551259  0.00670237  0.37468327  1
  O  O213  1  0.75489212  0.00526092  0.87049560  1
  O  O214  1  0.75429197  0.50669708  0.36927013  1
  O  O215  1  0.75662358  0.50602620  0.86995154  1
  O  O216  1  0.25015549  0.49219108  0.13110086  1
  O  O217  1  0.24497839  0.49390979  0.62987161  1
  O  O218  1  0.25173954  0.99503848  0.13431818  1
  O  O219  1  0.24424472  1.00047874  0.63371811  1
  O  O220  1  0.74555466  0.49500894  0.13059491  1
  O  O221  1  0.74390658  0.50222136  0.63204131  1
  O  O222  1  0.74667090  0.98631001  0.12628906  1
  O  O223  1  0.74454020  0.99312877  0.62964050  1
  O  O224  1  0.00643533  0.36765460  0.25081594  1
  O  O225  1  0.00807531  0.37313103  0.75640860  1
  O  O226  1  0.00014345  0.87468299  0.26193198  1
  O  O227  1  0.00028068  0.86823825  0.75684815  1
  O  O228  1  0.50642346  0.36531597  0.25167166  1
  O  O229  1  0.50337070  0.36795320  0.75689617  1
  O  O230  1  0.50414490  0.86897392  0.25469012  1
  O  O231  1  0.50288941  0.86622012  0.75345089  1
  O  O232  1  0.49899413  0.13804756  0.24794916  1
  O  O233  1  0.49319514  0.13212111  0.74956887  1
  O  O234  1  0.49749041  0.63173805  0.24296904  1
  O  O235  1  0.49465409  0.63039492  0.74349632  1
  O  O236  1  0.99226416  0.13191914  0.24977869  1
  O  O237  1  0.99309010  0.12560491  0.74319835  1
  O  O238  1  0.99488995  0.62445872  0.24052229  1
  O  O239  1  0.99645275  0.63036785  0.74483896  1
  O  O240  1  0.37080879  0.25106419  0.00888134  1
  O  O241  1  0.36913317  0.25520909  0.50510414  1
  O  O242  1  0.37105670  0.75496402  0.00411959  1
  O  O243  1  0.36780776  0.74877140  0.50615467  1
  O  O244  1  0.86959039  0.25513430  0.00548266  1
  O  O245  1  0.87357328  0.25718727  0.50889492  1
  O  O246  1  0.86747007  0.75725804  0.00094669  1
  O  O247  1  0.86446191  0.75278824  0.50295992  1
  O  O248  1  0.13019501  0.24486056  0.49590607  1
  O  O249  1  0.13070271  0.24274321  0.99497573  1
  O  O250  1  0.13045619  0.74360216  0.49293432  1
  O  O251  1  0.13110147  0.74131093  0.99438214  1
  O  O252  1  0.62402934  0.24495000  0.49453069  1
  O  O253  1  0.63167597  0.24509201  0.99501677  1
  O  O254  1  0.62857706  0.74418222  0.49408166  1
  O  O255  1  0.63097479  0.74852453  0.98980584  1
  O  O256  1  0.49312278  0.25171566  0.13296020  1
  O  O257  1  0.49281280  0.24928548  0.63255499  1
  O  O258  1  0.49527063  0.74517181  0.12894452  1
  O  O259  1  0.49557628  0.74385726  0.62967180  1
  O  O260  1  0.99180648  0.24712684  0.13247635  1
  O  O261  1  0.98943621  0.24301429  0.62601185  1
  O  O262  1  0.99797684  0.73753230  0.12642463  1
  O  O263  1  1.00032115  0.74416287  0.63110920  1
  O  O264  1  0.00668816  0.25137028  0.36878386  1
  O  O265  1  0.00720563  0.25738180  0.87260182  1
  O  O266  1  0.00453205  0.75933062  0.37538565  1
  O  O267  1  0.00571473  0.75480271  0.86911528  1
  O  O268  1  0.50458588  0.25218142  0.36575512  1
  O  O269  1  0.50612115  0.25507648  0.87086876  1
  O  O270  1  0.50418565  0.75434056  0.36963271  1
  O  O271  1  0.50969928  0.74902857  0.87029009  1
  O  O272  1  0.24404297  0.13053995  0.49544291  1
  O  O273  1  0.24147910  0.13206369  0.99823350  1
  O  O274  1  0.24293891  0.63005644  0.49280238  1
  O  O275  1  0.24136673  0.63087422  1.00003533  1
  O  O276  1  0.74171359  0.12724176  0.49387986  1
  O  O277  1  0.74588864  0.13020575  0.99497352  1
  O  O278  1  0.74342563  0.63042390  0.49437073  1
  O  O279  1  0.75022070  0.63178745  0.99324463  1
  O  O280  1  0.25210621  0.36787691  0.00724761  1
  O  O281  1  0.25451819  0.36913111  0.50594919  1
  O  O282  1  0.25606947  0.87009001  0.00436496  1
  O  O283  1  0.25159740  0.86577033  0.50093362  1
  O  O284  1  0.75647063  0.36915227  0.00535859  1
  O  O285  1  0.76228978  0.37370182  0.50388075  1
  O  O286  1  0.75417450  0.86991948  0.00768729  1
  O  O287  1  0.74847521  0.87019207  0.50912584  1
  O  O288  1  0.13202839  0.49152551  0.24841675  1
  O  O289  1  0.13206255  0.49418471  0.74438206  1
  O  O290  1  0.13822272  0.99913929  0.24945986  1
  O  O291  1  0.13412906  1.00131569  0.74476253  1
  O  O292  1  0.63028266  0.49480928  0.24532642  1
  O  O293  1  0.63252879  0.50111085  0.74338410  1
  O  O294  1  0.62539649  0.99124185  0.24785190  1
  O  O295  1  0.63159138  1.00011666  0.74539034  1
  O  O296  1  0.36526943  0.00213100  0.25590163  1
  O  O297  1  0.36847383  0.00468089  0.75366341  1
  O  O298  1  0.36766125  0.49954995  0.25653966  1
  O  O299  1  0.37162539  0.50500065  0.75378505  1
  O  O300  1  0.87137654  0.00804753  0.25807866  1
  O  O301  1  0.86846195  0.00593987  0.75584384  1
  O  O302  1  0.86842782  0.50479303  0.25540159  1
  O  O303  1  0.87109381  0.50607036  0.75574965  1
  O  O304  1  0.12433585  0.36679137  0.36880991  1
  O  O305  1  0.12101003  0.37050110  0.86991071  1
  O  O306  1  0.11388931  0.87003997  0.37367566  1
  O  O307  1  0.11793626  0.86748729  0.87350576  1
  O  O308  1  0.62417585  0.36950269  0.36909689  1
  O  O309  1  0.62038519  0.36776534  0.87350320  1
  O  O310  1  0.61867971  0.86900508  0.36963015  1
  O  O311  1  0.62529870  0.86207382  0.87307085  1
  O  O312  1  0.37669314  0.13940365  0.12741970  1
  O  O313  1  0.37640233  0.13294484  0.63201489  1
  O  O314  1  0.38192698  0.63179851  0.12576095  1
  O  O315  1  0.38082460  0.62970748  0.63012945  1
  O  O316  1  0.87296553  0.13207787  0.13231136  1
  O  O317  1  0.87903460  0.13164904  0.62915982  1
  O  O318  1  0.88381934  0.62506860  0.12966898  1
  O  O319  1  0.88246389  0.62680808  0.63193368  1
  O  O320  1  0.25871225  0.25473027  0.12167445  1
  O  O321  1  0.25507512  0.25519143  0.61957065  1
  O  O322  1  0.25572470  0.75571649  0.11866657  1
  O  O323  1  0.25591419  0.74893466  0.61774730  1
  O  O324  1  0.75529132  0.25665272  0.11981344  1
  O  O325  1  0.76274864  0.25081943  0.62443507  1
  O  O326  1  0.74931157  0.75970133  0.11903635  1
  O  O327  1  0.74830161  0.75925426  0.62010456  1
  O  O328  1  0.24474789  0.24437990  0.38097594  1
  O  O329  1  0.24414462  0.24990449  0.88174593  1
  O  O330  1  0.24432765  0.74446630  0.37865146  1
  O  O331  1  0.24483945  0.74796943  0.88148257  1
  O  O332  1  0.74193426  0.24357557  0.37757489  1
  O  O333  1  0.74671159  0.24420499  0.88087615  1
  O  O334  1  0.74261700  0.74539384  0.38003881  1
  O  O335  1  0.74370522  0.74554082  0.87859080  1
  O  O336  1  0.01113116  0.12403397  0.00161743  1
  O  O337  1  0.00549373  0.11963527  0.50468706  1
  O  O338  1  0.00927082  0.62501430  0.00717710  1
  O  O339  1  0.00655696  0.62479369  0.50642763  1
  O  O340  1  0.50571122  0.11650008  0.00035615  1
  O  O341  1  0.50627829  0.11804994  0.50145418  1
  O  O342  1  0.50369192  0.61736157  0.00746822  1
  O  O343  1  0.50498323  0.62011308  0.50495170  1
  O  O344  1  0.49218663  0.38270220  0.49942153  1
  O  O345  1  0.49981654  0.38174304  0.99300066  1
  O  O346  1  0.49938113  0.88184242  0.49222433  1
  O  O347  1  0.49416931  0.88473829  0.99871696  1
  O  O348  1  0.98690213  0.37690360  0.49835712  1
  O  O349  1  0.99456541  0.37577378  0.99412428  1
  O  O350  1  0.99860671  0.88109217  0.48951007  1
  O  O351  1  0.99236474  0.87387987  0.99272938  1
  O  O352  1  0.49305130  0.49948181  0.38164628  1
  O  O353  1  0.49734709  0.49563225  0.87942660  1
  O  O354  1  0.49393076  0.99508656  0.37960919  1
  O  O355  1  0.49459405  0.99906224  0.88551868  1
  O  O356  1  0.99064252  0.49718898  0.37748619  1
  O  O357  1  0.99425314  0.49307199  0.87613209  1
  O  O358  1  0.99519853  0.99326783  0.37964072  1
  O  O359  1  0.99242575  0.99278103  0.87623566  1
  O  O360  1  0.00364521  0.00290394  0.12076922  1
  O  O361  1  0.00366119  0.00494059  0.61939353  1
  O  O362  1  0.00342403  0.51209899  0.12191894  1
  O  O363  1  0.00782144  0.50733916  0.62402737  1
  O  O364  1  0.49819741  0.00277878  0.11304472  1
  O  O365  1  0.50627289  0.00067130  0.61922079  1
  O  O366  1  0.50550186  0.50358917  0.12093709  1
  O  O367  1  0.50511653  0.50666728  0.61944118  1
  O  O368  1  0.24413507  0.37845811  0.24479674  1
  O  O369  1  0.24527520  0.38025549  0.74373342  1
  O  O370  1  0.24940609  0.88504634  0.24402320  1
  O  O371  1  0.24880487  0.88802103  0.74788635  1
  O  O372  1  0.74540846  0.38076574  0.24485100  1
  O  O373  1  0.74931684  0.38480298  0.74808235  1
  O  O374  1  0.74330272  0.87400122  0.24152498  1
  O  O375  1  0.74850047  0.88100151  0.74070213  1
  O  O376  1  0.25150697  0.11654743  0.25627372  1
  O  O377  1  0.25592479  0.11443587  0.75109046  1
  O  O378  1  0.24969485  0.61757703  0.25530867  1
  O  O379  1  0.25749250  0.61748784  0.75085454  1
  O  O380  1  0.75520311  0.12450895  0.25811644  1
  O  O381  1  0.75608502  0.11924422  0.75663070  1
  O  O382  1  0.75417820  0.61967872  0.25532533  1
  O  O383  1  0.75743652  0.62037472  0.75606132  1
  O  O384  1  0.36726928  0.11850645  0.37378441  1
  O  O385  1  0.37210515  0.11825947  0.86820410  1
  O  O386  1  0.36642105  0.61757157  0.37267780  1
  O  O387  1  0.37544597  0.61781049  0.86768835  1
  O  O388  1  0.86891933  0.12102544  0.37099692  1
  O  O389  1  0.87006920  0.12059508  0.87052049  1
  O  O390  1  0.86825377  0.61970394  0.37054141  1
  O  O391  1  0.87186984  0.61968753  0.86978030  1
  O  O392  1  0.13181677  0.37409977  0.13139741  1
  O  O393  1  0.13013715  0.37913423  0.62949805  1
  O  O394  1  0.13376073  0.87696916  0.12528278  1
  O  O395  1  0.12721619  0.88425436  0.62769070  1
  O  O396  1  0.63215699  0.38045269  0.13124830  1
  O  O397  1  0.62885188  0.38423870  0.62680992  1
  O  O398  1  0.63315191  0.87484097  0.13026568  1
  O  O399  1  0.63488576  0.88146185  0.62666042  1
  O  O400  1  0.12019560  0.25335787  0.25554231  1
  O  O401  1  0.12537305  0.25627634  0.75570382  1
  O  O402  1  0.12127612  0.75318956  0.25801614  1
  O  O403  1  0.11961282  0.74994002  0.75666761  1
  O  O404  1  0.61756158  0.25550517  0.25452928  1
  O  O405  1  0.61975494  0.24971810  0.75745527  1
  O  O406  1  0.61788227  0.75512889  0.25616117  1
  O  O407  1  0.61962059  0.74949200  0.75944511  1
  O  O408  1  0.38339267  0.25086048  0.24314440  1
  O  O409  1  0.37976188  0.24528845  0.74561972  1
  O  O410  1  0.38081913  0.74916963  0.24213663  1
  O  O411  1  0.37999144  0.74371914  0.74502940  1
  O  O412  1  0.87911316  0.24547303  0.24589961  1
  O  O413  1  0.87671827  0.24392049  0.74110930  1
  O  O414  1  0.87733716  0.74011437  0.24790201  1
  O  O415  1  0.88248916  0.74274731  0.74859936  1
  O  O416  1  0.37896082  0.49529498  0.49546652  1
  O  O417  1  0.38308011  0.49780481  0.99303193  1
  O  O418  1  0.38075175  0.99900914  0.49407097  1
  O  O419  1  0.38126823  0.99669969  0.99523239  1
  O  O420  1  0.87508961  0.49196096  0.49529301  1
  O  O421  1  0.87673946  0.49251384  0.99263972  1
  O  O422  1  0.88204929  0.99965106  0.49285914  1
  O  O423  1  0.87439938  0.99285370  0.99269255  1
  O  O424  1  0.12580797  0.01150671  -0.00066907  1
  O  O425  1  0.11934876  0.00675032  0.50471457  1
  O  O426  1  0.12565527  0.51153504  0.00085076  1
  O  O427  1  0.12411475  0.50579913  0.50616820  1
  O  O428  1  0.61513909  0.00504222  -0.00022878  1
  O  O429  1  0.61818324  0.00645855  0.50496071  1
  O  O430  1  0.62048012  0.50104444  0.00730440  1
  O  O431  1  0.61959333  0.50657426  0.50462541  1
  O  O432  1  0.36964880  0.36347120  0.12426462  1
  O  O433  1  0.36850848  0.37003691  0.61996470  1
  O  O434  1  0.36910872  0.86873788  0.11791914  1
  O  O435  1  0.37191717  0.86493759  0.62192864  1
  O  O436  1  0.86978440  0.37000192  0.12013456  1
  O  O437  1  0.87565060  0.36689586  0.61876171  1
  O  O438  1  0.86444960  0.87301515  0.12048135  1
  O  O439  1  0.86159091  0.87477789  0.62259520  1
  O  O440  1  0.13061506  0.13021966  0.38128575  1
  O  O441  1  0.12641551  0.13203918  0.88381638  1
  O  O442  1  0.12905197  0.62987940  0.37939697  1
  O  O443  1  0.12607758  0.63032705  0.88512723  1
  O  O444  1  0.62924671  0.13105806  0.38073436  1
  O  O445  1  0.63224994  0.13107330  0.88150357  1
  O  O446  1  0.62982542  0.63036230  0.37996946  1
  O  O447  1  0.63280395  0.63525398  0.87590400  1
