# generated using pymatgen
data_V3Zn3O8
_symmetry_space_group_name_H-M   'P 1'
_cell_length_a   17.08666332
_cell_length_b   17.08619216
_cell_length_c   17.08501094
_cell_angle_alpha   90.01841048
_cell_angle_beta   90.00039247
_cell_angle_gamma   89.98828162
_symmetry_Int_Tables_number   1
_chemical_formula_structural   V3Zn3O8
_chemical_formula_sum   'V96 Zn96 O256'
_cell_volume   4987.90046104
_cell_formula_units_Z   32
loop_
 _symmetry_equiv_pos_site_id
 _symmetry_equiv_pos_as_xyz
  1  'x, y, z'
loop_
 _atom_site_type_symbol
 _atom_site_label
 _atom_site_symmetry_multiplicity
 _atom_site_fract_x
 _atom_site_fract_y
 _atom_site_fract_z
 _atom_site_occupancy
  V  V0  1  0.12485817  0.24908054  0.37561285  1
  V  V1  1  0.74943252  0.37488944  0.12479953  1
  V  V2  1  -0.00092386  0.62370052  0.12530301  1
  V  V3  1  0.87535773  0.37406224  0.50098572  1
  V  V4  1  0.62575422  0.49993810  0.62456209  1
  V  V5  1  0.74952086  0.87552282  0.62402172  1
  V  V6  1  0.62440008  0.12596058  0.49952721  1
  V  V7  1  0.12556005  0.49853762  0.12545350  1
  V  V8  1  0.62490009  0.75058107  0.37431154  1
  V  V9  1  -0.00011803  0.49984152  0.00081769  1
  V  V10  1  0.24997761  0.87351352  0.12287609  1
  V  V11  1  -0.00143315  0.87532449  0.87577225  1
  V  V12  1  0.62414259  0.50049381  0.12494258  1
  V  V13  1  0.37255161  0.37454473  0.00126289  1
  V  V14  1  0.24847713  -0.00079682  0.74969619  1
  V  V15  1  0.87579098  0.49886074  0.37590986  1
  V  V16  1  0.62455770  0.12599833  -0.00041884  1
  V  V17  1  0.00052740  0.74990374  0.25075637  1
  V  V18  1  0.87400434  0.87503581  -0.00059936  1
  V  V19  1  0.12287365  0.00064319  0.12467127  1
  V  V20  1  -0.00032093  0.12375237  0.62537094  1
  V  V21  1  0.00066127  0.37496361  0.87523120  1
  V  V22  1  0.12494816  0.37458796  0.75177128  1
  V  V23  1  0.37441799  0.12473873  0.75154428  1
  V  V24  1  0.74990756  0.49973529  0.25029860  1
  V  V25  1  0.37535649  0.50017378  0.37595174  1
  V  V26  1  0.00158756  0.50017712  0.50019826  1
  V  V27  1  0.74940993  0.62528658  0.87485461  1
  V  V28  1  0.75000073  0.12474000  0.87510296  1
  V  V29  1  0.12416435  0.12628990  0.00063557  1
  V  V30  1  0.12531388  0.74999124  0.37459860  1
  V  V31  1  0.49958144  0.87530359  0.87480156  1
  V  V32  1  0.12626487  0.49982768  0.62462972  1
  V  V33  1  0.87436677  0.00037894  0.37474289  1
  V  V34  1  0.87438706  0.00016313  0.87473679  1
  V  V35  1  0.37501769  0.12544356  0.25047483  1
  V  V36  1  0.62555295  0.62429953  0.50000303  1
  V  V37  1  0.87538491  0.12454169  0.75083522  1
  V  V38  1  0.74909489  0.12527912  0.37498878  1
  V  V39  1  0.49839843  -0.00020085  0.49950009  1
  V  V40  1  0.75014143  0.49914403  0.74938721  1
  V  V41  1  0.87418928  0.24964771  0.12584852  1
  V  V42  1  0.24942486  0.24896915  0.50099400  1
  V  V43  1  0.49990382  -0.00026555  -0.00079538  1
  V  V44  1  0.00110497  0.37375045  0.37483630  1
  V  V45  1  0.12528842  0.87491076  0.75047669  1
  V  V46  1  0.87607966  0.62499846  0.74903102  1
  V  V47  1  0.62585527  0.75017778  0.87362059  1
  V  V48  1  0.37530077  0.62598267  0.75021123  1
  V  V49  1  0.62546205  0.24960277  0.87514217  1
  V  V50  1  0.50082670  0.50032180  0.49943063  1
  V  V51  1  0.87618268  0.74970199  0.62445499  1
  V  V52  1  0.62515191  -0.00019550  0.62432691  1
  V  V53  1  0.49972348  0.37608226  0.37553613  1
  V  V54  1  0.75108327  0.74976805  0.49913030  1
  V  V55  1  0.25025543  0.37465165  0.62603619  1
  V  V56  1  0.12461785  0.12425418  0.50089529  1
  V  V57  1  0.87596481  0.87533483  0.49832364  1
  V  V58  1  -0.00004956  -0.00015381  0.49939699  1
  V  V59  1  -0.00039169  0.24918905  0.25070006  1
  V  V60  1  0.87392442  0.12486491  0.24990023  1
  V  V61  1  0.50027509  0.87499190  0.37442723  1
  V  V62  1  0.87463230  0.49945157  0.87468741  1
  V  V63  1  0.62392806  0.37507904  0.25013562  1
  V  V64  1  0.62575219  0.37577247  0.74960423  1
  V  V65  1  0.37470808  0.87536962  0.49901969  1
  V  V66  1  0.12508966  0.62588025  -0.00099665  1
  V  V67  1  0.37506601  0.75025013  0.12438732  1
  V  V68  1  0.25051855  0.75080608  0.49876019  1
  V  V69  1  0.87526798  0.25024176  0.62529605  1
  V  V70  1  0.62472723  0.24972243  0.37572455  1
  V  V71  1  0.62487537  0.87460792  0.24945829  1
  V  V72  1  0.50008783  0.37570841  0.87441368  1
  V  V73  1  0.12528790  0.74914901  0.87630616  1
  V  V74  1  0.37533543  0.50274112  0.87322810  1
  V  V75  1  0.50030205  0.24985501  0.74991290  1
  V  V76  1  0.75041030  0.74952402  -0.00095908  1
  V  V77  1  0.24955159  0.12648651  0.87730508  1
  V  V78  1  0.24949060  0.49773175  0.24965762  1
  V  V79  1  0.62507006  -0.00076139  0.12545602  1
  V  V80  1  0.25090055  0.62393279  0.37495192  1
  V  V81  1  0.00030008  0.74985868  0.74933801  1
  V  V82  1  0.37454395  0.25061728  0.62517438  1
  V  V83  1  0.50024549  0.12512515  0.12511737  1
  V  V84  1  0.74932231  0.87429224  0.12419626  1
  V  V85  1  0.49909687  0.24994571  0.24988056  1
  V  V86  1  0.50010603  0.62624664  0.12545813  1
  V  V87  1  0.37607048  0.75099361  0.62482139  1
  V  V88  1  0.50022655  0.50079141  -0.00005218  1
  V  V89  1  0.50028646  0.12528163  0.62548131  1
  V  V90  1  0.75043804  0.62464146  0.37468632  1
  V  V91  1  0.12590814  0.62445706  0.50116015  1
  V  V92  1  0.87541911  0.62379854  0.24968590  1
  V  V93  1  0.25022483  0.00129428  0.25130170  1
  V  V94  1  0.87441331  0.37430465  0.00059034  1
  V  V95  1  0.62526466  0.87504527  0.74833139  1
  Zn  Zn96  1  0.37481185  0.87594351  -0.00145647  1
  Zn  Zn97  1  0.49932482  0.75011481  0.25051951  1
  Zn  Zn98  1  0.12542296  0.37197072  0.24820975  1
  Zn  Zn99  1  0.25032862  0.12473768  0.37675725  1
  Zn  Zn100  1  0.75059398  0.37447452  0.62407983  1
  Zn  Zn101  1  0.24831996  0.37261517  0.12467604  1
  Zn  Zn102  1  0.00098989  0.87593827  0.37386383  1
  Zn  Zn103  1  -0.00217470  -0.00008564  0.00090306  1
  Zn  Zn104  1  0.12420605  0.25195914  0.87801873  1
  Zn  Zn105  1  0.12388517  -0.00161967  0.62412867  1
  Zn  Zn106  1  0.37508823  0.62536929  0.25029572  1
  Zn  Zn107  1  0.24845494  0.87660636  0.62374795  1
  Zn  Zn108  1  0.50083982  0.75050223  0.74870248  1
  Zn  Zn109  1  0.24929473  0.74894259  -0.00093343  1
  Zn  Zn110  1  0.75045013  -0.00066482  0.24952350  1
  Zn  Zn111  1  0.37516254  -0.00101856  0.87707420  1
  Zn  Zn112  1  0.25014397  0.25092266  0.00371639  1
  Zn  Zn113  1  0.87418280  0.74981717  0.12443741  1
  Zn  Zn114  1  0.37329453  0.25177664  0.12500415  1
  Zn  Zn115  1  0.37428729  -0.00084926  0.37570257  1
  Zn  Zn116  1  -0.00269947  0.12473196  0.12430120  1
  Zn  Zn117  1  0.50153376  0.62553038  0.62452305  1
  Zn  Zn118  1  0.37492605  0.37508534  0.50134963  1
  Zn  Zn119  1  0.62581112  0.62492904  -0.00141734  1
  Zn  Zn120  1  0.74965960  0.25016782  0.00055303  1
  Zn  Zn121  1  0.00110589  0.24785931  0.75368148  1
  Zn  Zn122  1  0.25082709  0.62706709  0.87680456  1
  Zn  Zn123  1  0.25054687  0.50173208  0.75044448  1
  Zn  Zn124  1  0.12345408  0.87520208  0.25043451  1
  Zn  Zn125  1  0.75000526  0.00026486  0.74876644  1
  Zn  Zn126  1  0.74903707  0.25134415  0.50045169  1
  Zn  Zn127  1  0.00171725  0.62508147  0.62515646  1
  Zn  Zn128  1  0.18877010  0.18992727  0.18604457  1
  Zn  Zn129  1  0.18601661  0.18786513  0.68765339  1
  Zn  Zn130  1  0.18662742  0.68454069  0.18737970  1
  Zn  Zn131  1  0.18964492  0.68857030  0.68751310  1
  Zn  Zn132  1  0.68796340  0.18730246  0.18823330  1
  Zn  Zn133  1  0.68954147  0.18728620  0.68836258  1
  Zn  Zn134  1  0.68709548  0.68883629  0.18711084  1
  Zn  Zn135  1  0.68854381  0.68748788  0.68718475  1
  Zn  Zn136  1  0.31259922  0.31247139  0.31541734  1
  Zn  Zn137  1  0.31160641  0.31252115  0.81370525  1
  Zn  Zn138  1  0.31309861  0.81301975  0.31062889  1
  Zn  Zn139  1  0.31200605  0.81139689  0.81326395  1
  Zn  Zn140  1  0.81194397  0.31177420  0.31305756  1
  Zn  Zn141  1  0.81211774  0.31117915  0.81201468  1
  Zn  Zn142  1  0.81268852  0.81312692  0.31128555  1
  Zn  Zn143  1  0.81203104  0.81307429  0.81111070  1
  Zn  Zn144  1  0.18798055  0.43465980  0.43765653  1
  Zn  Zn145  1  0.18976912  0.44287065  0.93545016  1
  Zn  Zn146  1  0.18534925  0.93593615  0.43657551  1
  Zn  Zn147  1  0.18574900  0.93782200  0.93724263  1
  Zn  Zn148  1  0.68886546  0.43591853  0.43871146  1
  Zn  Zn149  1  0.68737855  0.43784287  0.93802715  1
  Zn  Zn150  1  0.68770409  0.93847196  0.43687866  1
  Zn  Zn151  1  0.68741681  0.93839749  0.93710739  1
  Zn  Zn152  1  0.31413496  0.06093773  0.06308727  1
  Zn  Zn153  1  0.31242270  0.06320356  0.56411013  1
  Zn  Zn154  1  0.31157119  0.56268907  0.06189381  1
  Zn  Zn155  1  0.31301145  0.56243186  0.56337101  1
  Zn  Zn156  1  0.81049619  0.06185174  0.06168368  1
  Zn  Zn157  1  0.81168849  0.06340653  0.56132373  1
  Zn  Zn158  1  0.81230043  0.56278661  0.06222871  1
  Zn  Zn159  1  0.81305022  0.56221849  0.56344903  1
  Zn  Zn160  1  0.43595757  0.43901070  0.18787930  1
  Zn  Zn161  1  0.43885312  0.43865025  0.68608896  1
  Zn  Zn162  1  0.43798548  0.93708737  0.18738340  1
  Zn  Zn163  1  0.43609883  0.93815365  0.68846264  1
  Zn  Zn164  1  0.93811901  0.43539163  0.18836202  1
  Zn  Zn165  1  0.93998286  0.43714325  0.68691184  1
  Zn  Zn166  1  0.93534435  0.93621098  0.18808252  1
  Zn  Zn167  1  0.93717643  0.93781937  0.68735781  1
  Zn  Zn168  1  0.06093752  0.06486110  0.31337884  1
  Zn  Zn169  1  0.06144594  0.06119234  0.81340389  1
  Zn  Zn170  1  0.06440113  0.56200018  0.31349210  1
  Zn  Zn171  1  0.06237396  0.56245896  0.81249089  1
  Zn  Zn172  1  0.56262490  0.06057981  0.31254918  1
  Zn  Zn173  1  0.56403686  0.06101488  0.81162959  1
  Zn  Zn174  1  0.56242167  0.56354474  0.31181238  1
  Zn  Zn175  1  0.56125663  0.56408555  0.81072429  1
  Zn  Zn176  1  0.43631513  0.18784648  0.43698802  1
  Zn  Zn177  1  0.43723683  0.18831325  0.93728646  1
  Zn  Zn178  1  0.43815134  0.68670821  0.43726722  1
  Zn  Zn179  1  0.43799187  0.68989974  0.93894124  1
  Zn  Zn180  1  0.93719006  0.18653022  0.43811495  1
  Zn  Zn181  1  0.93847826  0.18856758  0.93853193  1
  Zn  Zn182  1  0.93918142  0.68606538  0.43724514  1
  Zn  Zn183  1  0.93725045  0.68797976  0.93692477  1
  Zn  Zn184  1  0.06201408  0.31206747  0.06455210  1
  Zn  Zn185  1  0.06187682  0.31166958  0.56379939  1
  Zn  Zn186  1  0.06083016  0.81199126  0.06249891  1
  Zn  Zn187  1  0.06304345  0.81398992  0.56332935  1
  Zn  Zn188  1  0.56020180  0.31188652  0.06238535  1
  Zn  Zn189  1  0.56220141  0.31388123  0.56260376  1
  Zn  Zn190  1  0.56402293  0.81158763  0.05999171  1
  Zn  Zn191  1  0.56200726  0.81269583  0.56062378  1
  O  O192  1  0.12678104  0.11570233  0.11666904  1
  O  O193  1  0.11721711  0.12416794  0.61922851  1
  O  O194  1  0.11786429  0.61826925  0.11930423  1
  O  O195  1  0.12594631  0.61860896  0.61875496  1
  O  O196  1  0.61940489  0.12014473  0.12023981  1
  O  O197  1  0.61926272  0.12077652  0.62029410  1
  O  O198  1  0.61617437  0.61959076  0.12383389  1
  O  O199  1  0.62490167  0.61907517  0.61786237  1
  O  O200  1  0.38273635  0.38162470  0.37764303  1
  O  O201  1  0.38112588  0.38099109  0.88071093  1
  O  O202  1  0.38155089  0.87565351  0.38082138  1
  O  O203  1  0.38717292  0.87537385  0.87625671  1
  O  O204  1  0.88075155  0.38005060  0.38037795  1
  O  O205  1  0.87966974  0.38063646  0.88007852  1
  O  O206  1  0.87553385  0.88140739  0.38134611  1
  O  O207  1  0.87883281  0.88007564  0.87928785  1
  O  O208  1  0.25050487  0.00063177  0.36165418  1
  O  O209  1  0.25055625  0.00897314  0.86706546  1
  O  O210  1  0.25436894  0.50402136  0.36900279  1
  O  O211  1  0.26034814  0.50632847  0.87042505  1
  O  O212  1  0.75607437  0.00732003  0.37386229  1
  O  O213  1  0.75587668  0.00681036  0.87277539  1
  O  O214  1  0.75562489  0.50490392  0.36951194  1
  O  O215  1  0.75537752  0.50501981  0.86937274  1
  O  O216  1  0.24503340  0.49967230  0.13493171  1
  O  O217  1  0.24403679  0.49268753  0.62681991  1
  O  O218  1  0.24323687  0.99317602  0.13205545  1
  O  O219  1  0.24794609  1.00033766  0.63906089  1
  O  O220  1  0.74422476  0.49511832  0.13112704  1
  O  O221  1  0.74421151  0.49843245  0.63202463  1
  O  O222  1  0.74180336  0.99233560  0.12554608  1
  O  O223  1  0.74293407  0.99320128  0.62395230  1
  O  O224  1  0.00063988  0.36774532  0.25790931  1
  O  O225  1  0.00992400  0.37526321  0.75659545  1
  O  O226  1  0.00080853  0.86184347  0.25061972  1
  O  O227  1  0.00474806  0.86933463  0.75588301  1
  O  O228  1  0.50490395  0.37074408  0.25503892  1
  O  O229  1  0.50556039  0.36957976  0.75537019  1
  O  O230  1  0.50666299  0.87350277  0.25600930  1
  O  O231  1  0.50576422  0.87511875  0.75913202  1
  O  O232  1  0.49305576  0.12885561  0.24550268  1
  O  O233  1  0.49512719  0.12993050  0.74533246  1
  O  O234  1  0.49821809  0.62654270  0.23714018  1
  O  O235  1  0.48854186  0.62909366  0.74657628  1
  O  O236  1  0.99181033  0.13187383  0.24802236  1
  O  O237  1  0.99385368  0.12617763  0.74427394  1
  O  O238  1  0.99529380  0.63076245  0.24601939  1
  O  O239  1  0.99346292  0.63163000  0.74866175  1
  O  O240  1  0.37548771  0.26267151  0.00010717  1
  O  O241  1  0.36882540  0.25017555  0.50766787  1
  O  O242  1  0.37205408  0.75323781  0.01297813  1
  O  O243  1  0.37024823  0.75436517  0.50661652  1
  O  O244  1  0.87330850  0.25705814  0.00737169  1
  O  O245  1  0.87510336  0.25495512  0.50967844  1
  O  O246  1  0.86813090  0.75653540  0.00037499  1
  O  O247  1  0.87027553  0.75418722  0.50379602  1
  O  O248  1  0.12942046  0.24395389  0.49605953  1
  O  O249  1  0.12775672  0.23797574  1.00072504  1
  O  O250  1  0.13087719  0.74495007  0.49512864  1
  O  O251  1  0.12365988  0.74333491  0.99419938  1
  O  O252  1  0.62437011  0.24363286  0.49369764  1
  O  O253  1  0.62431631  0.24412867  0.99298349  1
  O  O254  1  0.63188998  0.74478363  0.49436967  1
  O  O255  1  0.63284908  0.74783098  0.99150520  1
  O  O256  1  0.49787248  0.24314334  0.13277289  1
  O  O257  1  0.49517724  0.24467588  0.63107870  1
  O  O258  1  0.49300204  0.74283264  0.12412912  1
  O  O259  1  0.48762240  0.74915510  0.62437419  1
  O  O260  1  0.99209830  0.24859249  0.13254735  1
  O  O261  1  0.98918441  0.24355100  0.62666675  1
  O  O262  1  0.99868137  0.74267916  0.13520508  1
  O  O263  1  0.99356201  0.74860148  0.63131650  1
  O  O264  1  0.00460882  0.25451945  0.37065177  1
  O  O265  1  0.00359697  0.25934350  0.87369535  1
  O  O266  1  0.00586165  0.74828119  0.36499680  1
  O  O267  1  0.00449745  0.75594814  0.86843875  1
  O  O268  1  0.50518719  0.25560485  0.36944443  1
  O  O269  1  0.50554580  0.25538364  0.86838888  1
  O  O270  1  0.50703844  0.75615196  0.37394763  1
  O  O271  1  0.50658235  0.76054917  0.87499176  1
  O  O272  1  0.24351774  0.13056255  0.49990828  1
  O  O273  1  0.24291341  0.12255552  0.99222182  1
  O  O274  1  0.24533271  0.63079515  0.49426451  1
  O  O275  1  0.24018954  0.62731354  0.99927124  1
  O  O276  1  0.74173195  0.12749453  0.49330903  1
  O  O277  1  0.74173065  0.12734461  0.99336435  1
  O  O278  1  0.74589222  0.62983065  0.49342656  1
  O  O279  1  0.74935459  0.63019376  0.99240361  1
  O  O280  1  0.26199890  0.37599431  -0.00214944  1
  O  O281  1  0.25128247  0.36689345  0.50813081  1
  O  O282  1  0.25107651  0.87558660  0.01290614  1
  O  O283  1  0.25660676  0.86873480  0.50066366  1
  O  O284  1  0.75631180  0.37478502  0.00698071  1
  O  O285  1  0.75906793  0.37192131  0.50290070  1
  O  O286  1  0.75429211  0.86910929  0.00409076  1
  O  O287  1  0.75538184  0.86877468  0.50433796  1
  O  O288  1  0.13388782  0.49876237  0.24534420  1
  O  O289  1  0.12581222  0.49042965  0.74450182  1
  O  O290  1  0.13353015  1.00223824  0.24106257  1
  O  O291  1  0.13381196  0.99437402  0.75058418  1
  O  O292  1  0.63035636  0.49450436  0.24512861  1
  O  O293  1  0.62996915  0.49527415  0.74491834  1
  O  O294  1  0.62611820  0.99303622  0.24280352  1
  O  O295  1  0.62673663  0.99353353  0.74122057  1
  O  O296  1  0.36653810  0.00789832  0.24893269  1
  O  O297  1  0.36534365  0.00636662  0.75257392  1
  O  O298  1  0.36587338  0.50194270  0.25636444  1
  O  O299  1  0.37658910  0.51002262  0.75407254  1
  O  O300  1  0.87340922  0.00644472  0.25635293  1
  O  O301  1  0.87279038  0.00650619  0.75632059  1
  O  O302  1  0.86968023  0.50388148  0.25637611  1
  O  O303  1  0.87082539  0.50444705  0.75505642  1
  O  O304  1  0.11780410  0.36698709  0.37419458  1
  O  O305  1  0.12071331  0.37688648  0.86742130  1
  O  O306  1  0.12232937  0.86581248  0.37010558  1
  O  O307  1  0.11843144  0.86974209  0.87054579  1
  O  O308  1  0.61985498  0.37042516  0.36892342  1
  O  O309  1  0.61922122  0.37036108  0.86974199  1
  O  O310  1  0.62043783  0.86959825  0.37037293  1
  O  O311  1  0.61844790  0.87069356  0.86859160  1
  O  O312  1  0.38150061  0.12505801  0.13559700  1
  O  O313  1  0.38099176  0.13085013  0.63213313  1
  O  O314  1  0.38341421  0.63248530  0.12487491  1
  O  O315  1  0.37645989  0.63430728  0.63164027  1
  O  O316  1  0.87431502  0.13085994  0.13078505  1
  O  O317  1  0.87956574  0.13189429  0.62953729  1
  O  O318  1  0.88120429  0.62465617  0.13224966  1
  O  O319  1  0.87647357  0.63193609  0.63123073  1
  O  O320  1  0.25593888  0.25511292  0.12192558  1
  O  O321  1  0.25539747  0.25447923  0.62106435  1
  O  O322  1  0.25606719  0.75806294  0.12622355  1
  O  O323  1  0.26122189  0.75172707  0.61817541  1
  O  O324  1  0.75522568  0.25802430  0.12451332  1
  O  O325  1  0.76341036  0.25075126  0.62372800  1
  O  O326  1  0.75115633  0.75576019  0.11771631  1
  O  O327  1  0.75605195  0.75537384  0.61812561  1
  O  O328  1  0.24341109  0.24820948  0.38243802  1
  O  O329  1  0.24718722  0.23676615  0.87735141  1
  O  O330  1  0.24573052  0.74409259  0.37847646  1
  O  O331  1  0.24150889  0.74903458  0.87893792  1
  O  O332  1  0.74188547  0.24394464  0.37609581  1
  O  O333  1  0.74279135  0.24364518  0.87686981  1
  O  O334  1  0.74545110  0.74394451  0.37998879  1
  O  O335  1  0.74548673  0.74464849  0.87885449  1
  O  O336  1  0.01170511  0.12152960  0.00230103  1
  O  O337  1  0.00459117  0.11902375  0.50562784  1
  O  O338  1  0.00346412  0.61875691  0.00538738  1
  O  O339  1  0.00792664  0.61799789  0.50094154  1
  O  O340  1  0.50501326  0.12031001  0.00486811  1
  O  O341  1  0.50425906  0.12013148  0.50600599  1
  O  O342  1  0.50137727  0.61981212  0.01016612  1
  O  O343  1  0.50852205  0.61821876  0.50009702  1
  O  O344  1  0.49926172  0.38208407  0.49277227  1
  O  O345  1  0.49235204  0.38092942  0.99395388  1
  O  O346  1  0.49468620  0.88078080  0.49419727  1
  O  O347  1  0.50210942  0.88117791  0.98955417  1
  O  O348  1  0.99516531  0.38055006  0.49443802  1
  O  O349  1  0.99427939  0.38127633  0.99560481  1
  O  O350  1  0.99318643  0.88098085  0.49800045  1
  O  O351  1  0.99253639  0.87602552  0.99360186  1
  O  O352  1  0.49579338  0.49541197  0.37896604  1
  O  O353  1  0.49579327  0.49496898  0.87995898  1
  O  O354  1  0.49854664  0.99315926  0.38215019  1
  O  O355  1  0.50098400  0.99061610  0.87985745  1
  O  O356  1  0.99509001  0.49462561  0.38025099  1
  O  O357  1  0.99364335  0.49491246  0.88129496  1
  O  O358  1  0.99268909  0.99901241  0.38113207  1
  O  O359  1  0.99273481  0.99233809  0.87678305  1
  O  O360  1  0.01247253  0.00029821  0.12535856  1
  O  O361  1  0.00004209  0.00627363  0.61753839  1
  O  O362  1  0.00464961  0.50431625  0.12051794  1
  O  O363  1  0.00774956  0.50162445  0.61754899  1
  O  O364  1  0.50582357  0.00531045  0.11961878  1
  O  O365  1  0.50468509  0.00594408  0.61971199  1
  O  O366  1  0.50404141  0.50813987  0.12071335  1
  O  O367  1  0.50803701  0.50155534  0.61741316  1
  O  O368  1  0.24902075  0.38746646  0.25077360  1
  O  O369  1  0.24078155  0.37607649  0.74549739  1
  O  O370  1  0.24920099  0.88428961  0.23944290  1
  O  O371  1  0.24513444  0.88521716  0.75190901  1
  O  O372  1  0.74389994  0.38099069  0.24540098  1
  O  O373  1  0.74339843  0.38193578  0.74942478  1
  O  O374  1  0.74329692  0.87577492  0.24271222  1
  O  O375  1  0.74351588  0.87633171  0.74135982  1
  O  O376  1  0.25854234  0.11631873  0.24873594  1
  O  O377  1  0.25251197  0.11855248  0.75829701  1
  O  O378  1  0.25027925  0.61351538  0.25600768  1
  O  O379  1  0.26417971  0.62495832  0.75140635  1
  O  O380  1  0.75579820  0.12331124  0.25717993  1
  O  O381  1  0.75695074  0.12300861  0.75706575  1
  O  O382  1  0.75475110  0.61907978  0.25503860  1
  O  O383  1  0.75658856  0.61933022  0.75552065  1
  O  O384  1  0.37364237  0.12159819  0.36226037  1
  O  O385  1  0.36585254  0.12362021  0.87021144  1
  O  O386  1  0.36861660  0.61898375  0.37293322  1
  O  O387  1  0.37716293  0.62247220  0.86637543  1
  O  O388  1  0.86882886  0.12036025  0.37031986  1
  O  O389  1  0.87029947  0.12069186  0.87108511  1
  O  O390  1  0.86957264  0.61801974  0.37019693  1
  O  O391  1  0.86975446  0.61877641  0.86885353  1
  O  O392  1  0.12716608  0.38369816  0.12722463  1
  O  O393  1  0.12935814  0.37946648  0.63309188  1
  O  O394  1  0.13289133  0.88329955  0.12619088  1
  O  O395  1  0.12865473  0.87731748  0.63424865  1
  O  O396  1  0.62833261  0.38055817  0.13089610  1
  O  O397  1  0.62701294  0.38080101  0.63215368  1
  O  O398  1  0.62918077  0.87949131  0.12933450  1
  O  O399  1  0.62959704  0.87975567  0.62780332  1
  O  O400  1  0.11832511  0.24950347  0.25684585  1
  O  O401  1  0.12326098  0.26319931  0.75184054  1
  O  O402  1  0.11525641  0.74786620  0.25494101  1
  O  O403  1  0.12026392  0.75483499  0.75553546  1
  O  O404  1  0.61836682  0.25560408  0.25557151  1
  O  O405  1  0.61945573  0.25509413  0.75494538  1
  O  O406  1  0.62363371  0.75622661  0.25716302  1
  O  O407  1  0.62316957  0.75672989  0.75479140  1
  O  O408  1  0.38055087  0.24091831  0.25062260  1
  O  O409  1  0.38066891  0.24450859  0.74574390  1
  O  O410  1  0.37680912  0.74727408  0.23677093  1
  O  O411  1  0.37605783  0.74430430  0.74085741  1
  O  O412  1  0.87964070  0.24488679  0.24554121  1
  O  O413  1  0.87736763  0.24437145  0.74125579  1
  O  O414  1  0.88434559  0.74219754  0.24994228  1
  O  O415  1  0.88022226  0.74503975  0.74434845  1
  O  O416  1  0.38196592  0.49895078  0.49390978  1
  O  O417  1  0.38114917  0.49390376  0.99400302  1
  O  O418  1  0.38034723  0.99433757  0.49960567  1
  O  O419  1  0.38405039  0.99669102  0.99775824  1
  O  O420  1  0.88105463  0.49518335  0.49488097  1
  O  O421  1  0.88016624  0.49428447  0.99454695  1
  O  O422  1  0.88006313  0.99512273  0.49442787  1
  O  O423  1  0.87575641  0.99336728  0.99316555  1
  O  O424  1  0.12498020  0.00815216  0.00947151  1
  O  O425  1  0.11898391  0.00586475  0.50106576  1
  O  O426  1  0.11828632  0.50553802  0.00492200  1
  O  O427  1  0.12108183  0.50465199  0.50446479  1
  O  O428  1  0.61904633  0.00645904  0.00548674  1
  O  O429  1  0.61799928  0.00573096  0.50524280  1
  O  O430  1  0.61793254  0.50117356  0.00705948  1
  O  O431  1  0.62141510  0.50517795  0.50415755  1
  O  O432  1  0.37515095  0.37682542  0.11203658  1
  O  O433  1  0.36898203  0.36788573  0.62561271  1
  O  O434  1  0.36719764  0.86741543  0.12455627  1
  O  O435  1  0.37337075  0.86649279  0.61938701  1
  O  O436  1  0.86876084  0.37061990  0.12054416  1
  O  O437  1  0.87632129  0.36576637  0.62037842  1
  O  O438  1  0.86763884  0.87342655  0.11790346  1
  O  O439  1  0.86941797  0.86929469  0.61850861  1
  O  O440  1  0.12647492  0.13174531  0.38286541  1
  O  O441  1  0.13259760  0.12395037  0.88428151  1
  O  O442  1  0.13166495  0.62960455  0.38188709  1
  O  O443  1  0.12439581  0.63124999  0.88118057  1
  O  O444  1  0.62810692  0.13027890  0.37979710  1
  O  O445  1  0.62914158  0.13013111  0.87945001  1
  O  O446  1  0.63153716  0.62987346  0.37958347  1
  O  O447  1  0.63147279  0.63130142  0.87465035  1
