# generated using pymatgen
data_V3Zn3O8
_symmetry_space_group_name_H-M   'P 1'
_cell_length_a   17.08568192
_cell_length_b   17.08618444
_cell_length_c   17.08744175
_cell_angle_alpha   89.98172349
_cell_angle_beta   89.99466402
_cell_angle_gamma   90.01293217
_symmetry_Int_Tables_number   1
_chemical_formula_structural   V3Zn3O8
_chemical_formula_sum   'V96 Zn96 O256'
_cell_volume   4988.32130471
_cell_formula_units_Z   32
loop_
 _symmetry_equiv_pos_site_id
 _symmetry_equiv_pos_as_xyz
  1  'x, y, z'
loop_
 _atom_site_type_symbol
 _atom_site_label
 _atom_site_symmetry_multiplicity
 _atom_site_fract_x
 _atom_site_fract_y
 _atom_site_fract_z
 _atom_site_occupancy
  V  V0  1  0.12502757  0.62437288  -0.00000130  1
  V  V1  1  0.87662342  -0.00027380  0.37486890  1
  V  V2  1  -0.00022518  -0.00119470  -0.00055902  1
  V  V3  1  0.37458232  0.49910990  0.87498443  1
  V  V4  1  0.87389065  0.50077241  0.37435135  1
  V  V5  1  0.87516998  0.37525129  -0.00029259  1
  V  V6  1  0.12419431  0.37524872  0.75013436  1
  V  V7  1  0.74971627  0.37628833  0.12503005  1
  V  V8  1  0.49998424  0.24939639  0.24937206  1
  V  V9  1  0.74977211  0.25009435  0.49929316  1
  V  V10  1  0.75027915  0.87370444  0.12505265  1
  V  V11  1  0.24961869  0.24882530  -0.00037459  1
  V  V12  1  0.62442487  0.62382914  0.00098970  1
  V  V13  1  0.62470385  0.49972836  0.12502130  1
  V  V14  1  0.12627734  0.87524231  0.24989489  1
  V  V15  1  -0.00049198  0.74868521  0.74975821  1
  V  V16  1  0.50003232  0.00055868  0.49921539  1
  V  V17  1  0.12434081  0.74902853  0.87463120  1
  V  V18  1  0.62531747  0.00114164  0.62455184  1
  V  V19  1  0.00065987  0.50021196  0.50018675  1
  V  V20  1  0.62561629  0.24986092  0.87500683  1
  V  V21  1  -0.00072894  0.37590887  0.87486724  1
  V  V22  1  0.50016569  0.62610766  0.62569046  1
  V  V23  1  0.49973860  0.62375014  0.12468337  1
  V  V24  1  0.37466052  0.75100625  0.62561956  1
  V  V25  1  0.62439317  0.75050196  0.37567754  1
  V  V26  1  0.24839977  0.75004038  0.50062516  1
  V  V27  1  0.62446385  0.87427263  0.25145676  1
  V  V28  1  0.37502758  0.74908873  0.12460367  1
  V  V29  1  0.50127618  0.87439343  0.87466355  1
  V  V30  1  0.50020490  0.75080998  0.74964415  1
  V  V31  1  -0.00041610  0.25045803  0.75024773  1
  V  V32  1  0.00109419  0.12494790  0.62518073  1
  V  V33  1  0.24978400  0.12493394  0.37397890  1
  V  V34  1  0.37608002  0.12477411  0.75101007  1
  V  V35  1  0.00012468  0.50095579  -0.00034639  1
  V  V36  1  0.87547498  0.25056050  0.12400742  1
  V  V37  1  0.24977978  0.49919226  0.25019193  1
  V  V38  1  0.74971331  0.62479162  0.37443792  1
  V  V39  1  0.00062498  0.12419719  0.12394952  1
  V  V40  1  0.49743555  0.49953578  0.50059768  1
  V  V41  1  0.87393975  0.50107491  0.87338576  1
  V  V42  1  0.12480713  0.24937367  0.87598868  1
  V  V43  1  0.62605604  0.12524246  -0.00041472  1
  V  V44  1  0.62503161  0.25056088  0.37457190  1
  V  V45  1  0.12584621  0.75003519  0.37634134  1
  V  V46  1  0.74947646  0.62471453  0.87271697  1
  V  V47  1  0.25000290  0.37421790  0.62522062  1
  V  V48  1  0.62472346  0.12466074  0.49962024  1
  V  V49  1  0.74848862  0.37567447  0.62510731  1
  V  V50  1  -0.00072415  0.62639336  0.12611423  1
  V  V51  1  0.37623207  0.37420572  -0.00038260  1
  V  V52  1  0.37582815  0.87379941  0.00134968  1
  V  V53  1  0.25080863  0.74968062  -0.00006318  1
  V  V54  1  -0.00107897  0.37512638  0.37408366  1
  V  V55  1  0.75006076  0.75048671  0.00138770  1
  V  V56  1  0.25045089  -0.00139058  0.75058030  1
  V  V57  1  0.25048501  0.62380696  0.87467182  1
  V  V58  1  0.87515774  0.24949744  0.62461120  1
  V  V59  1  0.87522426  0.75009234  0.62460509  1
  V  V60  1  0.87554319  0.87601286  0.50042344  1
  V  V61  1  0.50025598  0.87568695  0.37533677  1
  V  V62  1  -0.00028780  0.25068595  0.24913258  1
  V  V63  1  0.37398167  0.25102477  0.62428309  1
  V  V64  1  0.62308145  0.62639690  0.49983834  1
  V  V65  1  0.37547673  0.87639238  0.49928737  1
  V  V66  1  0.62571129  -0.00056090  0.12504859  1
  V  V67  1  0.37532655  -0.00017077  0.87507480  1
  V  V68  1  0.37377520  0.62374344  0.25217780  1
  V  V69  1  0.87572735  -0.00085786  0.87480097  1
  V  V70  1  0.75007868  0.24993983  -0.00077838  1
  V  V71  1  0.12483167  0.24941848  0.37515804  1
  V  V72  1  0.12512690  0.49931689  0.12537390  1
  V  V73  1  0.50004158  0.37528288  0.87469845  1
  V  V74  1  0.49908848  0.37527829  0.37566269  1
  V  V75  1  0.50050237  0.12492997  0.12585229  1
  V  V76  1  0.87485134  0.12412584  0.75039879  1
  V  V77  1  -0.00012009  0.74881801  0.24960248  1
  V  V78  1  0.75039427  0.00012247  0.74982854  1
  V  V79  1  0.50004087  0.24967015  0.75009186  1
  V  V80  1  0.75077949  0.12511864  0.37435570  1
  V  V81  1  0.87501805  0.12494126  0.24926012  1
  V  V82  1  0.12501958  0.00070700  0.62552981  1
  V  V83  1  0.50061554  -0.00090859  0.00047462  1
  V  V84  1  0.62638254  0.37525462  0.74910987  1
  V  V85  1  0.12502860  0.37586833  0.24941110  1
  V  V86  1  0.00053267  0.87535062  0.37434796  1
  V  V87  1  0.87383633  0.37468812  0.49900124  1
  V  V88  1  0.12709952  -0.00123004  0.12522705  1
  V  V89  1  -0.00039325  0.87395671  0.87621461  1
  V  V90  1  0.62535208  0.37572381  0.24926884  1
  V  V91  1  0.37640748  0.24932807  0.12465183  1
  V  V92  1  0.12321239  0.49960911  0.62366042  1
  V  V93  1  0.62483523  0.87692207  0.74934015  1
  V  V94  1  0.75069810  -0.00087671  0.24951966  1
  V  V95  1  0.24956601  0.50034777  0.75036043  1
  Zn  Zn96  1  0.12369810  0.62472328  0.50036795  1
  Zn  Zn97  1  0.87416129  0.62532998  0.24853123  1
  Zn  Zn98  1  0.49944741  0.12577129  0.62344793  1
  Zn  Zn99  1  0.12552848  0.12352839  -0.00104371  1
  Zn  Zn100  1  0.24804731  0.12320061  0.87617409  1
  Zn  Zn101  1  0.37227357  0.49757086  0.37562219  1
  Zn  Zn102  1  0.24846610  0.25076892  0.49961084  1
  Zn  Zn103  1  0.74965370  0.50103186  0.74701547  1
  Zn  Zn104  1  0.24951535  0.87538571  0.62529449  1
  Zn  Zn105  1  0.25080896  0.37387468  0.12603629  1
  Zn  Zn106  1  0.87261466  0.62360532  0.74621312  1
  Zn  Zn107  1  0.87558317  0.74993483  0.12686214  1
  Zn  Zn108  1  0.25235277  0.87505257  0.12705175  1
  Zn  Zn109  1  0.12498892  0.12673229  0.50007857  1
  Zn  Zn110  1  0.12673315  0.87338095  0.75030169  1
  Zn  Zn111  1  0.74978101  0.87551499  0.62478250  1
  Zn  Zn112  1  0.00246550  0.00259775  0.49923028  1
  Zn  Zn113  1  0.87445276  0.87453437  0.00144708  1
  Zn  Zn114  1  0.62477979  0.75015399  0.87372660  1
  Zn  Zn115  1  0.74941011  0.75065249  0.50152853  1
  Zn  Zn116  1  0.37513637  0.12292490  0.25046464  1
  Zn  Zn117  1  0.49858387  0.74980697  0.25081402  1
  Zn  Zn118  1  -0.00037511  0.62367835  0.62317333  1
  Zn  Zn119  1  0.37267442  0.37490669  0.49808821  1
  Zn  Zn120  1  0.49984431  0.49958676  -0.00111735  1
  Zn  Zn121  1  0.25371171  -0.00143983  0.25048010  1
  Zn  Zn122  1  0.37601099  0.62552929  0.75094354  1
  Zn  Zn123  1  0.37371464  0.00149575  0.37338133  1
  Zn  Zn124  1  0.62586665  0.50144895  0.62699730  1
  Zn  Zn125  1  0.75069601  0.50061473  0.24921786  1
  Zn  Zn126  1  0.24880576  0.62226585  0.37737707  1
  Zn  Zn127  1  0.75088097  0.12481788  0.87515464  1
  Zn  Zn128  1  0.18821821  0.18639142  0.18820597  1
  Zn  Zn129  1  0.18866961  0.18566934  0.69022312  1
  Zn  Zn130  1  0.18787318  0.68759680  0.18757816  1
  Zn  Zn131  1  0.18633826  0.68449055  0.68585355  1
  Zn  Zn132  1  0.68740304  0.18815585  0.18682012  1
  Zn  Zn133  1  0.68797244  0.18677856  0.68721338  1
  Zn  Zn134  1  0.68580706  0.68770058  0.18894663  1
  Zn  Zn135  1  0.68617062  0.69046153  0.68624176  1
  Zn  Zn136  1  0.31312685  0.31139741  0.31175069  1
  Zn  Zn137  1  0.31190913  0.31284609  0.81260008  1
  Zn  Zn138  1  0.31220291  0.81282669  0.31346010  1
  Zn  Zn139  1  0.31395739  0.81273058  0.81339905  1
  Zn  Zn140  1  0.81178439  0.31319715  0.31114067  1
  Zn  Zn141  1  0.81156531  0.31259105  0.81189969  1
  Zn  Zn142  1  0.81300817  0.81005873  0.31256612  1
  Zn  Zn143  1  0.81226220  0.81401228  0.81268184  1
  Zn  Zn144  1  0.18843674  0.43592558  0.43766924  1
  Zn  Zn145  1  0.18838679  0.43568358  0.93784636  1
  Zn  Zn146  1  0.18815075  0.93862788  0.43853945  1
  Zn  Zn147  1  0.18730437  0.93429245  0.93794395  1
  Zn  Zn148  1  0.68504177  0.43951339  0.43856166  1
  Zn  Zn149  1  0.68688902  0.43842754  0.93735818  1
  Zn  Zn150  1  0.68855400  0.93763066  0.43782533  1
  Zn  Zn151  1  0.68806971  0.93767960  0.93572830  1
  Zn  Zn152  1  0.31320550  0.06355380  0.06253239  1
  Zn  Zn153  1  0.31179128  0.06526069  0.56023846  1
  Zn  Zn154  1  0.31247151  0.56107712  0.06317336  1
  Zn  Zn155  1  0.31249967  0.56432057  0.56560306  1
  Zn  Zn156  1  0.81322651  0.06197911  0.06132631  1
  Zn  Zn157  1  0.81247106  0.06178984  0.56310001  1
  Zn  Zn158  1  0.81304277  0.56345091  0.06251411  1
  Zn  Zn159  1  0.81186279  0.56257295  0.56065084  1
  Zn  Zn160  1  0.43782927  0.43714168  0.18630003  1
  Zn  Zn161  1  0.43755802  0.43775262  0.68817495  1
  Zn  Zn162  1  0.43689721  0.93808756  0.18997835  1
  Zn  Zn163  1  0.43849321  0.93722443  0.68484434  1
  Zn  Zn164  1  0.93656595  0.44044080  0.18831129  1
  Zn  Zn165  1  0.93493706  0.43785930  0.68715288  1
  Zn  Zn166  1  0.93778905  0.93509681  0.18614570  1
  Zn  Zn167  1  0.93939790  0.93639559  0.68909119  1
  Zn  Zn168  1  0.06387435  0.06263026  0.31104624  1
  Zn  Zn169  1  0.06277960  0.06331882  0.81300197  1
  Zn  Zn170  1  0.06357961  0.56460407  0.31419192  1
  Zn  Zn171  1  0.06206310  0.56374758  0.81093685  1
  Zn  Zn172  1  0.56254597  0.06183217  0.31285283  1
  Zn  Zn173  1  0.56237233  0.06352295  0.81234476  1
  Zn  Zn174  1  0.56123778  0.56133244  0.31251973  1
  Zn  Zn175  1  0.56318107  0.56160486  0.81170077  1
  Zn  Zn176  1  0.43625076  0.18719433  0.43736277  1
  Zn  Zn177  1  0.43791387  0.18633561  0.93706281  1
  Zn  Zn178  1  0.43642292  0.68884367  0.43746565  1
  Zn  Zn179  1  0.43794370  0.68651062  0.93662316  1
  Zn  Zn180  1  0.93933109  0.18649133  0.43842362  1
  Zn  Zn181  1  0.93850439  0.18533227  0.93729535  1
  Zn  Zn182  1  0.93855983  0.68681080  0.43746077  1
  Zn  Zn183  1  0.93497802  0.68707810  0.93816133  1
  Zn  Zn184  1  0.06324246  0.31351439  0.06220704  1
  Zn  Zn185  1  0.06304425  0.31294136  0.56107727  1
  Zn  Zn186  1  0.06302620  0.81283405  0.06262446  1
  Zn  Zn187  1  0.06249003  0.81607812  0.56366429  1
  Zn  Zn188  1  0.56247582  0.31268925  0.06175705  1
  Zn  Zn189  1  0.56165587  0.31296964  0.56304164  1
  Zn  Zn190  1  0.56282403  0.81047235  0.06402128  1
  Zn  Zn191  1  0.56235998  0.81383326  0.56264499  1
  O  O192  1  0.11848525  0.11511250  0.12461684  1
  O  O193  1  0.11970716  0.11676367  0.62701075  1
  O  O194  1  0.11954750  0.61898888  0.11872955  1
  O  O195  1  0.12080086  0.61477923  0.62193813  1
  O  O196  1  0.62089684  0.11907504  0.11938138  1
  O  O197  1  0.62386671  0.12004426  0.61684756  1
  O  O198  1  0.61999069  0.61947804  0.12096081  1
  O  O199  1  0.61843694  0.62527678  0.61757885  1
  O  O200  1  0.38400160  0.37575768  0.37731393  1
  O  O201  1  0.38054296  0.37921938  0.87956721  1
  O  O202  1  0.38230553  0.87571190  0.38208621  1
  O  O203  1  0.38194126  0.88053775  0.88164562  1
  O  O204  1  0.87901126  0.37940660  0.37986220  1
  O  O205  1  0.88006112  0.38017429  0.88043178  1
  O  O206  1  0.88013874  0.87968749  0.38183758  1
  O  O207  1  0.88172917  0.88149203  0.87717011  1
  O  O208  1  0.24896081  0.01176966  0.37365355  1
  O  O209  1  0.25590143  -0.00050653  0.86718383  1
  O  O210  1  0.25239469  0.50189619  0.36687670  1
  O  O211  1  0.25385739  0.50397944  0.86988813  1
  O  O212  1  0.75621059  0.00585820  0.36875533  1
  O  O213  1  0.75715504  0.00225048  0.86845485  1
  O  O214  1  0.75404248  0.50898957  0.37537557  1
  O  O215  1  0.75540373  0.51008298  0.87572431  1
  O  O216  1  0.24232461  0.49737662  0.13106844  1
  O  O217  1  0.24444020  0.49431614  0.63090590  1
  O  O218  1  0.23799501  0.99914439  0.12461255  1
  O  O219  1  0.24280072  1.00129874  0.63426303  1
  O  O220  1  0.74386752  0.49353941  0.12555529  1
  O  O221  1  0.74755667  0.49178226  0.62509172  1
  O  O222  1  0.74491895  0.99489194  0.13030148  1
  O  O223  1  0.74391835  0.99864872  0.63171664  1
  O  O224  1  0.00406716  0.36991711  0.25483943  1
  O  O225  1  0.00425055  0.36964093  0.75566793  1
  O  O226  1  0.00604521  0.86906191  0.25536599  1
  O  O227  1  0.00133650  0.86310114  0.75703807  1
  O  O228  1  0.50638529  0.36901239  0.25487531  1
  O  O229  1  0.50585252  0.36890498  0.75567588  1
  O  O230  1  0.50770077  0.87374680  0.25696937  1
  O  O231  1  0.50508042  0.87132689  0.75537098  1
  O  O232  1  0.50259032  0.13221420  0.24310097  1
  O  O233  1  0.49380085  0.13196796  0.74781042  1
  O  O234  1  0.48960847  0.62490933  0.24409986  1
  O  O235  1  0.49981214  0.63236318  0.74401114  1
  O  O236  1  0.99354502  0.13100040  0.24401602  1
  O  O237  1  0.99422668  0.13171227  0.74499227  1
  O  O238  1  1.00058301  0.63166819  0.24367595  1
  O  O239  1  0.99581694  0.63784104  0.74925542  1
  O  O240  1  0.36806290  0.25402253  0.00358268  1
  O  O241  1  0.37477838  0.25156461  0.51431564  1
  O  O242  1  0.37022109  0.75407049  0.00449830  1
  O  O243  1  0.36722228  0.75566104  0.50520072  1
  O  O244  1  0.87113267  0.25574541  0.00480958  1
  O  O245  1  0.86936049  0.25496307  0.50433292  1
  O  O246  1  0.86094552  0.75094987  0.00207670  1
  O  O247  1  0.87708617  0.75978642  0.50806413  1
  O  O248  1  0.12608855  0.24867485  0.49055974  1
  O  O249  1  0.13386315  0.25038857  0.99535697  1
  O  O250  1  0.13349865  0.75276665  0.49630441  1
  O  O251  1  0.13021540  0.74351111  0.99429328  1
  O  O252  1  0.63035906  0.24512764  0.49385153  1
  O  O253  1  0.63060419  0.24509687  0.99502745  1
  O  O254  1  0.62659076  0.74449234  0.49385585  1
  O  O255  1  0.63534533  0.74354376  0.99869370  1
  O  O256  1  0.49678930  0.24420966  0.12940856  1
  O  O257  1  0.49029874  0.25010225  0.63174363  1
  O  O258  1  0.49319573  0.74191209  0.12717584  1
  O  O259  1  0.49437075  0.74571462  0.62965238  1
  O  O260  1  0.99450498  0.24530191  0.12927147  1
  O  O261  1  0.99440481  0.24629500  0.63117133  1
  O  O262  1  1.00096757  0.74374239  0.13099295  1
  O  O263  1  0.99276470  0.75092718  0.63333337  1
  O  O264  1  0.00317302  0.25537999  0.36793619  1
  O  O265  1  0.00394672  0.25666744  0.87011714  1
  O  O266  1  0.00600585  0.75634141  0.37038844  1
  O  O267  1  0.00344072  0.75279552  0.86849989  1
  O  O268  1  0.50672540  0.25465766  0.37005142  1
  O  O269  1  0.50564919  0.25538441  0.86967580  1
  O  O270  1  0.50678439  0.75730136  0.37423385  1
  O  O271  1  0.50153947  0.75662776  0.86878784  1
  O  O272  1  0.24646608  0.12955591  0.48877063  1
  O  O273  1  0.24877021  0.13715234  0.99754404  1
  O  O274  1  0.24946797  0.63838501  0.49981974  1
  O  O275  1  0.24409258  0.62935671  0.99427430  1
  O  O276  1  0.74592424  0.13053394  0.49341743  1
  O  O277  1  0.74389524  0.13196173  0.99956919  1
  O  O278  1  0.74283517  0.62613405  0.48947105  1
  O  O279  1  0.74482407  0.63215389  0.99310020  1
  O  O280  1  0.25616032  0.36373737  0.00112142  1
  O  O281  1  0.25319958  0.37169165  0.50937210  1
  O  O282  1  0.25828246  0.86723096  0.00114212  1
  O  O283  1  0.25600982  0.86551015  0.50146974  1
  O  O284  1  0.75580775  0.36952710  0.00517947  1
  O  O285  1  0.75404644  0.36879963  0.50359650  1
  O  O286  1  0.74789309  0.86553162  0.00541656  1
  O  O287  1  0.76414523  0.87348502  0.50032855  1
  O  O288  1  0.12954774  0.49526008  0.24497580  1
  O  O289  1  0.12900753  0.49381507  0.74509481  1
  O  O290  1  0.12379528  0.99345758  0.23892930  1
  O  O291  1  0.13436768  0.99991959  0.74388842  1
  O  O292  1  0.62606835  0.49274272  0.24326875  1
  O  O293  1  0.62796086  0.49064716  0.74758403  1
  O  O294  1  0.63196998  0.99481195  0.24473226  1
  O  O295  1  0.62977676  0.99681131  0.74448810  1
  O  O296  1  0.37193834  0.00466955  0.25404482  1
  O  O297  1  0.36882427  0.00380367  0.75417730  1
  O  O298  1  0.36898913  0.50852189  0.24885053  1
  O  O299  1  0.36721177  0.50064308  0.75696600  1
  O  O300  1  0.87007387  0.00524257  0.25465243  1
  O  O301  1  0.87103146  0.00466709  0.75469801  1
  O  O302  1  0.87137661  0.50328287  0.25885283  1
  O  O303  1  0.87144322  0.50337756  0.75741972  1
  O  O304  1  0.11789577  0.36975800  0.36823802  1
  O  O305  1  0.11816094  0.37028929  0.86967942  1
  O  O306  1  0.11935424  0.87058359  0.37034983  1
  O  O307  1  0.11809247  0.86621148  0.87324479  1
  O  O308  1  0.61989967  0.36928449  0.36983374  1
  O  O309  1  0.62030299  0.36891402  0.87017478  1
  O  O310  1  0.62116701  0.87045989  0.37080566  1
  O  O311  1  0.61797736  0.87489105  0.86786180  1
  O  O312  1  0.38380813  0.13153649  0.12476584  1
  O  O313  1  0.37531652  0.13532040  0.63188955  1
  O  O314  1  0.37954782  0.62883739  0.13223906  1
  O  O315  1  0.38223394  0.63331458  0.62811162  1
  O  O316  1  0.88003732  0.13057080  0.13030792  1
  O  O317  1  0.88041710  0.13050772  0.63042835  1
  O  O318  1  0.88352726  0.62722513  0.12680028  1
  O  O319  1  0.87662534  0.63748146  0.62439214  1
  O  O320  1  0.25583381  0.25028367  0.11544052  1
  O  O321  1  0.25885206  0.25530211  0.62823122  1
  O  O322  1  0.25645508  0.75020811  0.11671295  1
  O  O323  1  0.25422558  0.75207938  0.61733737  1
  O  O324  1  0.75608740  0.25585412  0.11918468  1
  O  O325  1  0.75615572  0.25452560  0.61812790  1
  O  O326  1  0.74883478  0.75432472  0.11646262  1
  O  O327  1  0.76230803  0.75396141  0.62314239  1
  O  O328  1  0.24255027  0.24282974  0.37440676  1
  O  O329  1  0.24437762  0.24951480  0.88385574  1
  O  O330  1  0.24439602  0.74989469  0.38599183  1
  O  O331  1  0.24496013  0.74409016  0.87988368  1
  O  O332  1  0.74526465  0.24465546  0.37955222  1
  O  O333  1  0.74409935  0.24887900  0.88210120  1
  O  O334  1  0.74415279  0.74073498  0.37762282  1
  O  O335  1  0.74880763  0.74188396  0.88323143  1
  O  O336  1  0.00194808  0.11793673  0.00718687  1
  O  O337  1  0.00247032  0.12215748  0.50917955  1
  O  O338  1  0.00583497  0.62005178  0.00423099  1
  O  O339  1  0.00173136  0.61522217  0.50152402  1
  O  O340  1  0.50643239  0.11894787  0.00569734  1
  O  O341  1  0.50777886  0.11937975  0.49976808  1
  O  O342  1  0.50680847  0.62359899  0.00601751  1
  O  O343  1  0.50338296  0.61854201  0.50457864  1
  O  O344  1  0.49966594  0.38439306  0.49524390  1
  O  O345  1  0.49390078  0.37462383  0.99198870  1
  O  O346  1  0.49532448  0.88113999  0.49432428  1
  O  O347  1  0.49618074  0.87999652  0.99548091  1
  O  O348  1  0.99264522  0.37924525  0.49319546  1
  O  O349  1  0.99454351  0.38095374  0.99432781  1
  O  O350  1  0.99018222  0.87808732  0.49393136  1
  O  O351  1  0.99775223  0.88002224  0.99367457  1
  O  O352  1  0.49839833  0.49434078  0.38462402  1
  O  O353  1  0.49307126  0.49301370  0.87588297  1
  O  O354  1  0.50078608  0.99345591  0.38237274  1
  O  O355  1  0.49513017  0.99435002  0.88113546  1
  O  O356  1  0.99461721  0.49344207  0.37960679  1
  O  O357  1  0.99491649  0.49556135  0.88018035  1
  O  O358  1  0.99390865  0.99388124  0.37492223  1
  O  O359  1  0.99609891  0.99382196  0.87912008  1
  O  O360  1  0.00738010  0.00400303  0.12007689  1
  O  O361  1  0.01010423  0.00624868  0.62833053  1
  O  O362  1  0.00544696  0.50541143  0.11871856  1
  O  O363  1  0.00473748  0.49828229  0.61833428  1
  O  O364  1  0.50698502  0.00445796  0.11940536  1
  O  O365  1  0.50719920  0.00294438  0.61729304  1
  O  O366  1  0.50659584  0.50587728  0.12192618  1
  O  O367  1  0.50067772  0.50618243  0.61678446  1
  O  O368  1  0.24296870  0.38068279  0.24789818  1
  O  O369  1  0.24283521  0.38066062  0.74587251  1
  O  O370  1  0.24130030  0.87669045  0.24738612  1
  O  O371  1  0.24995413  0.88733001  0.74878109  1
  O  O372  1  0.74304395  0.37540779  0.24259622  1
  O  O373  1  0.74404909  0.37463291  0.74286745  1
  O  O374  1  0.74460565  0.88021781  0.24605938  1
  O  O375  1  0.74326656  0.88236603  0.74880923  1
  O  O376  1  0.25112371  0.12361628  0.26100519  1
  O  O377  1  0.25680763  0.11397961  0.75366620  1
  O  O378  1  0.25905169  0.61844144  0.24989831  1
  O  O379  1  0.25069781  0.61795570  0.75726006  1
  O  O380  1  0.75545304  0.11978889  0.25436312  1
  O  O381  1  0.75756439  0.11897698  0.75152631  1
  O  O382  1  0.74942174  0.62337453  0.26325947  1
  O  O383  1  0.74991745  0.62630807  0.76180901  1
  O  O384  1  0.36362653  0.12570174  0.37324985  1
  O  O385  1  0.37446909  0.11685269  0.86903038  1
  O  O386  1  0.37364931  0.62379248  0.36240008  1
  O  O387  1  0.36777636  0.61768375  0.87419840  1
  O  O388  1  0.87024788  0.12041376  0.36881437  1
  O  O389  1  0.87519806  0.11805516  0.86755064  1
  O  O390  1  0.86461374  0.61976516  0.37624999  1
  O  O391  1  0.86404345  0.61981267  0.87523630  1
  O  O392  1  0.12471196  0.38197703  0.13189343  1
  O  O393  1  0.12964219  0.37917342  0.63197632  1
  O  O394  1  0.12546481  0.88422308  0.13049235  1
  O  O395  1  0.12688874  0.88761675  0.62995569  1
  O  O396  1  0.63027255  0.37922239  0.12924552  1
  O  O397  1  0.63160345  0.37396162  0.63125017  1
  O  O398  1  0.63006934  0.88051537  0.13116552  1
  O  O399  1  0.62673794  0.88296378  0.63077360  1
  O  O400  1  0.11783009  0.25608008  0.25368156  1
  O  O401  1  0.11910846  0.25578049  0.75552679  1
  O  O402  1  0.12033294  0.75585703  0.25568922  1
  O  O403  1  0.11575017  0.74957572  0.75526309  1
  O  O404  1  0.62038056  0.25558425  0.25515487  1
  O  O405  1  0.62005482  0.25449198  0.75535461  1
  O  O406  1  0.62269758  0.75704282  0.25737397  1
  O  O407  1  0.61799959  0.75892002  0.75077407  1
  O  O408  1  0.38331476  0.24830463  0.24211091  1
  O  O409  1  0.37965874  0.24539174  0.74393038  1
  O  O410  1  0.37454516  0.73970273  0.24386929  1
  O  O411  1  0.38202293  0.75009483  0.74377875  1
  O  O412  1  0.87967412  0.24493047  0.24356848  1
  O  O413  1  0.88045917  0.24530732  0.74427911  1
  O  O414  1  0.88421754  0.74705421  0.24854919  1
  O  O415  1  0.88279608  0.75116168  0.74125334  1
  O  O416  1  0.38657105  0.50008493  0.49961940  1
  O  O417  1  0.37513454  0.49206480  0.99329909  1
  O  O418  1  0.38159034  0.99432551  0.49890439  1
  O  O419  1  0.38123421  0.99447383  0.99560678  1
  O  O420  1  0.88014493  0.49287057  0.49397970  1
  O  O421  1  0.88085338  0.49433383  0.99408054  1
  O  O422  1  0.87684739  0.99182171  0.49421259  1
  O  O423  1  0.88166660  0.99861798  0.99319403  1
  O  O424  1  0.11923636  -0.00060308  0.00890247  1
  O  O425  1  0.12407358  0.00209561  0.51387127  1
  O  O426  1  0.11943653  0.50447055  0.00419367  1
  O  O427  1  0.11789017  0.49793658  0.50621508  1
  O  O428  1  0.62038912  0.00475386  0.00558595  1
  O  O429  1  0.62131567  0.00551317  0.50435915  1
  O  O430  1  0.62356392  0.50606763  0.00709650  1
  O  O431  1  0.61233872  0.50667543  0.50150842  1
  O  O432  1  0.37487986  0.36690841  0.11774650  1
  O  O433  1  0.36870297  0.36503588  0.62741266  1
  O  O434  1  0.37574817  0.86779584  0.11842971  1
  O  O435  1  0.37381956  0.86848352  0.61686434  1
  O  O436  1  0.87079596  0.37024871  0.11905708  1
  O  O437  1  0.86929762  0.36802430  0.61844925  1
  O  O438  1  0.86569393  0.87210626  0.12227961  1
  O  O439  1  0.87652995  0.86804025  0.61659748  1
  O  O440  1  0.13131531  0.13171521  0.37444232  1
  O  O441  1  0.12648908  0.13384849  0.87806676  1
  O  O442  1  0.12828026  0.63466037  0.37915593  1
  O  O443  1  0.13018890  0.62920775  0.88104139  1
  O  O444  1  0.63219609  0.13078824  0.37943157  1
  O  O445  1  0.62601336  0.13198793  0.88217548  1
  O  O446  1  0.63063977  0.62977267  0.37971169  1
  O  O447  1  0.63463366  0.62567977  0.88133100  1
