# generated using pymatgen
data_V3Zn3O8
_symmetry_space_group_name_H-M   'P 1'
_cell_length_a   17.08609808
_cell_length_b   17.08612446
_cell_length_c   17.08526137
_cell_angle_alpha   89.99346959
_cell_angle_beta   89.99840866
_cell_angle_gamma   89.99420788
_symmetry_Int_Tables_number   1
_chemical_formula_structural   V3Zn3O8
_chemical_formula_sum   'V96 Zn96 O256'
_cell_volume   4987.78910646
_cell_formula_units_Z   32
loop_
 _symmetry_equiv_pos_site_id
 _symmetry_equiv_pos_as_xyz
  1  'x, y, z'
loop_
 _atom_site_type_symbol
 _atom_site_label
 _atom_site_symmetry_multiplicity
 _atom_site_fract_x
 _atom_site_fract_y
 _atom_site_fract_z
 _atom_site_occupancy
  V  V0  1  -0.00017738  -0.00022202  0.50020155  1
  V  V1  1  0.37525792  0.62395647  0.25098589  1
  V  V2  1  0.37526938  0.37341259  0.50056647  1
  V  V3  1  0.62530662  0.12319860  0.49967784  1
  V  V4  1  0.24951583  0.75109530  -0.00062476  1
  V  V5  1  0.25104327  0.12594641  0.87361753  1
  V  V6  1  0.37461611  0.12547637  0.25007907  1
  V  V7  1  0.37340455  0.74863542  0.62416864  1
  V  V8  1  0.49906416  0.12353051  0.62480483  1
  V  V9  1  0.24975387  0.37568464  0.12526057  1
  V  V10  1  0.87532807  0.37264480  0.50099015  1
  V  V11  1  0.49965748  0.24961777  0.25077444  1
  V  V12  1  0.50193545  0.49846131  0.50039415  1
  V  V13  1  0.50110291  0.37323429  0.37601562  1
  V  V14  1  0.50012529  0.62482674  0.12472004  1
  V  V15  1  0.37505933  0.75041715  0.12468596  1
  V  V16  1  0.50031354  0.74921634  0.24978110  1
  V  V17  1  -0.00178240  0.24935088  0.74745726  1
  V  V18  1  0.24991469  0.87595367  0.12430414  1
  V  V19  1  -0.00042015  0.87516843  0.87335698  1
  V  V20  1  0.50011365  0.49969664  0.00022271  1
  V  V21  1  0.12449148  0.62577886  0.00058795  1
  V  V22  1  0.62573931  0.62353089  0.50041274  1
  V  V23  1  0.50103603  0.37555926  0.87532106  1
  V  V24  1  0.12504106  0.12393068  0.49977074  1
  V  V25  1  0.75044885  0.87631327  0.12517689  1
  V  V26  1  0.75035893  0.74977426  0.50018564  1
  V  V27  1  0.37544128  -0.00218282  0.37507098  1
  V  V28  1  0.24946570  0.00027916  0.24989039  1
  V  V29  1  -0.00091090  0.62542421  0.62507727  1
  V  V30  1  0.75138107  0.62468868  0.37414630  1
  V  V31  1  0.75008742  0.50026023  0.24916634  1
  V  V32  1  0.74936608  0.62518638  0.87523258  1
  V  V33  1  0.37552802  0.24973681  0.12633377  1
  V  V34  1  0.74927516  0.75064045  -0.00092080  1
  V  V35  1  0.62470170  0.74935163  0.37488431  1
  V  V36  1  0.49906500  0.87550821  0.87503677  1
  V  V37  1  0.62588797  0.49976523  0.12649207  1
  V  V38  1  0.87498433  0.12585652  0.25019239  1
  V  V39  1  0.12504250  0.87546368  0.24951261  1
  V  V40  1  0.62570730  0.49982402  0.62439531  1
  V  V41  1  0.37671759  0.37565479  0.00010220  1
  V  V42  1  0.24954160  0.62563668  0.87501508  1
  V  V43  1  0.24927634  0.12470054  0.37566927  1
  V  V44  1  0.37433937  0.62491160  0.75144677  1
  V  V45  1  0.12444840  0.12613589  -0.00043007  1
  V  V46  1  0.00082898  0.62579969  0.12441218  1
  V  V47  1  0.62553706  0.37508369  0.75006880  1
  V  V48  1  0.87420141  0.00073447  0.87323396  1
  V  V49  1  -0.00064594  0.25082280  0.24978861  1
  V  V50  1  0.49903036  0.87442539  0.37504816  1
  V  V51  1  0.24917769  0.00124282  0.74940155  1
  V  V52  1  0.00014528  0.00189168  -0.00139979  1
  V  V53  1  0.87568268  0.25023827  0.12530654  1
  V  V54  1  0.12439056  0.00163921  0.12398331  1
  V  V55  1  0.74995722  -0.00053857  0.24968126  1
  V  V56  1  0.62502903  0.62577202  -0.00027846  1
  V  V57  1  0.62412428  -0.00129063  0.62541847  1
  V  V58  1  0.12487140  0.24911943  0.37473984  1
  V  V59  1  0.74966726  0.00062829  0.75037856  1
  V  V60  1  0.62499687  0.12485516  0.00050019  1
  V  V61  1  0.75173373  0.37415707  0.62470459  1
  V  V62  1  0.74909073  0.12522237  0.37569375  1
  V  V63  1  -0.00004378  0.37698951  0.87584090  1
  V  V64  1  0.75050778  0.50068251  0.75077050  1
  V  V65  1  0.87480727  0.37512933  0.00050188  1
  V  V66  1  0.00089506  0.37490145  0.37449637  1
  V  V67  1  0.87379029  0.87384717  0.50080799  1
  V  V68  1  0.62598272  0.87494550  0.24940727  1
  V  V69  1  0.12618165  0.25184498  0.87510138  1
  V  V70  1  0.74992852  0.25004098  -0.00041808  1
  V  V71  1  0.49911337  0.75005867  0.75113128  1
  V  V72  1  0.87515052  0.00030528  0.37584166  1
  V  V73  1  0.87447633  0.50061857  0.87583482  1
  V  V74  1  0.00125365  0.75152780  0.24925957  1
  V  V75  1  0.12510217  0.50108962  0.12489171  1
  V  V76  1  0.12346332  0.75127903  0.87482270  1
  V  V77  1  0.12495962  -0.00010591  0.62381728  1
  V  V78  1  0.25085594  0.37416880  0.62574777  1
  V  V79  1  0.24889942  0.87317957  0.62365921  1
  V  V80  1  0.62268990  0.87493186  0.75040651  1
  V  V81  1  -0.00203567  0.74948476  0.74973088  1
  V  V82  1  0.12787506  0.74762484  0.37542991  1
  V  V83  1  0.87460062  0.87639603  -0.00055883  1
  V  V84  1  0.25053685  0.50009318  0.75214118  1
  V  V85  1  0.37461224  0.87654990  -0.00010288  1
  V  V86  1  0.49996465  0.00126966  0.00096076  1
  V  V87  1  0.50093865  0.24973956  0.74972055  1
  V  V88  1  0.87499352  0.62609070  0.24958999  1
  V  V89  1  0.37354644  0.00156160  0.87472288  1
  V  V90  1  0.25061676  0.25127040  -0.00009434  1
  V  V91  1  0.25106049  0.50067960  0.25186003  1
  V  V92  1  0.00207203  0.50080537  0.49977489  1
  V  V93  1  0.12623461  0.37641597  0.75085706  1
  V  V94  1  0.87566253  0.75148400  0.12494631  1
  V  V95  1  0.62537838  0.24848837  0.37500355  1
  Zn  Zn96  1  0.50014436  0.62392241  0.62593734  1
  Zn  Zn97  1  0.37502807  0.12521385  0.74910937  1
  Zn  Zn98  1  -0.00038015  0.12612335  0.12448780  1
  Zn  Zn99  1  0.62387171  -0.00002566  0.12527196  1
  Zn  Zn100  1  0.12656724  0.62478020  0.49968592  1
  Zn  Zn101  1  0.12607776  0.50188576  0.62547233  1
  Zn  Zn102  1  0.87508959  0.12476192  0.74822364  1
  Zn  Zn103  1  0.37615599  0.50014913  0.37566120  1
  Zn  Zn104  1  0.87291996  0.62612133  0.74995570  1
  Zn  Zn105  1  0.75155322  0.12640586  0.87381120  1
  Zn  Zn106  1  0.62644114  0.37375245  0.25009794  1
  Zn  Zn107  1  0.37507460  0.87190799  0.49752327  1
  Zn  Zn108  1  0.74740726  0.87222554  0.62548738  1
  Zn  Zn109  1  0.37584037  0.50077600  0.87591572  1
  Zn  Zn110  1  0.62431190  0.75007063  0.87450620  1
  Zn  Zn111  1  -0.00202321  0.12427824  0.62501055  1
  Zn  Zn112  1  0.00163865  0.87484366  0.37473837  1
  Zn  Zn113  1  0.12418995  0.37522846  0.24967011  1
  Zn  Zn114  1  0.87359950  0.24657349  0.62604454  1
  Zn  Zn115  1  0.24975431  0.24876914  0.50048816  1
  Zn  Zn116  1  -0.00095923  0.50026436  0.00097623  1
  Zn  Zn117  1  0.49835951  -0.00406287  0.50043188  1
  Zn  Zn118  1  0.75068542  0.24840365  0.50167599  1
  Zn  Zn119  1  0.12252711  0.87556154  0.74849987  1
  Zn  Zn120  1  0.37381016  0.24677331  0.62486535  1
  Zn  Zn121  1  0.87232917  0.74919477  0.62597101  1
  Zn  Zn122  1  0.74884917  0.37519370  0.12713446  1
  Zn  Zn123  1  0.25291662  0.62322213  0.38047658  1
  Zn  Zn124  1  0.87637071  0.50021255  0.37258882  1
  Zn  Zn125  1  0.24925861  0.74399147  0.50047414  1
  Zn  Zn126  1  0.49983758  0.12410305  0.12588781  1
  Zn  Zn127  1  0.62658041  0.25029152  0.87564915  1
  Zn  Zn128  1  0.18623348  0.18810433  0.18813322  1
  Zn  Zn129  1  0.18531684  0.18742121  0.68683697  1
  Zn  Zn130  1  0.18860148  0.68678307  0.18828342  1
  Zn  Zn131  1  0.18437652  0.68639473  0.68912835  1
  Zn  Zn132  1  0.68739233  0.18706406  0.18695300  1
  Zn  Zn133  1  0.68745119  0.18714013  0.68538703  1
  Zn  Zn134  1  0.68841211  0.68749762  0.18642532  1
  Zn  Zn135  1  0.68648665  0.68767318  0.68709464  1
  Zn  Zn136  1  0.31236363  0.31256471  0.31392606  1
  Zn  Zn137  1  0.31646387  0.31264731  0.81265411  1
  Zn  Zn138  1  0.31181958  0.81142037  0.31125580  1
  Zn  Zn139  1  0.31129228  0.81388020  0.81074231  1
  Zn  Zn140  1  0.81224446  0.31346831  0.31355643  1
  Zn  Zn141  1  0.81326489  0.31398561  0.81438757  1
  Zn  Zn142  1  0.81272277  0.81278598  0.31376453  1
  Zn  Zn143  1  0.81216391  0.81252735  0.81203742  1
  Zn  Zn144  1  0.18674111  0.43597709  0.43688539  1
  Zn  Zn145  1  0.18804531  0.43936241  0.93833717  1
  Zn  Zn146  1  0.18823059  0.93512038  0.43827631  1
  Zn  Zn147  1  0.18566121  0.93812975  0.93610337  1
  Zn  Zn148  1  0.68889218  0.43663731  0.43560256  1
  Zn  Zn149  1  0.68694891  0.43718042  0.93794396  1
  Zn  Zn150  1  0.68640803  0.93797524  0.43764818  1
  Zn  Zn151  1  0.68597405  0.93795997  0.93599148  1
  Zn  Zn152  1  0.31179475  0.06444457  0.06220466  1
  Zn  Zn153  1  0.31359253  0.05952085  0.56012428  1
  Zn  Zn154  1  0.31294578  0.56267661  0.06315641  1
  Zn  Zn155  1  0.31213688  0.56096631  0.56292505  1
  Zn  Zn156  1  0.81282768  0.06355593  0.06351998  1
  Zn  Zn157  1  0.81289797  0.06313301  0.56529425  1
  Zn  Zn158  1  0.81217531  0.56309368  0.06277106  1
  Zn  Zn159  1  0.81456009  0.56101125  0.56181633  1
  Zn  Zn160  1  0.43842253  0.43616007  0.18816221  1
  Zn  Zn161  1  0.43718987  0.43854928  0.68711274  1
  Zn  Zn162  1  0.43847636  0.93842975  0.18734854  1
  Zn  Zn163  1  0.43475887  0.93680802  0.68875811  1
  Zn  Zn164  1  0.93658923  0.43770260  0.18642989  1
  Zn  Zn165  1  0.93702573  0.43836082  0.68745238  1
  Zn  Zn166  1  0.93889932  0.93880017  0.18713698  1
  Zn  Zn167  1  0.93653920  0.93665163  0.68555637  1
  Zn  Zn168  1  0.06072603  0.06324573  0.31332505  1
  Zn  Zn169  1  0.06385948  0.06351491  0.81136668  1
  Zn  Zn170  1  0.06296546  0.56343438  0.31169799  1
  Zn  Zn171  1  0.06225419  0.56266257  0.81220779  1
  Zn  Zn172  1  0.56138441  0.06153862  0.31230839  1
  Zn  Zn173  1  0.56391653  0.06288101  0.81499600  1
  Zn  Zn174  1  0.56320844  0.56093851  0.31364761  1
  Zn  Zn175  1  0.56238599  0.56283970  0.81258199  1
  Zn  Zn176  1  0.43718173  0.18690167  0.43810135  1
  Zn  Zn177  1  0.43848215  0.18814147  0.93715798  1
  Zn  Zn178  1  0.43806491  0.68463077  0.43792360  1
  Zn  Zn179  1  0.43692107  0.68819347  0.93708647  1
  Zn  Zn180  1  0.93913564  0.18719568  0.43735232  1
  Zn  Zn181  1  0.93672838  0.18695237  0.93413388  1
  Zn  Zn182  1  0.93912263  0.68860536  0.43577485  1
  Zn  Zn183  1  0.93632445  0.68730313  0.93731126  1
  Zn  Zn184  1  0.06205656  0.31418565  0.06367349  1
  Zn  Zn185  1  0.06491765  0.31238607  0.56268394  1
  Zn  Zn186  1  0.06229489  0.81442448  0.06177486  1
  Zn  Zn187  1  0.06124774  0.81192815  0.56108338  1
  Zn  Zn188  1  0.56300956  0.31288553  0.06558553  1
  Zn  Zn189  1  0.56517862  0.31060913  0.56242393  1
  Zn  Zn190  1  0.56334425  0.81351213  0.06215614  1
  Zn  Zn191  1  0.56069346  0.81158853  0.56260151  1
  O  O192  1  0.12456596  0.11930450  0.11735751  1
  O  O193  1  0.12446687  0.11742262  0.61726412  1
  O  O194  1  0.12025844  0.62186319  0.11965331  1
  O  O195  1  0.11186339  0.62307177  0.62315459  1
  O  O196  1  0.62348494  0.12265062  0.11265566  1
  O  O197  1  0.61691624  0.11877529  0.62011436  1
  O  O198  1  0.61892056  0.62076896  0.11935352  1
  O  O199  1  0.62409142  0.61736945  0.61780110  1
  O  O200  1  0.38077012  0.37505592  0.38597329  1
  O  O201  1  0.38295647  0.37674646  0.88279679  1
  O  O202  1  0.38087454  0.87911180  0.37318457  1
  O  O203  1  0.37835554  0.88128104  0.88095059  1
  O  O204  1  0.88184486  0.37690214  0.38514916  1
  O  O205  1  0.88040650  0.38144545  0.88140361  1
  O  O206  1  0.87518569  0.88103538  0.38508792  1
  O  O207  1  0.88009528  0.88080201  0.88106573  1
  O  O208  1  0.25427480  0.00400170  0.36831028  1
  O  O209  1  0.25361983  0.00593299  0.86987978  1
  O  O210  1  0.25158757  0.49951682  0.36281833  1
  O  O211  1  0.25217131  0.50762800  0.87005455  1
  O  O212  1  0.75510717  0.00557222  0.36892519  1
  O  O213  1  0.75502108  -0.00045356  0.86529858  1
  O  O214  1  0.75204783  0.50773960  0.36763599  1
  O  O215  1  0.75440115  0.50496182  0.87022608  1
  O  O216  1  0.24576526  0.49584214  0.13265465  1
  O  O217  1  0.24895790  0.48920208  0.63257808  1
  O  O218  1  0.24461668  0.99503731  0.12960043  1
  O  O219  1  0.24585666  0.99148693  0.62887656  1
  O  O220  1  0.74361269  0.50105347  0.13200187  1
  O  O221  1  0.74548114  0.49426242  0.63052888  1
  O  O222  1  0.75043261  0.99296787  0.13202476  1
  O  O223  1  0.74231798  0.99770337  0.63492854  1
  O  O224  1  0.00022428  0.36936117  0.25676768  1
  O  O225  1  0.00618178  0.36963982  0.75576652  1
  O  O226  1  0.00729715  0.86942231  0.25039319  1
  O  O227  1  0.00033540  0.86785297  0.75573518  1
  O  O228  1  0.50026094  0.36755949  0.25824811  1
  O  O229  1  0.50553106  0.36802086  0.75339353  1
  O  O230  1  0.50568561  0.86794599  0.25417420  1
  O  O231  1  0.50298359  0.87061614  0.75619849  1
  O  O232  1  0.49218066  0.13130225  0.24920247  1
  O  O233  1  0.50186499  0.13274900  0.74214336  1
  O  O234  1  0.49579250  0.62988089  0.24428154  1
  O  O235  1  0.49294537  0.63124421  0.74927760  1
  O  O236  1  0.99239957  0.13222562  0.24933662  1
  O  O237  1  1.00115382  0.13820421  0.74950893  1
  O  O238  1  0.99489710  0.63171809  0.24337280  1
  O  O239  1  0.99782044  0.63031188  0.74175963  1
  O  O240  1  0.36982354  0.25569457  0.00555635  1
  O  O241  1  0.37359252  0.26157347  0.50281151  1
  O  O242  1  0.36917728  0.75674525  0.00545314  1
  O  O243  1  0.37295100  0.74846539  0.51309176  1
  O  O244  1  0.86769696  0.25371608  0.00392142  1
  O  O245  1  0.87657848  0.26261562  0.50172279  1
  O  O246  1  0.86965192  0.75687125  0.00558209  1
  O  O247  1  0.86983250  0.75909361  0.49831669  1
  O  O248  1  0.12628502  0.24289203  0.49289016  1
  O  O249  1  0.13120669  0.24672127  0.99448293  1
  O  O250  1  0.12501561  0.74902770  0.48723264  1
  O  O251  1  0.13049830  0.74586601  0.99522546  1
  O  O252  1  0.62667750  0.24152648  0.49287559  1
  O  O253  1  0.63311976  0.24326295  1.00070057  1
  O  O254  1  0.62977449  0.74406158  0.49401547  1
  O  O255  1  0.63129061  0.74393284  0.99904764  1
  O  O256  1  0.49222589  0.24873443  0.13218936  1
  O  O257  1  0.50152792  0.24069440  0.63360553  1
  O  O258  1  0.49454631  0.74499285  0.12991084  1
  O  O259  1  0.48853822  0.74887837  0.63206966  1
  O  O260  1  0.99360652  0.24903668  0.13134256  1
  O  O261  1  1.00145244  0.25135038  0.63804181  1
  O  O262  1  0.99527614  0.74619624  0.12949085  1
  O  O263  1  0.99820163  0.74136319  0.63018465  1
  O  O264  1  0.00531347  0.25525690  0.36927318  1
  O  O265  1  0.00631827  0.25691539  0.86757126  1
  O  O266  1  0.01003154  0.75193908  0.36690629  1
  O  O267  1  0.00379890  0.75505216  0.86999592  1
  O  O268  1  0.50533831  0.25362189  0.37041264  1
  O  O269  1  0.50226101  0.25554943  0.86528687  1
  O  O270  1  0.50558498  0.75333235  0.36828712  1
  O  O271  1  0.49942152  0.75787706  0.86900447  1
  O  O272  1  0.24382865  0.12522285  0.49315844  1
  O  O273  1  0.24458903  0.13203105  0.99364206  1
  O  O274  1  0.24415305  0.62489334  0.49820529  1
  O  O275  1  0.24512595  0.63216338  0.99567662  1
  O  O276  1  0.74351403  0.12480855  0.49362512  1
  O  O277  1  0.74309255  0.13321011  0.99932250  1
  O  O278  1  0.74616614  0.62922720  0.49393376  1
  O  O279  1  0.74426980  0.63120075  0.99566097  1
  O  O280  1  0.25594984  0.37025985  0.00536900  1
  O  O281  1  0.25816217  0.37568979  0.50862099  1
  O  O282  1  0.25493570  0.87073429  0.00465603  1
  O  O283  1  0.25235474  0.87086365  0.51353953  1
  O  O284  1  0.75505297  0.36493595  0.00121302  1
  O  O285  1  0.76094081  0.37552916  0.50481383  1
  O  O286  1  0.75556820  0.87106329  0.00445066  1
  O  O287  1  0.75770523  0.86910747  0.49962196  1
  O  O288  1  0.13503175  0.49970360  0.24356644  1
  O  O289  1  0.13234331  0.49340093  0.75007860  1
  O  O290  1  0.13002795  0.99581338  0.24464194  1
  O  O291  1  0.13130065  0.99785795  0.74276868  1
  O  O292  1  0.63260574  0.50100296  0.24376613  1
  O  O293  1  0.63046147  0.49432982  0.74448241  1
  O  O294  1  0.63207583  0.99315420  0.24872606  1
  O  O295  1  0.63129909  0.99493911  0.74673674  1
  O  O296  1  0.36825006  0.00495230  0.25441255  1
  O  O297  1  0.36752293  0.00196828  0.75748796  1
  O  O298  1  0.36673753  0.50495594  0.24934610  1
  O  O299  1  0.36893183  0.50678620  0.75225690  1
  O  O300  1  0.87018122  0.00489409  0.25576585  1
  O  O301  1  0.86474979  -0.00247858  0.75463449  1
  O  O302  1  0.86863966  0.50872728  0.24963547  1
  O  O303  1  0.86774395  0.50095397  0.75754151  1
  O  O304  1  0.11829794  0.36763255  0.37313824  1
  O  O305  1  0.12097638  0.37040372  0.87069902  1
  O  O306  1  0.12566273  0.86592007  0.36743928  1
  O  O307  1  0.11731040  0.86888660  0.87423354  1
  O  O308  1  0.61864651  0.36670044  0.37470590  1
  O  O309  1  0.61866815  0.37374796  0.86789313  1
  O  O310  1  0.62017899  0.86857081  0.36858229  1
  O  O311  1  0.61605286  0.87390965  0.86885377  1
  O  O312  1  0.37389252  0.13238549  0.13211289  1
  O  O313  1  0.38608929  0.12537531  0.62625258  1
  O  O314  1  0.38116383  0.63168458  0.12922644  1
  O  O315  1  0.37440072  0.63391149  0.63275277  1
  O  O316  1  0.87663172  0.13190285  0.13244966  1
  O  O317  1  0.87998358  0.12891536  0.62994062  1
  O  O318  1  0.88051978  0.63286678  0.12938773  1
  O  O319  1  0.88722316  0.62548569  0.62585441  1
  O  O320  1  0.25491213  0.25583593  0.11985199  1
  O  O321  1  0.25215199  0.26206171  0.62433576  1
  O  O322  1  0.25537748  0.75610946  0.11944528  1
  O  O323  1  0.25663202  0.75697230  0.62804560  1
  O  O324  1  0.75615676  0.25064258  0.11493619  1
  O  O325  1  0.75225442  0.25868320  0.62239886  1
  O  O326  1  0.75662925  0.75625783  0.11961442  1
  O  O327  1  0.75193060  0.75200168  0.61624193  1
  O  O328  1  0.24319892  0.24290769  0.37585468  1
  O  O329  1  0.24598940  0.24676017  0.88018079  1
  O  O330  1  0.24039536  0.74776539  0.37505162  1
  O  O331  1  0.24393942  0.74658726  0.88010981  1
  O  O332  1  0.74395327  0.24210113  0.37673986  1
  O  O333  1  0.74894629  0.24867090  0.88701531  1
  O  O334  1  0.74360007  0.74419484  0.37954204  1
  O  O335  1  0.74813502  0.74415647  0.88199068  1
  O  O336  1  0.00710219  0.11963940  -0.00060131  1
  O  O337  1  0.00716359  0.11758972  0.50046915  1
  O  O338  1  0.00676392  0.62529400  0.00672800  1
  O  O339  1  -0.00042502  0.61634380  0.50631510  1
  O  O340  1  0.50846065  0.12067030  0.00106583  1
  O  O341  1  0.50541722  0.12334386  0.51059742  1
  O  O342  1  0.50429313  0.62059531  0.00553360  1
  O  O343  1  0.50799289  0.61702123  0.50162162  1
  O  O344  1  0.49322090  0.37778530  0.49706468  1
  O  O345  1  0.49617756  0.37995234  0.99567751  1
  O  O346  1  0.49712408  0.87463602  0.49038093  1
  O  O347  1  0.49362869  0.88047863  0.99538484  1
  O  O348  1  0.99431073  0.38233681  0.49663517  1
  O  O349  1  0.99330915  0.37604485  0.99321231  1
  O  O350  1  0.98985451  0.88037008  0.49744896  1
  O  O351  1  0.99414841  0.88114790  0.99367901  1
  O  O352  1  0.49975837  0.49153534  0.38250355  1
  O  O353  1  0.49900567  0.49368277  0.88238532  1
  O  O354  1  0.49302604  0.99197341  0.37400054  1
  O  O355  1  0.49325145  0.99522015  0.88079981  1
  O  O356  1  0.99920813  0.49525284  0.38338127  1
  O  O357  1  0.99343770  0.49438548  0.87690157  1
  O  O358  1  0.99289365  0.99743751  0.38146744  1
  O  O359  1  0.99535041  0.99474527  0.87890228  1
  O  O360  1  0.00673372  0.00192460  0.11689016  1
  O  O361  1  0.00759661  -0.00042949  0.61820916  1
  O  O362  1  0.00685895  0.50791305  0.12454767  1
  O  O363  1  0.00141970  0.50714348  0.61714713  1
  O  O364  1  0.50197808  0.00256552  0.11683378  1
  O  O365  1  0.50442169  0.00912693  0.62699485  1
  O  O366  1  0.50507245  0.50611276  0.12028140  1
  O  O367  1  0.50794791  0.50029871  0.61864682  1
  O  O368  1  0.25016934  0.38477360  0.24383829  1
  O  O369  1  0.24725734  0.37902637  0.74431522  1
  O  O370  1  0.24497471  0.88077442  0.24258505  1
  O  O371  1  0.24748357  0.88122921  0.73929143  1
  O  O372  1  0.74849338  0.38457964  0.24889001  1
  O  O373  1  0.74488910  0.38062391  0.74572664  1
  O  O374  1  0.74560924  0.87943690  0.24540241  1
  O  O375  1  0.74250732  0.88432127  0.74926146  1
  O  O376  1  0.25448106  0.11917900  0.25560098  1
  O  O377  1  0.25140933  0.12025670  0.75599630  1
  O  O378  1  0.25694688  0.61474040  0.24833525  1
  O  O379  1  0.25361752  0.61996749  0.75595567  1
  O  O380  1  0.75541016  0.11942192  0.25561184  1
  O  O381  1  0.74832478  0.11240869  0.75202391  1
  O  O382  1  0.75569948  0.62097282  0.25442911  1
  O  O383  1  0.74966048  0.61828909  0.75663905  1
  O  O384  1  0.36908727  0.11923994  0.36953747  1
  O  O385  1  0.36849042  0.11933639  0.87458987  1
  O  O386  1  0.37384508  0.62110461  0.36640941  1
  O  O387  1  0.36674975  0.62549762  0.86938252  1
  O  O388  1  0.86901563  0.11991522  0.37031304  1
  O  O389  1  0.87212697  0.11579277  0.87012532  1
  O  O390  1  0.86940134  0.62510188  0.36712094  1
  O  O391  1  0.86705621  0.61842354  0.87530534  1
  O  O392  1  0.13223611  0.38206347  0.12618831  1
  O  O393  1  0.13585214  0.37696957  0.63107265  1
  O  O394  1  0.13101986  0.88139615  0.12890459  1
  O  O395  1  0.13375656  0.87964516  0.62502862  1
  O  O396  1  0.62739666  0.38432065  0.12872409  1
  O  O397  1  0.63146703  0.38052946  0.62988443  1
  O  O398  1  0.63266284  0.87540566  0.13165684  1
  O  O399  1  0.62325099  0.88135666  0.63233173  1
  O  O400  1  0.11792671  0.25135089  0.25641034  1
  O  O401  1  0.11859094  0.25678822  0.75638756  1
  O  O402  1  0.12137242  0.75566046  0.25484802  1
  O  O403  1  0.11612576  0.75182916  0.75768977  1
  O  O404  1  0.61820302  0.24914554  0.25672852  1
  O  O405  1  0.61600470  0.25556246  0.75094577  1
  O  O406  1  0.61987919  0.75414916  0.25492775  1
  O  O407  1  0.61697072  0.75651188  0.75117968  1
  O  O408  1  0.37918510  0.24475738  0.24604581  1
  O  O409  1  0.38904560  0.24861172  0.74739961  1
  O  O410  1  0.38052751  0.74451428  0.24320368  1
  O  O411  1  0.37825303  0.74548975  0.74270499  1
  O  O412  1  0.87931038  0.24508405  0.24550524  1
  O  O413  1  0.88744798  0.25144006  0.75054566  1
  O  O414  1  0.88062747  0.74657180  0.24420604  1
  O  O415  1  0.88263264  0.74739648  0.74742801  1
  O  O416  1  0.38193700  0.48826505  0.50068481  1
  O  O417  1  0.38221357  0.49381613  1.00053050  1
  O  O418  1  0.37777240  0.99478554  0.49033387  1
  O  O419  1  0.37865402  0.99541327  0.99474226  1
  O  O420  1  0.88564239  0.49057545  0.49818199  1
  O  O421  1  0.87524134  0.49347338  0.99440668  1
  O  O422  1  0.87854014  0.99256056  0.49506003  1
  O  O423  1  0.87977243  0.99526617  0.99424332  1
  O  O424  1  0.11997985  0.00621233  0.00411977  1
  O  O425  1  0.11988240  0.00387078  0.50373611  1
  O  O426  1  0.12466002  0.50829820  0.00710920  1
  O  O427  1  0.11188480  0.49934694  0.50176892  1
  O  O428  1  0.61965349  0.00838977  0.00098849  1
  O  O429  1  0.62186900  0.00535059  0.50666753  1
  O  O430  1  0.61973544  0.50618319  0.00630606  1
  O  O431  1  0.62180424  0.50392742  0.50507972  1
  O  O432  1  0.36997661  0.36899351  0.11936258  1
  O  O433  1  0.36768608  0.37366524  0.61767156  1
  O  O434  1  0.36935593  0.87005637  0.11983974  1
  O  O435  1  0.36608253  0.86502694  0.62592674  1
  O  O436  1  0.87280688  0.36799097  0.11823752  1
  O  O437  1  0.87036677  0.37507884  0.61566699  1
  O  O438  1  0.87057505  0.87056026  0.11912629  1
  O  O439  1  0.87182472  0.87361497  0.61074697  1
  O  O440  1  0.13042910  0.12907825  0.37997091  1
  O  O441  1  0.13170832  0.13192356  0.88030413  1
  O  O442  1  0.12754456  0.63677477  0.37366808  1
  O  O443  1  0.12992286  0.63156035  0.88081273  1
  O  O444  1  0.62961075  0.12829478  0.38006324  1
  O  O445  1  0.62759934  0.12784996  0.88852128  1
  O  O446  1  0.63095358  0.63052200  0.38068878  1
  O  O447  1  0.63132448  0.62608915  0.88248854  1
