# generated using pymatgen
data_V3Zn3O8
_symmetry_space_group_name_H-M   'P 1'
_cell_length_a   17.08570779
_cell_length_b   17.08531189
_cell_length_c   17.08510083
_cell_angle_alpha   89.99769359
_cell_angle_beta   90.00094207
_cell_angle_gamma   89.98663453
_symmetry_Int_Tables_number   1
_chemical_formula_structural   V3Zn3O8
_chemical_formula_sum   'V96 Zn96 O256'
_cell_volume   4987.39102946
_cell_formula_units_Z   32
loop_
 _symmetry_equiv_pos_site_id
 _symmetry_equiv_pos_as_xyz
  1  'x, y, z'
loop_
 _atom_site_type_symbol
 _atom_site_label
 _atom_site_symmetry_multiplicity
 _atom_site_fract_x
 _atom_site_fract_y
 _atom_site_fract_z
 _atom_site_occupancy
  V  V0  1  0.75085655  0.87668821  0.12569482  1
  V  V1  1  0.62428901  0.62567735  0.00009980  1
  V  V2  1  0.24889477  0.24937589  0.49984957  1
  V  V3  1  0.62482222  0.37466260  0.74995098  1
  V  V4  1  -0.00038795  0.12553765  0.62540080  1
  V  V5  1  0.62656643  0.87651387  0.25024020  1
  V  V6  1  0.62490844  0.00070099  0.62546634  1
  V  V7  1  0.49888866  0.24835226  0.25010386  1
  V  V8  1  0.50051921  0.00034093  0.50095389  1
  V  V9  1  -0.00015332  0.25052048  0.24904278  1
  V  V10  1  0.87448702  0.37631566  0.49932286  1
  V  V11  1  0.00081152  0.87566887  0.87604667  1
  V  V12  1  0.12463700  0.87496342  0.75146589  1
  V  V13  1  0.00009010  0.74872326  0.24890703  1
  V  V14  1  0.74948916  0.24985001  0.50009768  1
  V  V15  1  0.25056089  -0.00031490  0.75075768  1
  V  V16  1  0.49975863  0.62429097  0.62357120  1
  V  V17  1  0.00040615  0.50058629  -0.00129172  1
  V  V18  1  0.75070528  0.12583907  0.37462142  1
  V  V19  1  0.87566532  0.24985156  0.62573283  1
  V  V20  1  0.62443932  0.62427468  0.49964171  1
  V  V21  1  0.50083243  0.75070475  0.75044647  1
  V  V22  1  0.49952393  0.49920145  0.49998926  1
  V  V23  1  0.37741196  0.87515876  0.00066010  1
  V  V24  1  0.25067048  0.87329846  0.12582084  1
  V  V25  1  0.25085419  0.24930442  0.00017256  1
  V  V26  1  0.87497622  0.12684155  0.24944920  1
  V  V27  1  -0.00016382  0.87500746  0.37462576  1
  V  V28  1  0.12496765  0.87430500  0.25079454  1
  V  V29  1  0.37368507  0.74998192  0.62432470  1
  V  V30  1  0.25016417  0.50045889  0.74892412  1
  V  V31  1  0.75080590  0.25170818  -0.00000973  1
  V  V32  1  0.37618602  0.12527915  0.75114240  1
  V  V33  1  0.49746940  0.74842684  0.24989993  1
  V  V34  1  0.37265077  0.49932784  0.37349697  1
  V  V35  1  0.62465859  0.12410083  0.00224072  1
  V  V36  1  0.87438125  0.87474046  0.49971893  1
  V  V37  1  0.50064072  0.50063771  0.00172144  1
  V  V38  1  0.25061261  0.12458035  0.87582555  1
  V  V39  1  0.37510093  0.12364248  0.25042225  1
  V  V40  1  0.12485153  -0.00037816  0.12607782  1
  V  V41  1  0.37540487  0.00000775  0.37645526  1
  V  V42  1  0.00008119  0.62435126  0.12422482  1
  V  V43  1  0.24949561  0.74780259  -0.00047208  1
  V  V44  1  0.00015315  -0.00075292  -0.00006835  1
  V  V45  1  0.24976488  0.37527644  0.62431480  1
  V  V46  1  0.12415885  0.62470975  0.49948923  1
  V  V47  1  0.37571446  0.37483708  -0.00014959  1
  V  V48  1  0.25047879  0.49945718  0.24990894  1
  V  V49  1  -0.00052740  0.50056915  0.49941783  1
  V  V50  1  0.75061220  0.00013545  0.75049199  1
  V  V51  1  0.12502983  0.37445642  0.74981602  1
  V  V52  1  0.12557762  0.74921271  0.37584967  1
  V  V53  1  0.75034571  0.75039658  -0.00084646  1
  V  V54  1  0.62502351  0.37608759  0.24858278  1
  V  V55  1  0.37574179  -0.00111951  0.87671533  1
  V  V56  1  0.37554550  0.62452991  0.74867765  1
  V  V57  1  0.74992029  0.62463524  0.37340162  1
  V  V58  1  0.62577347  0.12513059  0.50025932  1
  V  V59  1  0.37520616  0.49951469  0.87517517  1
  V  V60  1  -0.00044597  0.12556665  0.12519758  1
  V  V61  1  0.37524159  0.24925707  0.62614509  1
  V  V62  1  0.12498699  0.49955515  0.12338610  1
  V  V63  1  0.37456218  0.37366448  0.49974508  1
  V  V64  1  0.87478553  0.00123373  0.37364528  1
  V  V65  1  0.62532639  0.75026358  0.37505485  1
  V  V66  1  0.12537891  0.25103571  0.87366007  1
  V  V67  1  0.62495119  0.25067931  0.87477897  1
  V  V68  1  0.12396951  0.50069356  0.62352280  1
  V  V69  1  0.87400333  0.50013041  0.37439196  1
  V  V70  1  0.24960409  0.37420087  0.12465928  1
  V  V71  1  0.24963462  0.62500672  0.87448126  1
  V  V72  1  0.75077886  0.87470155  0.62420239  1
  V  V73  1  -0.00246628  0.74904240  0.74943043  1
  V  V74  1  0.74937271  0.37528775  0.62507764  1
  V  V75  1  0.49871193  0.37312667  0.37488765  1
  V  V76  1  0.87537249  0.12513846  0.74963640  1
  V  V77  1  0.87658886  0.00062689  0.87510081  1
  V  V78  1  0.12569319  0.12478344  0.00011767  1
  V  V79  1  0.12493524  0.12575732  0.50014398  1
  V  V80  1  0.50083054  0.87598455  0.37681100  1
  V  V81  1  0.75053460  0.75076197  0.49957940  1
  V  V82  1  0.87419992  0.62428284  0.24886147  1
  V  V83  1  0.25062363  -0.00082860  0.25212841  1
  V  V84  1  0.25007258  0.87439753  0.62569835  1
  V  V85  1  0.00009300  -0.00014755  0.50006431  1
  V  V86  1  0.12402855  0.24984561  0.37489223  1
  V  V87  1  0.50015942  0.25006150  0.75087140  1
  V  V88  1  0.87467499  0.37550017  -0.00032305  1
  V  V89  1  0.12518716  0.00044012  0.62548546  1
  V  V90  1  0.74929691  0.50114115  0.74948707  1
  V  V91  1  0.87426326  0.50342437  0.87282743  1
  V  V92  1  0.24905671  0.74978490  0.50059054  1
  V  V93  1  0.62428358  0.87485640  0.75099701  1
  V  V94  1  0.12374700  0.37376160  0.24922022  1
  V  V95  1  0.37500136  0.24751003  0.12554313  1
  Zn  Zn96  1  0.87470939  0.74824190  0.62446212  1
  Zn  Zn97  1  0.74858556  0.50034149  0.24709291  1
  Zn  Zn98  1  0.37363910  0.62392220  0.24927631  1
  Zn  Zn99  1  0.62324330  0.75229673  0.87505081  1
  Zn  Zn100  1  0.12464533  0.62371797  -0.00189784  1
  Zn  Zn101  1  0.75131104  0.12437631  0.87508287  1
  Zn  Zn102  1  0.62434949  0.24937388  0.37527356  1
  Zn  Zn103  1  0.87627841  0.87443491  0.00149629  1
  Zn  Zn104  1  0.25070888  0.62522633  0.37309413  1
  Zn  Zn105  1  -0.00005397  0.25128002  0.75070962  1
  Zn  Zn106  1  -0.00162530  0.37550379  0.37362311  1
  Zn  Zn107  1  -0.00283596  0.62594353  0.62522967  1
  Zn  Zn108  1  0.37450520  0.74724944  0.12770840  1
  Zn  Zn109  1  0.74872812  0.37857717  0.12553203  1
  Zn  Zn110  1  0.24969122  0.12389930  0.37606645  1
  Zn  Zn111  1  0.50166506  0.87506015  0.87565133  1
  Zn  Zn112  1  0.37541268  0.87559623  0.50144164  1
  Zn  Zn113  1  0.62399186  0.00166084  0.12625044  1
  Zn  Zn114  1  0.50064811  0.12089666  0.12580799  1
  Zn  Zn115  1  0.49804246  0.62585809  0.12676928  1
  Zn  Zn116  1  0.50310877  -0.00119628  0.00130489  1
  Zn  Zn117  1  0.87515537  0.25174663  0.12473066  1
  Zn  Zn118  1  0.12361993  0.74776284  0.87448860  1
  Zn  Zn119  1  0.00081316  0.37493940  0.87210864  1
  Zn  Zn120  1  0.50055207  0.37534784  0.87528442  1
  Zn  Zn121  1  0.62480887  0.49977316  0.62488768  1
  Zn  Zn122  1  0.74835953  0.62917291  0.87127814  1
  Zn  Zn123  1  0.87239758  0.62691875  0.74647616  1
  Zn  Zn124  1  0.50066958  0.12450620  0.62616602  1
  Zn  Zn125  1  0.87667365  0.74956188  0.12366245  1
  Zn  Zn126  1  0.62624962  0.50138123  0.12590805  1
  Zn  Zn127  1  0.74948839  0.00323342  0.24775059  1
  Zn  Zn128  1  0.18805048  0.18598940  0.18898293  1
  Zn  Zn129  1  0.18812135  0.18765545  0.68790665  1
  Zn  Zn130  1  0.18705964  0.68464577  0.18696358  1
  Zn  Zn131  1  0.18441970  0.68719634  0.68709989  1
  Zn  Zn132  1  0.68847192  0.19198586  0.18669856  1
  Zn  Zn133  1  0.68834696  0.18688650  0.68757977  1
  Zn  Zn134  1  0.68604601  0.68880131  0.18543564  1
  Zn  Zn135  1  0.68662700  0.68761439  0.68604621  1
  Zn  Zn136  1  0.31087225  0.31124147  0.31255821  1
  Zn  Zn137  1  0.31241750  0.31322333  0.81309482  1
  Zn  Zn138  1  0.31356261  0.81407275  0.31642133  1
  Zn  Zn139  1  0.31361449  0.81147048  0.81394512  1
  Zn  Zn140  1  0.81132604  0.31227633  0.31328446  1
  Zn  Zn141  1  0.81212404  0.31336947  0.81304585  1
  Zn  Zn142  1  0.81364233  0.81122971  0.31138038  1
  Zn  Zn143  1  0.81325938  0.81533358  0.81439616  1
  Zn  Zn144  1  0.18586235  0.43654733  0.43548103  1
  Zn  Zn145  1  0.18838218  0.43719941  0.93662580  1
  Zn  Zn146  1  0.18819887  0.93647741  0.43848485  1
  Zn  Zn147  1  0.18805318  0.93602429  0.93753593  1
  Zn  Zn148  1  0.68673109  0.43794558  0.43514910  1
  Zn  Zn149  1  0.68731538  0.43833072  0.93502792  1
  Zn  Zn150  1  0.68797888  0.93936403  0.43651378  1
  Zn  Zn151  1  0.68889852  0.93760562  0.93612286  1
  Zn  Zn152  1  0.31248868  0.06075573  0.06462565  1
  Zn  Zn153  1  0.31289961  0.06321910  0.56320512  1
  Zn  Zn154  1  0.31540018  0.56418883  0.06566484  1
  Zn  Zn155  1  0.31159138  0.56329180  0.56021284  1
  Zn  Zn156  1  0.81318129  0.06319733  0.06220729  1
  Zn  Zn157  1  0.81244284  0.06229575  0.56232778  1
  Zn  Zn158  1  0.81028024  0.56217086  0.06427426  1
  Zn  Zn159  1  0.81345949  0.56405069  0.56354730  1
  Zn  Zn160  1  0.43770319  0.43600943  0.18667414  1
  Zn  Zn161  1  0.43893640  0.43625483  0.68684411  1
  Zn  Zn162  1  0.43977697  0.93765621  0.18610391  1
  Zn  Zn163  1  0.43815103  0.93694423  0.68752444  1
  Zn  Zn164  1  0.93718444  0.43893813  0.18640576  1
  Zn  Zn165  1  0.93874285  0.43697079  0.68661090  1
  Zn  Zn166  1  0.93589353  0.93813840  0.18739900  1
  Zn  Zn167  1  0.93687887  0.93631358  0.68758350  1
  Zn  Zn168  1  0.06207896  0.06368713  0.31294328  1
  Zn  Zn169  1  0.06188827  0.06372360  0.81232631  1
  Zn  Zn170  1  0.06227637  0.56210661  0.31250114  1
  Zn  Zn171  1  0.06252408  0.56351175  0.81245692  1
  Zn  Zn172  1  0.56388918  0.06213265  0.31284192  1
  Zn  Zn173  1  0.56218088  0.06247788  0.81646829  1
  Zn  Zn174  1  0.56107921  0.56148936  0.31498761  1
  Zn  Zn175  1  0.56341882  0.56337870  0.81427254  1
  Zn  Zn176  1  0.43821334  0.18561451  0.43712943  1
  Zn  Zn177  1  0.44020532  0.18699253  0.93743911  1
  Zn  Zn178  1  0.43525045  0.68628591  0.43597399  1
  Zn  Zn179  1  0.43762648  0.68769574  0.93535288  1
  Zn  Zn180  1  0.93763694  0.18881970  0.43690067  1
  Zn  Zn181  1  0.93960572  0.18764149  0.93518765  1
  Zn  Zn182  1  0.93729286  0.68660957  0.43681365  1
  Zn  Zn183  1  0.93661193  0.68794609  0.93683130  1
  Zn  Zn184  1  0.06117956  0.31284216  0.06079817  1
  Zn  Zn185  1  0.06045997  0.31356680  0.56225241  1
  Zn  Zn186  1  0.06420603  0.81169041  0.06280470  1
  Zn  Zn187  1  0.06265144  0.81290417  0.56391475  1
  Zn  Zn188  1  0.56077380  0.31144511  0.06470713  1
  Zn  Zn189  1  0.56264046  0.31136189  0.56419817  1
  Zn  Zn190  1  0.56428209  0.81215394  0.06556661  1
  Zn  Zn191  1  0.56302281  0.81265262  0.56387326  1
  O  O192  1  0.12031195  0.11900791  0.11967357  1
  O  O193  1  0.12012192  0.11961198  0.62018204  1
  O  O194  1  0.11821736  0.61641842  0.12193625  1
  O  O195  1  0.12256282  0.61760043  0.61793172  1
  O  O196  1  0.62616511  0.12618273  0.11388530  1
  O  O197  1  0.62498666  0.11789093  0.61857282  1
  O  O198  1  0.61999601  0.62415483  0.11227218  1
  O  O199  1  0.61724416  0.62327110  0.61668790  1
  O  O200  1  0.37894354  0.37876591  0.38105054  1
  O  O201  1  0.37550978  0.38194698  0.88215110  1
  O  O202  1  0.38271412  0.88272718  0.37928771  1
  O  O203  1  0.37385623  0.88094064  0.88522727  1
  O  O204  1  0.87520415  0.38171740  0.38181511  1
  O  O205  1  0.87557128  0.38471586  0.88370999  1
  O  O206  1  0.88075202  0.88093649  0.37931815  1
  O  O207  1  0.88338025  0.88374942  0.87786945  1
  O  O208  1  0.25609621  -0.00042874  0.36950868  1
  O  O209  1  0.25489513  0.00553412  0.86996573  1
  O  O210  1  0.25541629  0.49831876  0.36765364  1
  O  O211  1  0.25614950  0.50517335  0.86863047  1
  O  O212  1  0.75807983  0.00750978  0.37348813  1
  O  O213  1  0.75887401  0.00094117  0.86783867  1
  O  O214  1  0.75619440  0.50778719  0.37284696  1
  O  O215  1  0.75895240  0.50123627  0.86779492  1
  O  O216  1  0.24522819  0.49277452  0.12900481  1
  O  O217  1  0.24509520  0.49452846  0.62932425  1
  O  O218  1  0.24348668  0.99323791  0.13177490  1
  O  O219  1  0.24463406  0.99512876  0.63161372  1
  O  O220  1  0.74414587  0.49582287  0.12875594  1
  O  O221  1  0.74866972  0.49294077  0.63200168  1
  O  O222  1  0.74931180  0.98832283  0.12568788  1
  O  O223  1  0.74486987  0.99418296  0.63001096  1
  O  O224  1  0.00637460  0.36849129  0.24891782  1
  O  O225  1  0.00953359  0.37242928  0.75106934  1
  O  O226  1  0.00563732  0.87004768  0.25502410  1
  O  O227  1  0.00527753  0.86932617  0.75587564  1
  O  O228  1  0.50512304  0.36849372  0.25532726  1
  O  O229  1  0.50624800  0.36850336  0.75183829  1
  O  O230  1  0.50637753  0.86801177  0.25733964  1
  O  O231  1  0.50649450  0.86801216  0.74921212  1
  O  O232  1  0.49332964  0.13100637  0.24993952  1
  O  O233  1  0.49332065  0.13171792  0.75021403  1
  O  O234  1  0.50076164  0.63754023  0.25157652  1
  O  O235  1  0.49471146  0.62933284  0.74386023  1
  O  O236  1  0.99537032  0.13061556  0.24439367  1
  O  O237  1  0.99399419  0.12608295  0.74203147  1
  O  O238  1  0.99504523  0.62971303  0.24421538  1
  O  O239  1  0.99884083  0.63752205  0.74964315  1
  O  O240  1  0.36962916  0.25395869  0.00481261  1
  O  O241  1  0.36950013  0.25436902  0.50563823  1
  O  O242  1  0.36514216  0.75814355  -0.00017925  1
  O  O243  1  0.36790429  0.75086338  0.50693030  1
  O  O244  1  0.86785667  0.25871244  -0.00340881  1
  O  O245  1  0.86952941  0.25548719  0.50591757  1
  O  O246  1  0.86337141  0.75155599  0.00201155  1
  O  O247  1  0.86838398  0.75798575  0.49825576  1
  O  O248  1  0.12921810  0.24541608  0.49569313  1
  O  O249  1  0.13182341  0.24434492  0.99486465  1
  O  O250  1  0.12892987  0.74549410  0.49554690  1
  O  O251  1  0.13880929  0.74890567  0.99792374  1
  O  O252  1  0.63191451  0.24366349  0.49978054  1
  O  O253  1  0.63252733  0.24584854  0.99569602  1
  O  O254  1  0.63030338  0.74474496  0.49410605  1
  O  O255  1  0.63208255  0.74281744  0.99961272  1
  O  O256  1  0.49106403  0.24697094  0.13219405  1
  O  O257  1  0.49237478  0.24825171  0.63262863  1
  O  O258  1  0.49885241  0.75166876  0.13975801  1
  O  O259  1  0.49371896  0.74378191  0.62972629  1
  O  O260  1  0.99953235  0.24261522  0.13010095  1
  O  O261  1  0.99318928  0.24290246  0.62549522  1
  O  O262  1  1.00088460  0.74328702  0.13121400  1
  O  O263  1  0.99815968  0.75187823  0.63724459  1
  O  O264  1  0.00624001  0.25172130  0.36750141  1
  O  O265  1  0.01015128  0.25256970  0.87204586  1
  O  O266  1  0.00578225  0.75617173  0.36919396  1
  O  O267  1  0.00145474  0.75659226  0.86739791  1
  O  O268  1  0.49967673  0.25640651  0.36843654  1
  O  O269  1  0.50660716  0.25251347  0.86849458  1
  O  O270  1  0.50586364  0.75577697  0.36966623  1
  O  O271  1  0.50076046  0.75310526  0.86513432  1
  O  O272  1  0.24236413  0.13159804  0.50033848  1
  O  O273  1  0.24504876  0.12936666  0.99553526  1
  O  O274  1  0.24215540  0.63198292  0.49799277  1
  O  O275  1  0.25191500  0.63354057  0.99462701  1
  O  O276  1  0.74598379  0.13018112  0.49501378  1
  O  O277  1  0.74429289  0.13580772  0.99848516  1
  O  O278  1  0.74431971  0.63080278  0.49360467  1
  O  O279  1  0.74127497  0.63415745  1.00048218  1
  O  O280  1  0.25579995  0.36882441  0.00546667  1
  O  O281  1  0.25477419  0.36908229  0.50543911  1
  O  O282  1  0.25690713  0.86705196  0.00492379  1
  O  O283  1  0.25002740  0.86812144  0.50864478  1
  O  O284  1  0.75769582  0.36787040  -0.00189558  1
  O  O285  1  0.75450180  0.37021594  0.50507821  1
  O  O286  1  0.74912605  0.86666558  0.00882920  1
  O  O287  1  0.75477682  0.87057326  0.50389135  1
  O  O288  1  0.12944601  0.49317000  0.24330882  1
  O  O289  1  0.13145507  0.49504575  0.74386492  1
  O  O290  1  0.12945713  0.99395896  0.24579938  1
  O  O291  1  0.13090378  0.99566075  0.74490500  1
  O  O292  1  0.62220932  0.48845330  0.24951372  1
  O  O293  1  0.63149689  0.49366519  0.74938444  1
  O  O294  1  0.62941733  0.99153590  0.24879136  1
  O  O295  1  0.63051717  0.99592104  0.74528265  1
  O  O296  1  0.37008652  0.00348095  0.25623411  1
  O  O297  1  0.36945854  0.00480342  0.75589091  1
  O  O298  1  0.36832736  0.49643370  0.25633706  1
  O  O299  1  0.36977716  0.50481449  0.75388723  1
  O  O300  1  0.87455303  0.00842013  0.25678974  1
  O  O301  1  0.87050895  0.00515146  0.75451367  1
  O  O302  1  0.87401473  0.50646521  0.25658428  1
  O  O303  1  0.86852587  0.49810221  0.75864892  1
  O  O304  1  0.12216772  0.36764869  0.36706423  1
  O  O305  1  0.12673120  0.36881554  0.86759288  1
  O  O306  1  0.11868918  0.86987821  0.37016282  1
  O  O307  1  0.11891116  0.87457353  0.86828334  1
  O  O308  1  0.61705949  0.37283099  0.36644168  1
  O  O309  1  0.62356164  0.36794605  0.86787107  1
  O  O310  1  0.62109643  0.86945488  0.37028749  1
  O  O311  1  0.62246300  0.87407746  0.86638547  1
  O  O312  1  0.37441976  0.13047126  0.13218769  1
  O  O313  1  0.37526971  0.13176184  0.63372644  1
  O  O314  1  0.38071757  0.62994920  0.13123871  1
  O  O315  1  0.37975385  0.62999771  0.62969380  1
  O  O316  1  0.88238772  0.12710381  0.13085714  1
  O  O317  1  0.88046799  0.12965167  0.62936029  1
  O  O318  1  0.88241878  0.62561426  0.13115683  1
  O  O319  1  0.87935617  0.63013641  0.62844607  1
  O  O320  1  0.25434336  0.25447530  0.11928847  1
  O  O321  1  0.25518582  0.25596175  0.61978433  1
  O  O322  1  0.25014050  0.75532082  0.11656824  1
  O  O323  1  0.25394286  0.75503051  0.62109797  1
  O  O324  1  0.75360826  0.25561260  0.11109945  1
  O  O325  1  0.75638209  0.25561886  0.61970705  1
  O  O326  1  0.75093847  0.75887600  0.11591153  1
  O  O327  1  0.75044771  0.75781856  0.61692304  1
  O  O328  1  0.24251849  0.24805667  0.38230409  1
  O  O329  1  0.24621779  0.24349830  0.88115412  1
  O  O330  1  0.24238735  0.75054899  0.38215810  1
  O  O331  1  0.24972017  0.74376003  0.88344462  1
  O  O332  1  0.74931791  0.24298986  0.38362852  1
  O  O333  1  0.74445607  0.24942780  0.88506917  1
  O  O334  1  0.74436856  0.74500371  0.38007876  1
  O  O335  1  0.74767920  0.75115140  0.88709384  1
  O  O336  1  0.00692076  0.11935081  0.00513537  1
  O  O337  1  0.00490924  0.11910340  0.50562178  1
  O  O338  1  0.00117061  0.61861969  0.00554848  1
  O  O339  1  0.00678452  0.61880769  0.50048917  1
  O  O340  1  0.51288887  0.12564309  0.00228556  1
  O  O341  1  0.50735018  0.11852303  0.50233682  1
  O  O342  1  0.50666614  0.61773678  -0.00022905  1
  O  O343  1  0.50449176  0.61944202  0.50387328  1
  O  O344  1  0.49372789  0.37856125  0.49554513  1
  O  O345  1  0.49434403  0.38379463  0.99869580  1
  O  O346  1  0.50040780  0.88182491  0.49429942  1
  O  O347  1  0.48724957  0.87245066  0.99999256  1
  O  O348  1  0.99194941  0.38209237  0.49827687  1
  O  O349  1  0.99042434  0.38114811  0.99668975  1
  O  O350  1  0.99545890  0.88065369  0.49406458  1
  O  O351  1  1.00081540  0.88141992  0.99490110  1
  O  O352  1  0.49232145  0.49263644  0.38133158  1
  O  O353  1  0.49341488  0.49962068  0.88568032  1
  O  O354  1  0.49537862  0.99467915  0.38118609  1
  O  O355  1  0.49062354  0.99666421  0.88071474  1
  O  O356  1  0.99251824  0.49849341  0.38135801  1
  O  O357  1  0.99031768  0.49862842  0.87916048  1
  O  O358  1  0.99527603  0.99458008  0.38054065  1
  O  O359  1  0.99674883  0.99550170  0.88057909  1
  O  O360  1  0.00629360  0.00515044  0.12041361  1
  O  O361  1  0.00580677  0.00476591  0.61932917  1
  O  O362  1  0.00558944  0.50503613  0.11830207  1
  O  O363  1  0.00715718  0.50093917  0.61747205  1
  O  O364  1  0.50533149  0.00288231  0.11926906  1
  O  O365  1  0.50715192  0.00139268  0.61948901  1
  O  O366  1  0.50046088  0.50072113  0.11117427  1
  O  O367  1  0.50007559  0.50636788  0.61762450  1
  O  O368  1  0.24339996  0.37846273  0.24290012  1
  O  O369  1  0.24592428  0.38141536  0.74349742  1
  O  O370  1  0.24415262  0.87926538  0.24601242  1
  O  O371  1  0.24513023  0.88020831  0.74574308  1
  O  O372  1  0.73760165  0.37511601  0.24995115  1
  O  O373  1  0.74450701  0.38058791  0.74454061  1
  O  O374  1  0.74534000  0.87347678  0.24094284  1
  O  O375  1  0.74489838  0.88077764  0.74391723  1
  O  O376  1  0.25584314  0.11654988  0.25228090  1
  O  O377  1  0.25582682  0.11907436  0.75632521  1
  O  O378  1  0.25078696  0.61480084  0.25232444  1
  O  O379  1  0.25581102  0.61970234  0.75358424  1
  O  O380  1  0.75693026  0.12701998  0.25576379  1
  O  O381  1  0.75746250  0.11777894  0.75101127  1
  O  O382  1  0.75483841  0.62612070  0.25619317  1
  O  O383  1  0.75088427  0.61726381  0.75164383  1
  O  O384  1  0.37229602  0.11757680  0.36873168  1
  O  O385  1  0.36902203  0.11977902  0.87136800  1
  O  O386  1  0.37184772  0.61451941  0.37180861  1
  O  O387  1  0.36933229  0.61867074  0.86768562  1
  O  O388  1  0.87103821  0.12040353  0.36964163  1
  O  O389  1  0.87528606  0.11831508  0.86776745  1
  O  O390  1  0.86907766  0.61981273  0.36914264  1
  O  O391  1  0.87190359  0.61264751  0.87361264  1
  O  O392  1  0.13042346  0.37928700  0.12914676  1
  O  O393  1  0.13149306  0.38044029  0.62896550  1
  O  O394  1  0.13055777  0.88062500  0.13159352  1
  O  O395  1  0.13032525  0.88199557  0.63141389  1
  O  O396  1  0.62364364  0.37598830  0.13733267  1
  O  O397  1  0.63184419  0.37620033  0.63158048  1
  O  O398  1  0.63598328  0.87557189  0.13144655  1
  O  O399  1  0.63147436  0.88132793  0.63055833  1
  O  O400  1  0.11997498  0.25416938  0.25447897  1
  O  O401  1  0.12670019  0.25643030  0.75599705  1
  O  O402  1  0.12006592  0.75536582  0.25538959  1
  O  O403  1  0.11586000  0.75696648  0.75160229  1
  O  O404  1  0.61769282  0.25879926  0.25213412  1
  O  O405  1  0.62085404  0.25444152  0.75488993  1
  O  O406  1  0.61742321  0.75606581  0.25631785  1
  O  O407  1  0.61840973  0.75669376  0.74978816  1
  O  O408  1  0.37835601  0.24420420  0.24488729  1
  O  O409  1  0.37921827  0.24517402  0.74615930  1
  O  O410  1  0.38654009  0.75087593  0.25273410  1
  O  O411  1  0.37937068  0.74357130  0.74377319  1
  O  O412  1  0.88154741  0.24514140  0.24779816  1
  O  O413  1  0.87534070  0.24425025  0.74339306  1
  O  O414  1  0.88328677  0.74226894  0.24913452  1
  O  O415  1  0.88572146  0.75140111  0.74990323  1
  O  O416  1  0.37901387  0.49265324  0.49465501  1
  O  O417  1  0.38189448  0.49540447  0.99518554  1
  O  O418  1  0.38180043  0.99954123  0.49525241  1
  O  O419  1  0.37163215  0.98875994  0.99544715  1
  O  O420  1  0.87929051  0.49537101  0.49409628  1
  O  O421  1  0.87814370  0.49350434  0.99141953  1
  O  O422  1  0.88117973  0.99500604  0.49393329  1
  O  O423  1  0.88326377  0.99972717  0.99357508  1
  O  O424  1  0.12125866  0.00537924  0.00608524  1
  O  O425  1  0.11947620  0.00494449  0.50593301  1
  O  O426  1  0.11896396  0.49881696  0.00597145  1
  O  O427  1  0.12000385  0.50421956  0.50410117  1
  O  O428  1  0.62761706  0.01306249  0.00004779  1
  O  O429  1  0.62053748  0.00535679  0.50569034  1
  O  O430  1  0.61615892  0.50722356  -0.00180083  1
  O  O431  1  0.61711135  0.50623274  0.49993989  1
  O  O432  1  0.36850814  0.36767253  0.11910291  1
  O  O433  1  0.36889638  0.36922614  0.61943025  1
  O  O434  1  0.36818624  0.87321266  0.11634368  1
  O  O435  1  0.36742799  0.86821352  0.62458489  1
  O  O436  1  0.87400341  0.37477025  0.11002218  1
  O  O437  1  0.86892242  0.36964505  0.61911178  1
  O  O438  1  0.86506771  0.87190084  0.12358017  1
  O  O439  1  0.86815364  0.87485961  0.61687637  1
  O  O440  1  0.12585229  0.13110065  0.38257294  1
  O  O441  1  0.13165364  0.12951574  0.88074249  1
  O  O442  1  0.12617215  0.63215232  0.38116509  1
  O  O443  1  0.13476536  0.62592253  0.87784863  1
  O  O444  1  0.63271858  0.12647171  0.38223469  1
  O  O445  1  0.62851067  0.13243909  0.88473442  1
  O  O446  1  0.62997840  0.63078959  0.38069845  1
  O  O447  1  0.62700568  0.62833201  0.88784897  1
