# generated using pymatgen
data_V3Zn3O8
_symmetry_space_group_name_H-M   'P 1'
_cell_length_a   17.08811240
_cell_length_b   17.08828165
_cell_length_c   17.08793612
_cell_angle_alpha   90.01429672
_cell_angle_beta   89.99935438
_cell_angle_gamma   89.99040248
_symmetry_Int_Tables_number   1
_chemical_formula_structural   V3Zn3O8
_chemical_formula_sum   'V96 Zn96 O256'
_cell_volume   4989.78780948
_cell_formula_units_Z   32
loop_
 _symmetry_equiv_pos_site_id
 _symmetry_equiv_pos_as_xyz
  1  'x, y, z'
loop_
 _atom_site_type_symbol
 _atom_site_label
 _atom_site_symmetry_multiplicity
 _atom_site_fract_x
 _atom_site_fract_y
 _atom_site_fract_z
 _atom_site_occupancy
  V  V0  1  0.12476032  0.49927479  0.12632775  1
  V  V1  1  -0.00178594  0.87471018  0.87534986  1
  V  V2  1  0.24815603  0.37450432  0.12714845  1
  V  V3  1  0.37386541  0.12397052  0.25037696  1
  V  V4  1  0.74966439  0.25051326  -0.00038774  1
  V  V5  1  0.62467609  0.00060604  0.12512247  1
  V  V6  1  0.50024996  0.00094504  0.50087769  1
  V  V7  1  -0.00018558  0.12427384  0.62555281  1
  V  V8  1  0.49911530  -0.00045726  -0.00031761  1
  V  V9  1  0.50012011  0.74968400  0.24918064  1
  V  V10  1  0.49991223  0.74950953  0.75058126  1
  V  V11  1  0.00143179  0.62453286  0.62367624  1
  V  V12  1  0.25024138  0.87303984  0.12353329  1
  V  V13  1  0.87437594  0.25125462  0.12409970  1
  V  V14  1  0.87450415  0.75076027  0.62289904  1
  V  V15  1  -0.00012283  0.25113506  0.25053718  1
  V  V16  1  0.24910355  -0.00146215  0.75048081  1
  V  V17  1  0.62489898  0.25138004  0.37559317  1
  V  V18  1  0.74893162  0.12629145  0.87440876  1
  V  V19  1  0.37525538  0.62420742  0.75065040  1
  V  V20  1  0.62601032  0.62602623  0.50002113  1
  V  V21  1  0.75101347  0.87515159  0.12335608  1
  V  V22  1  0.87519414  0.62581056  0.24993815  1
  V  V23  1  -0.00021964  0.24932719  0.74972822  1
  V  V24  1  0.12345816  0.12444777  0.00005457  1
  V  V25  1  0.37455750  0.37341596  0.50098194  1
  V  V26  1  0.49950869  0.12445230  0.12572143  1
  V  V27  1  0.49917133  0.25041331  0.75069643  1
  V  V28  1  0.00055615  0.75069984  0.24931825  1
  V  V29  1  0.62411533  0.87616127  0.24954321  1
  V  V30  1  0.75059390  0.50052571  0.24788498  1
  V  V31  1  0.25140320  0.37289281  0.62412796  1
  V  V32  1  0.12503636  0.25034413  0.37568186  1
  V  V33  1  0.12590174  0.87524303  0.24976237  1
  V  V34  1  0.12597179  0.75007859  0.37488416  1
  V  V35  1  0.62634068  0.37651099  0.25009911  1
  V  V36  1  0.75059901  0.50125548  0.75074370  1
  V  V37  1  0.37544447  0.12509453  0.74985893  1
  V  V38  1  0.12565195  0.62477022  0.50009138  1
  V  V39  1  -0.00071141  -0.00063718  -0.00066093  1
  V  V40  1  0.87599176  0.50069749  0.87437619  1
  V  V41  1  0.62339231  0.12510200  0.50034814  1
  V  V42  1  0.62533014  0.12628080  -0.00001407  1
  V  V43  1  0.12623129  0.37445036  0.74938194  1
  V  V44  1  0.50055364  0.87474437  0.37451148  1
  V  V45  1  0.12459322  0.87446730  0.74915188  1
  V  V46  1  0.87431874  0.75180883  0.12356467  1
  V  V47  1  0.75008297  0.12643566  0.37510517  1
  V  V48  1  0.49981805  0.62514680  0.62631020  1
  V  V49  1  0.87448348  0.24999181  0.62550042  1
  V  V50  1  0.87491220  0.12645065  0.24963113  1
  V  V51  1  0.25075653  0.74894019  -0.00050115  1
  V  V52  1  0.62511767  0.50060639  0.62602302  1
  V  V53  1  0.50070038  0.62357834  0.12390850  1
  V  V54  1  0.12615842  0.12480997  0.49966776  1
  V  V55  1  0.25148414  0.49957641  0.75080021  1
  V  V56  1  0.25153865  0.62442802  0.37451999  1
  V  V57  1  0.25141872  0.75067757  0.49987089  1
  V  V58  1  0.37544203  0.50042744  0.37462808  1
  V  V59  1  0.00076325  0.74993930  0.74928920  1
  V  V60  1  0.87442083  0.37533210  -0.00088565  1
  V  V61  1  0.87574213  0.62459861  0.74950578  1
  V  V62  1  0.24996588  0.49956844  0.25098905  1
  V  V63  1  0.87519147  0.00119453  0.37476533  1
  V  V64  1  0.12562356  0.50002232  0.62388454  1
  V  V65  1  -0.00008069  0.00042517  0.49962704  1
  V  V66  1  0.12457861  0.24950690  0.87461227  1
  V  V67  1  0.74926683  0.25069359  0.50042142  1
  V  V68  1  0.00009506  0.87595123  0.37396428  1
  V  V69  1  0.12566392  0.62294495  0.00050412  1
  V  V70  1  0.49964278  0.25022765  0.25082496  1
  V  V71  1  0.37495599  0.87432806  0.50105142  1
  V  V72  1  0.62729076  0.62592846  -0.00169511  1
  V  V73  1  0.75047426  0.62766390  0.37566110  1
  V  V74  1  0.37693673  0.37625427  -0.00048311  1
  V  V75  1  0.87823096  0.37733373  0.49908971  1
  V  V76  1  -0.00012101  0.37562353  0.87465812  1
  V  V77  1  0.25038112  0.00040558  0.25038747  1
  V  V78  1  0.74952450  0.37567168  0.62559542  1
  V  V79  1  0.25030523  0.62340655  0.87496171  1
  V  V80  1  0.50046591  0.37599407  0.37544242  1
  V  V81  1  0.37374172  0.24918749  0.12614371  1
  V  V82  1  0.74946907  0.00124192  0.24950095  1
  V  V83  1  0.24919927  0.24883754  0.00110658  1
  V  V84  1  0.87335483  0.12472789  0.74987189  1
  V  V85  1  0.12498295  -0.00099085  0.62540547  1
  V  V86  1  0.37486119  -0.00090732  0.87562793  1
  V  V87  1  0.74905385  -0.00005145  0.74848026  1
  V  V88  1  0.49964758  0.87526908  0.87463465  1
  V  V89  1  -0.00052262  0.12452892  0.12368295  1
  V  V90  1  0.62375212  0.37512887  0.75167118  1
  V  V91  1  0.24931243  0.12357213  0.87578245  1
  V  V92  1  0.00066218  0.62483294  0.12498003  1
  V  V93  1  0.62513631  0.87509602  0.74909581  1
  V  V94  1  0.50086502  0.50012625  0.49998314  1
  V  V95  1  0.87372950  0.87484334  0.50011711  1
  Zn  Zn96  1  0.74901746  0.37574367  0.12359950  1
  Zn  Zn97  1  0.25228757  0.24658193  0.50044165  1
  Zn  Zn98  1  0.87889488  0.50066775  0.37507051  1
  Zn  Zn99  1  0.37589933  0.87378488  -0.00066990  1
  Zn  Zn100  1  0.50123905  0.37696347  0.87717038  1
  Zn  Zn101  1  0.37522799  0.74820552  0.12439940  1
  Zn  Zn102  1  0.74883170  0.87429316  0.62253501  1
  Zn  Zn103  1  0.00129626  0.50020053  0.49735424  1
  Zn  Zn104  1  0.62469014  0.00149305  0.62413624  1
  Zn  Zn105  1  0.25110975  0.12476611  0.37656071  1
  Zn  Zn106  1  0.37594182  0.62452701  0.24871878  1
  Zn  Zn107  1  0.12247982  0.37554146  0.25198294  1
  Zn  Zn108  1  0.74801941  0.75277528  0.50118640  1
  Zn  Zn109  1  0.37389737  0.00203506  0.37590276  1
  Zn  Zn110  1  0.62403488  0.25264100  0.87647162  1
  Zn  Zn111  1  0.37688458  0.49922271  0.87644790  1
  Zn  Zn112  1  0.87341471  0.87536821  -0.00065479  1
  Zn  Zn113  1  0.37384516  0.74901842  0.62583399  1
  Zn  Zn114  1  0.50180376  0.49917618  -0.00104839  1
  Zn  Zn115  1  0.37359576  0.24696141  0.62318713  1
  Zn  Zn116  1  0.75163875  0.75269023  -0.00404400  1
  Zn  Zn117  1  0.62776098  0.74896388  0.87506247  1
  Zn  Zn118  1  0.24981331  0.87322423  0.62584329  1
  Zn  Zn119  1  0.49916085  0.12530696  0.62542713  1
  Zn  Zn120  1  0.75145243  0.62819442  0.87580401  1
  Zn  Zn121  1  0.12371016  0.00045133  0.12448052  1
  Zn  Zn122  1  0.12474248  0.74768188  0.87340847  1
  Zn  Zn123  1  -0.00038171  0.50004647  0.00053760  1
  Zn  Zn124  1  0.62551402  0.75156158  0.37714753  1
  Zn  Zn125  1  0.00037754  0.37851411  0.37367169  1
  Zn  Zn126  1  0.62477923  0.49800329  0.12306249  1
  Zn  Zn127  1  0.87370756  -0.00018151  0.87598315  1
  Zn  Zn128  1  0.18521185  0.18725556  0.18801739  1
  Zn  Zn129  1  0.18870522  0.18670829  0.68690831  1
  Zn  Zn130  1  0.18726883  0.68573082  0.18799466  1
  Zn  Zn131  1  0.18887200  0.68817730  0.68657713  1
  Zn  Zn132  1  0.68745568  0.18901842  0.18653965  1
  Zn  Zn133  1  0.68388940  0.18788402  0.68610760  1
  Zn  Zn134  1  0.68637529  0.68912590  0.18503269  1
  Zn  Zn135  1  0.68910039  0.68866896  0.68760550  1
  Zn  Zn136  1  0.31077564  0.31287412  0.31392999  1
  Zn  Zn137  1  0.31299790  0.31127286  0.81338700  1
  Zn  Zn138  1  0.31522356  0.81241116  0.31342161  1
  Zn  Zn139  1  0.31317707  0.81127010  0.81310411  1
  Zn  Zn140  1  0.81323212  0.31379216  0.31331886  1
  Zn  Zn141  1  0.81120543  0.31319680  0.81357453  1
  Zn  Zn142  1  0.81283071  0.81325120  0.31095388  1
  Zn  Zn143  1  0.81235432  0.81024383  0.81208401  1
  Zn  Zn144  1  0.18851073  0.43592726  0.43835726  1
  Zn  Zn145  1  0.18868983  0.43757617  0.93864901  1
  Zn  Zn146  1  0.18786695  0.93744973  0.43728196  1
  Zn  Zn147  1  0.18421776  0.93665419  0.93685582  1
  Zn  Zn148  1  0.68966198  0.44008418  0.43662013  1
  Zn  Zn149  1  0.68740869  0.43989554  0.93651403  1
  Zn  Zn150  1  0.68698731  0.93764939  0.43607467  1
  Zn  Zn151  1  0.68694516  0.93820131  0.93643614  1
  Zn  Zn152  1  0.31258342  0.06111440  0.06302403  1
  Zn  Zn153  1  0.31181713  0.06222400  0.56485990  1
  Zn  Zn154  1  0.31310694  0.56152600  0.06508839  1
  Zn  Zn155  1  0.31324158  0.56152376  0.56315928  1
  Zn  Zn156  1  0.81370835  0.06231710  0.06072736  1
  Zn  Zn157  1  0.81150879  0.06219254  0.56299124  1
  Zn  Zn158  1  0.81324726  0.56362943  0.06140420  1
  Zn  Zn159  1  0.81286156  0.56267598  0.56305447  1
  Zn  Zn160  1  0.43692487  0.43825901  0.18710285  1
  Zn  Zn161  1  0.43664287  0.43675067  0.68738594  1
  Zn  Zn162  1  0.43526032  0.93645841  0.18595991  1
  Zn  Zn163  1  0.43704826  0.93795354  0.68635968  1
  Zn  Zn164  1  0.93730861  0.43710757  0.18725119  1
  Zn  Zn165  1  0.93892255  0.43852108  0.68643221  1
  Zn  Zn166  1  0.93682805  0.93859652  0.18628698  1
  Zn  Zn167  1  0.93623815  0.93686531  0.68733524  1
  Zn  Zn168  1  0.06357114  0.06407632  0.31151963  1
  Zn  Zn169  1  0.06209334  0.06073064  0.81296890  1
  Zn  Zn170  1  0.06278181  0.56142985  0.31355980  1
  Zn  Zn171  1  0.06340747  0.56210968  0.81215742  1
  Zn  Zn172  1  0.56168812  0.06263454  0.31468474  1
  Zn  Zn173  1  0.56276232  0.06370529  0.81395222  1
  Zn  Zn174  1  0.56505984  0.56321216  0.31244750  1
  Zn  Zn175  1  0.56014626  0.55997095  0.81666954  1
  Zn  Zn176  1  0.43553148  0.18714734  0.43594323  1
  Zn  Zn177  1  0.43733637  0.18807242  0.93627578  1
  Zn  Zn178  1  0.43825751  0.68743866  0.43682792  1
  Zn  Zn179  1  0.43787086  0.68779577  0.93593715  1
  Zn  Zn180  1  0.93879694  0.18920321  0.43764918  1
  Zn  Zn181  1  0.93543016  0.18714250  0.93622635  1
  Zn  Zn182  1  0.93766497  0.68839748  0.43786095  1
  Zn  Zn183  1  0.93750309  0.68820481  0.93838747  1
  Zn  Zn184  1  0.06114279  0.31320828  0.06251735  1
  Zn  Zn185  1  0.06385676  0.31120263  0.56258158  1
  Zn  Zn186  1  0.06387086  0.81146197  0.06142012  1
  Zn  Zn187  1  0.06191719  0.81249224  0.56204114  1
  Zn  Zn188  1  0.56359604  0.31212887  0.06566859  1
  Zn  Zn189  1  0.56080315  0.31251367  0.56542896  1
  Zn  Zn190  1  0.56479937  0.81130342  0.06158218  1
  Zn  Zn191  1  0.56270667  0.81088592  0.56430472  1
  O  O192  1  0.11709817  0.12476939  0.11748272  1
  O  O193  1  0.11852895  0.11892284  0.62068303  1
  O  O194  1  0.12017506  0.61909317  0.12056979  1
  O  O195  1  0.12122720  0.61970796  0.61942950  1
  O  O196  1  0.61883098  0.11969694  0.12081345  1
  O  O197  1  0.62085453  0.12258879  0.61528865  1
  O  O198  1  0.61599642  0.62479205  0.11745400  1
  O  O199  1  0.61994774  0.61917513  0.62032072  1
  O  O200  1  0.38152405  0.38053596  0.38032728  1
  O  O201  1  0.37379806  0.37336974  0.88961406  1
  O  O202  1  0.38142965  0.87680843  0.38577237  1
  O  O203  1  0.38146838  0.88218565  0.87609641  1
  O  O204  1  0.87546546  0.37507088  0.38838070  1
  O  O205  1  0.88108253  0.38023024  0.87876451  1
  O  O206  1  0.88092316  0.88180063  0.37830939  1
  O  O207  1  0.88822157  0.87622209  0.87414663  1
  O  O208  1  0.25078096  -0.00092749  0.36074290  1
  O  O209  1  0.25397106  0.00455383  0.87058191  1
  O  O210  1  0.25546516  0.50491544  0.37072798  1
  O  O211  1  0.25188424  0.50530928  0.86839371  1
  O  O212  1  0.75545137  0.00699974  0.36879078  1
  O  O213  1  0.75061278  0.00620523  0.86372533  1
  O  O214  1  0.75253469  0.51081429  0.36557602  1
  O  O215  1  0.75883542  0.50263393  0.86705715  1
  O  O216  1  0.24438384  0.49480260  0.13194791  1
  O  O217  1  0.24445309  0.49372742  0.63093436  1
  O  O218  1  0.24804062  0.99101782  0.13284744  1
  O  O219  1  0.24227423  0.99713520  0.63292925  1
  O  O220  1  0.74948164  0.50061215  0.13866358  1
  O  O221  1  0.74431288  0.49502045  0.63075515  1
  O  O222  1  0.74446475  0.99701052  0.13099948  1
  O  O223  1  0.74748634  0.99876520  0.63687383  1
  O  O224  1  0.00105679  0.36588356  0.25217424  1
  O  O225  1  0.00619894  0.36855623  0.75390305  1
  O  O226  1  0.00575225  0.87093740  0.25475586  1
  O  O227  1  0.00448207  0.87057933  0.75680987  1
  O  O228  1  0.50507547  0.36991083  0.25598073  1
  O  O229  1  0.50479638  0.36632391  0.75010875  1
  O  O230  1  0.50387915  0.86889790  0.25308678  1
  O  O231  1  0.50706606  0.87180878  0.75390565  1
  O  O232  1  0.49494150  0.13012544  0.24538076  1
  O  O233  1  0.49455348  0.13291458  0.75043306  1
  O  O234  1  0.50239227  0.63360886  0.24225673  1
  O  O235  1  0.49563862  0.62957855  0.74566255  1
  O  O236  1  0.99358289  0.12998715  0.24393460  1
  O  O237  1  0.99436509  0.12965745  0.74507661  1
  O  O238  1  0.99543267  0.63178575  0.24542086  1
  O  O239  1  0.99612881  0.63015292  0.74333089  1
  O  O240  1  0.36853128  0.25488059  0.00671308  1
  O  O241  1  0.37388348  0.25783774  0.50121936  1
  O  O242  1  0.36158663  0.75145081  0.00123031  1
  O  O243  1  0.37096713  0.75914293  0.49998972  1
  O  O244  1  0.86941019  0.25491522  0.00447883  1
  O  O245  1  0.86900498  0.25648433  0.50605166  1
  O  O246  1  0.87385273  0.75323886  0.00940748  1
  O  O247  1  0.87446375  0.75757544  0.50530053  1
  O  O248  1  0.12483970  0.24263954  0.49174148  1
  O  O249  1  0.12960116  0.24449401  0.99394945  1
  O  O250  1  0.13077514  0.74573822  0.49348475  1
  O  O251  1  0.13659068  0.74239237  0.99968122  1
  O  O252  1  0.62965526  0.24668626  0.49478475  1
  O  O253  1  0.63113074  0.24333863  1.00062097  1
  O  O254  1  0.62743957  0.74225369  0.49758972  1
  O  O255  1  0.62761859  0.73941290  0.99811147  1
  O  O256  1  0.49394513  0.24331379  0.13239356  1
  O  O257  1  0.49679111  0.24829021  0.63783784  1
  O  O258  1  0.49901976  0.74323004  0.13322280  1
  O  O259  1  0.49803558  0.74230136  0.63231806  1
  O  O260  1  0.99382244  0.24374403  0.12975940  1
  O  O261  1  0.99491004  0.24361660  0.63105891  1
  O  O262  1  0.99634343  0.74536353  0.13121041  1
  O  O263  1  0.99505369  0.74407285  0.62971632  1
  O  O264  1  0.00891474  0.25019786  0.36932734  1
  O  O265  1  0.00502224  0.25494508  0.86861834  1
  O  O266  1  0.00606077  0.75638326  0.36878564  1
  O  O267  1  0.00193535  0.75847020  0.86843654  1
  O  O268  1  0.50589241  0.25626777  0.36960013  1
  O  O269  1  0.50167562  0.25241583  0.86345816  1
  O  O270  1  0.50230424  0.75515910  0.36496059  1
  O  O271  1  0.50191882  0.75776768  0.86767442  1
  O  O272  1  0.24179671  0.12430508  0.49730326  1
  O  O273  1  0.24435801  0.12941738  0.99544543  1
  O  O274  1  0.24556354  0.63045431  0.49423645  1
  O  O275  1  0.24602851  0.63133475  0.99683744  1
  O  O276  1  0.74509807  0.13094829  0.49424431  1
  O  O277  1  0.74488788  0.12986630  0.99475246  1
  O  O278  1  0.74555371  0.62438073  0.49016406  1
  O  O279  1  0.73941860  0.62738031  1.00044508  1
  O  O280  1  0.25644176  0.36766643  0.00687355  1
  O  O281  1  0.25744731  0.37335647  0.50672855  1
  O  O282  1  0.24748482  0.86673014  0.00734400  1
  O  O283  1  0.25956073  0.87048811  0.49904843  1
  O  O284  1  0.75660553  0.36889648  0.00059761  1
  O  O285  1  0.75692856  0.37038969  0.50570242  1
  O  O286  1  0.75134897  0.87553846  0.00806401  1
  O  O287  1  0.75745505  0.87464910  0.50082282  1
  O  O288  1  0.13223718  0.49840002  0.24441124  1
  O  O289  1  0.13142384  0.49353256  0.74392483  1
  O  O290  1  0.13354511  0.99401652  0.24805446  1
  O  O291  1  0.12946224  0.99480997  0.74491831  1
  O  O292  1  0.63523621  0.49517045  0.25016837  1
  O  O293  1  0.63008977  0.49552958  0.74430581  1
  O  O294  1  0.62975479  0.99680081  0.24471426  1
  O  O295  1  0.63209137  0.99320994  0.74889578  1
  O  O296  1  0.36572965  0.00433399  0.24959694  1
  O  O297  1  0.36961898  0.00443266  0.75592199  1
  O  O298  1  0.36874236  0.50078120  0.25764151  1
  O  O299  1  0.36790483  0.50582322  0.75093406  1
  O  O300  1  0.86955658  0.00697327  0.25549170  1
  O  O301  1  0.86492861  0.00606396  0.74997373  1
  O  O302  1  0.86623390  0.50690853  0.25126061  1
  O  O303  1  0.87056739  0.50468412  0.75368342  1
  O  O304  1  0.12267449  0.36287496  0.37549134  1
  O  O305  1  0.12083108  0.36892293  0.86930559  1
  O  O306  1  0.11931621  0.86965849  0.36990054  1
  O  O307  1  0.11361048  0.87300766  0.86818051  1
  O  O308  1  0.62023879  0.37058821  0.37091211  1
  O  O309  1  0.62318807  0.37306730  0.86674027  1
  O  O310  1  0.61854096  0.87418686  0.36676914  1
  O  O311  1  0.61813158  0.87657216  0.86322744  1
  O  O312  1  0.38025090  0.13002147  0.13025888  1
  O  O313  1  0.37758871  0.12604507  0.63461406  1
  O  O314  1  0.38676034  0.62731698  0.12713526  1
  O  O315  1  0.38267985  0.62469534  0.63171591  1
  O  O316  1  0.88002126  0.13110853  0.13045084  1
  O  O317  1  0.87994413  0.13081526  0.62976469  1
  O  O318  1  0.88088218  0.63136239  0.13099402  1
  O  O319  1  0.88187919  0.62980414  0.62949401  1
  O  O320  1  0.25445198  0.25369987  0.12058453  1
  O  O321  1  0.25178587  0.25766339  0.62310995  1
  O  O322  1  0.25030282  0.75652998  0.11823127  1
  O  O323  1  0.25320258  0.75321439  0.61585022  1
  O  O324  1  0.75734145  0.25061296  0.11834226  1
  O  O325  1  0.75481436  0.25571826  0.61986367  1
  O  O326  1  0.75703375  0.75835492  0.12606896  1
  O  O327  1  0.75948252  0.75275114  0.62263332  1
  O  O328  1  0.23769332  0.24700098  0.37571964  1
  O  O329  1  0.24356046  0.24313601  0.88070787  1
  O  O330  1  0.24527550  0.74525604  0.37930814  1
  O  O331  1  0.24755314  0.74393127  0.88433125  1
  O  O332  1  0.74435849  0.24526577  0.38047924  1
  O  O333  1  0.74824508  0.24352130  0.88134871  1
  O  O334  1  0.74815329  0.73820392  0.37372076  1
  O  O335  1  0.74661928  0.74609731  0.87748804  1
  O  O336  1  0.00403311  0.12026648  0.00366163  1
  O  O337  1  0.00416089  0.11908099  0.50635201  1
  O  O338  1  0.00754454  0.62441744  0.00745074  1
  O  O339  1  0.00801163  0.62554079  0.50614263  1
  O  O340  1  0.50433771  0.12019913  0.00630376  1
  O  O341  1  0.50421735  0.11580755  0.49797955  1
  O  O342  1  0.50717062  0.62676744  0.00921270  1
  O  O343  1  0.50562987  0.61890066  0.50495254  1
  O  O344  1  0.49629539  0.38108726  0.49465187  1
  O  O345  1  0.48771799  0.37293301  1.00323973  1
  O  O346  1  0.49437637  0.88110106  0.49533967  1
  O  O347  1  0.49963994  0.88161750  0.99434897  1
  O  O348  1  0.98776075  0.37445139  0.50192238  1
  O  O349  1  0.99313867  0.37548929  0.99188844  1
  O  O350  1  0.99516282  0.88150214  0.49277406  1
  O  O351  1  1.00145550  0.87951799  0.99057896  1
  O  O352  1  0.49635990  0.49533014  0.38007840  1
  O  O353  1  0.49328494  0.49436734  0.88130810  1
  O  O354  1  0.49815455  0.99373165  0.38469605  1
  O  O355  1  0.49444932  0.99545674  0.88044832  1
  O  O356  1  0.99652390  0.49662866  0.37958986  1
  O  O357  1  0.99442793  0.49250847  0.87490681  1
  O  O358  1  0.99467345  0.99585756  0.37905524  1
  O  O359  1  0.99837555  0.99058374  0.87939300  1
  O  O360  1  0.00163940  0.00660961  0.11890248  1
  O  O361  1  0.00458722  0.00549841  0.61960106  1
  O  O362  1  0.00617836  0.50737727  0.12467983  1
  O  O363  1  0.00833524  0.50668668  0.62341556  1
  O  O364  1  0.50474324  0.00500976  0.12052141  1
  O  O365  1  0.50148601  0.00085522  0.61115048  1
  O  O366  1  0.50214529  0.51187297  0.12505667  1
  O  O367  1  0.50627384  0.50506201  0.61962276  1
  O  O368  1  0.24809679  0.38118575  0.24384616  1
  O  O369  1  0.24487765  0.37896841  0.74538801  1
  O  O370  1  0.24645107  0.88001878  0.24279496  1
  O  O371  1  0.24321194  0.88087279  0.75013100  1
  O  O372  1  0.74590887  0.38525960  0.25164061  1
  O  O373  1  0.74505070  0.38053857  0.74383088  1
  O  O374  1  0.74445388  0.88263828  0.24513467  1
  O  O375  1  0.74195683  0.88424545  0.75052223  1
  O  O376  1  0.25439968  0.11423540  0.24719690  1
  O  O377  1  0.25386840  0.11876138  0.75726133  1
  O  O378  1  0.25256638  0.61906077  0.25685415  1
  O  O379  1  0.25475928  0.61952847  0.75481219  1
  O  O380  1  0.75478714  0.12087400  0.25559479  1
  O  O381  1  0.75258456  0.11860380  0.75338812  1
  O  O382  1  0.75363201  0.61935399  0.25644201  1
  O  O383  1  0.75801469  0.61785328  0.74947515  1
  O  O384  1  0.37114638  0.12225627  0.36575941  1
  O  O385  1  0.36816593  0.11866849  0.87046834  1
  O  O386  1  0.36950485  0.61773624  0.37413616  1
  O  O387  1  0.36745201  0.62310121  0.86866671  1
  O  O388  1  0.86963372  0.12107973  0.37001145  1
  O  O389  1  0.86757201  0.12369892  0.86644421  1
  O  O390  1  0.86631534  0.62557540  0.36877082  1
  O  O391  1  0.87725009  0.61847476  0.86700836  1
  O  O392  1  0.13108163  0.38039660  0.12609272  1
  O  O393  1  0.13048482  0.37944567  0.63052661  1
  O  O394  1  0.13564728  0.87505724  0.13083356  1
  O  O395  1  0.12438990  0.88218857  0.63097722  1
  O  O396  1  0.62864579  0.37743843  0.13449019  1
  O  O397  1  0.63072051  0.38143677  0.63026927  1
  O  O398  1  0.62998084  0.88231793  0.13064050  1
  O  O399  1  0.62599599  0.87812838  0.63788111  1
  O  O400  1  0.11834012  0.24952972  0.25935099  1
  O  O401  1  0.11937173  0.25437398  0.75535704  1
  O  O402  1  0.12036327  0.75545157  0.25578066  1
  O  O403  1  0.11834005  0.75594912  0.75021429  1
  O  O404  1  0.61986963  0.25529868  0.25624725  1
  O  O405  1  0.61587693  0.25622622  0.75061756  1
  O  O406  1  0.61426093  0.75710054  0.24990879  1
  O  O407  1  0.61929744  0.75977394  0.75065344  1
  O  O408  1  0.38012901  0.24511157  0.24543128  1
  O  O409  1  0.38311847  0.24348930  0.75075330  1
  O  O410  1  0.38844825  0.74878118  0.24826815  1
  O  O411  1  0.38148414  0.74309186  0.74810164  1
  O  O412  1  0.87891338  0.24465287  0.24525240  1
  O  O413  1  0.87973481  0.24514093  0.74414402  1
  O  O414  1  0.88174694  0.74556834  0.24428582  1
  O  O415  1  0.88204830  0.74449325  0.74283727  1
  O  O416  1  0.38184080  0.49435502  0.49408613  1
  O  O417  1  0.37431887  0.48620855  1.00225360  1
  O  O418  1  0.38241519  0.99194458  0.49841786  1
  O  O419  1  0.38129986  0.99876507  0.99365957  1
  O  O420  1  0.87577326  0.48815806  0.50049120  1
  O  O421  1  0.87690104  0.49410355  0.99319526  1
  O  O422  1  0.88074705  0.99660022  0.49391064  1
  O  O423  1  0.88327707  0.99699969  0.99603214  1
  O  O424  1  0.11798154  0.00727766  0.00131056  1
  O  O425  1  0.11851947  0.00404752  0.50430741  1
  O  O426  1  0.12425749  0.50548902  0.00801112  1
  O  O427  1  0.12583507  0.50708588  0.50663887  1
  O  O428  1  0.61887850  0.00644688  0.00618166  1
  O  O429  1  0.61572058  0.00547235  0.49895640  1
  O  O430  1  0.62338540  0.51047499  0.00384271  1
  O  O431  1  0.62033160  0.50501246  0.50596113  1
  O  O432  1  0.36870466  0.36807596  0.11927388  1
  O  O433  1  0.36847691  0.37435391  0.61790278  1
  O  O434  1  0.36146192  0.87233972  0.12190742  1
  O  O435  1  0.37430355  0.87343441  0.61171575  1
  O  O436  1  0.87332773  0.36818373  0.11755048  1
  O  O437  1  0.86940664  0.36938534  0.61896533  1
  O  O438  1  0.86883789  0.86922414  0.12558876  1
  O  O439  1  0.87499144  0.86898788  0.61775811  1
  O  O440  1  0.12497914  0.13343797  0.38095917  1
  O  O441  1  0.12943412  0.13035606  0.88000545  1
  O  O442  1  0.13172085  0.63149515  0.38022090  1
  O  O443  1  0.13198205  0.62548168  0.88162914  1
  O  O444  1  0.63054631  0.13191339  0.38004804  1
  O  O445  1  0.63135146  0.12694528  0.88301825  1
  O  O446  1  0.63494026  0.62594062  0.38102883  1
  O  O447  1  0.62580686  0.62561883  0.88629274  1
