# generated using pymatgen
data_V3Zn3O8
_symmetry_space_group_name_H-M   'P 1'
_cell_length_a   17.08386534
_cell_length_b   17.08519024
_cell_length_c   17.08477704
_cell_angle_alpha   89.99879021
_cell_angle_beta   89.99713775
_cell_angle_gamma   89.99443756
_symmetry_Int_Tables_number   1
_chemical_formula_structural   V3Zn3O8
_chemical_formula_sum   'V96 Zn96 O256'
_cell_volume   4986.72330460
_cell_formula_units_Z   32
loop_
 _symmetry_equiv_pos_site_id
 _symmetry_equiv_pos_as_xyz
  1  'x, y, z'
loop_
 _atom_site_type_symbol
 _atom_site_label
 _atom_site_symmetry_multiplicity
 _atom_site_fract_x
 _atom_site_fract_y
 _atom_site_fract_z
 _atom_site_occupancy
  V  V0  1  0.24941896  -0.00007650  0.24960963  1
  V  V1  1  0.00063266  -0.00097809  0.50097627  1
  V  V2  1  0.74938143  0.49907659  0.74930634  1
  V  V3  1  0.74973369  0.12518005  0.87450330  1
  V  V4  1  0.25081130  0.24839080  0.50076252  1
  V  V5  1  0.74898806  0.24886739  0.49970610  1
  V  V6  1  0.74908736  0.25055771  -0.00027878  1
  V  V7  1  -0.00025649  0.37503670  0.87373162  1
  V  V8  1  0.24893109  0.25115423  -0.00080225  1
  V  V9  1  0.87570225  0.37420214  0.49963909  1
  V  V10  1  0.75052588  0.62640303  0.87532788  1
  V  V11  1  0.87528572  0.62581066  0.75045851  1
  V  V12  1  0.12553251  0.62488474  0.00125376  1
  V  V13  1  0.74907875  0.37492939  0.62645265  1
  V  V14  1  0.25035343  0.00007769  0.74994115  1
  V  V15  1  0.49856008  0.50010581  0.50042318  1
  V  V16  1  0.12570285  0.87509702  0.75073966  1
  V  V17  1  0.12506636  0.12352760  0.49954165  1
  V  V18  1  0.50046822  0.87663340  0.87476622  1
  V  V19  1  0.00083088  0.75098080  0.75135954  1
  V  V20  1  0.12417032  0.62289544  0.50066632  1
  V  V21  1  0.62623779  0.24853076  0.37570713  1
  V  V22  1  0.37413411  0.50035295  0.37450500  1
  V  V23  1  0.12537823  0.75107315  0.87577938  1
  V  V24  1  -0.00066692  0.12515955  0.12432177  1
  V  V25  1  0.62500590  0.50066096  0.12548655  1
  V  V26  1  0.50045862  0.50101877  0.00076149  1
  V  V27  1  0.37567952  0.00045884  0.87513036  1
  V  V28  1  0.87571530  0.49990745  0.87533365  1
  V  V29  1  0.37513438  0.62657588  0.75056942  1
  V  V30  1  0.62655559  0.75139379  0.87481103  1
  V  V31  1  0.12500283  0.87496607  0.24932985  1
  V  V32  1  0.75017622  0.87397674  0.12669748  1
  V  V33  1  0.87558642  0.87330803  0.49982522  1
  V  V34  1  0.50061899  0.12524015  0.12480776  1
  V  V35  1  0.62376978  0.12644571  0.00068083  1
  V  V36  1  0.75050015  0.75033311  -0.00043082  1
  V  V37  1  0.62470400  0.74883721  0.37560194  1
  V  V38  1  0.50031486  0.00113498  0.49900863  1
  V  V39  1  0.37541066  0.75116508  0.62465384  1
  V  V40  1  0.12394582  0.25049593  0.87411740  1
  V  V41  1  0.37372027  0.12385961  0.24992943  1
  V  V42  1  0.25159566  0.75068928  0.00062064  1
  V  V43  1  0.62513277  -0.00065257  0.12604731  1
  V  V44  1  0.87548526  0.49725614  0.37536341  1
  V  V45  1  0.49904089  0.25370589  0.75008485  1
  V  V46  1  0.24847392  0.50058853  0.74858379  1
  V  V47  1  0.50142445  0.62522285  0.12522060  1
  V  V48  1  -0.00018398  -0.00063502  -0.00012313  1
  V  V49  1  0.62457339  0.37431596  0.25025143  1
  V  V50  1  0.00043994  0.37402940  0.37525129  1
  V  V51  1  0.37460391  0.62494087  0.25067100  1
  V  V52  1  0.87442382  -0.00123231  0.37454215  1
  V  V53  1  0.87409284  0.00112085  0.87593135  1
  V  V54  1  0.25163167  0.62624281  0.87509704  1
  V  V55  1  0.87556305  0.62433237  0.24958188  1
  V  V56  1  0.87510569  0.74990949  0.62546520  1
  V  V57  1  0.74996092  0.87503795  0.62512612  1
  V  V58  1  0.12488829  -0.00059808  0.12512533  1
  V  V59  1  0.87468544  0.24819330  0.62487419  1
  V  V60  1  0.62519677  0.00193538  0.62450747  1
  V  V61  1  -0.00043227  0.74825600  0.24922240  1
  V  V62  1  0.37510073  0.87517876  0.49955961  1
  V  V63  1  0.87375557  0.12329596  0.25061588  1
  V  V64  1  0.50046543  0.75087864  0.74950323  1
  V  V65  1  0.24950288  0.75070783  0.49946279  1
  V  V66  1  0.87535323  0.37567995  -0.00079855  1
  V  V67  1  -0.00025140  0.87364959  0.37514792  1
  V  V68  1  0.37591405  0.75129037  0.12479140  1
  V  V69  1  0.62387524  0.25214151  0.87460542  1
  V  V70  1  0.12503475  0.37419384  0.25007757  1
  V  V71  1  0.12460171  0.50080468  0.12389839  1
  V  V72  1  0.87530000  0.24962720  0.12482015  1
  V  V73  1  0.50008544  0.62509870  0.62471951  1
  V  V74  1  0.74973898  0.74758417  0.49972249  1
  V  V75  1  -0.00074900  0.12424427  0.62447323  1
  V  V76  1  0.25068187  0.50011684  0.25023112  1
  V  V77  1  0.75044373  0.37513659  0.12477745  1
  V  V78  1  0.24954000  0.37480998  0.12457901  1
  V  V79  1  0.12525477  0.12544170  -0.00064637  1
  V  V80  1  -0.00022723  0.24886181  0.74917952  1
  V  V81  1  0.62565296  0.87649377  0.74970386  1
  V  V82  1  0.50034184  0.87406845  0.37470042  1
  V  V83  1  0.37491337  0.12708317  0.74925859  1
  V  V84  1  0.37376223  0.37389834  0.49978521  1
  V  V85  1  0.50035825  0.75059253  0.25061929  1
  V  V86  1  0.87570755  0.87503070  0.00061538  1
  V  V87  1  0.24985868  0.87562643  0.62565882  1
  V  V88  1  0.75049476  0.49905183  0.25085760  1
  V  V89  1  0.37587384  0.37646625  -0.00047588  1
  V  V90  1  0.12487177  0.24929763  0.37454448  1
  V  V91  1  0.62436123  0.62379456  0.50062818  1
  V  V92  1  0.37583416  0.87569588  -0.00016305  1
  V  V93  1  0.00008528  0.62408372  0.62509599  1
  V  V94  1  0.12507619  0.74955801  0.37472899  1
  V  V95  1  0.50033400  0.24940879  0.24969806  1
  Zn  Zn96  1  0.50136083  0.37931768  0.87445989  1
  Zn  Zn97  1  0.74969742  0.12119718  0.37632036  1
  Zn  Zn98  1  0.37548421  0.25070809  0.62451765  1
  Zn  Zn99  1  0.49997546  0.37487495  0.37477463  1
  Zn  Zn100  1  0.50080815  0.12920724  0.62248615  1
  Zn  Zn101  1  0.00052715  0.24985613  0.24989049  1
  Zn  Zn102  1  0.12557957  0.37511408  0.74760053  1
  Zn  Zn103  1  0.24714820  0.37518086  0.62629077  1
  Zn  Zn104  1  0.62381930  0.49874548  0.62594306  1
  Zn  Zn105  1  0.75046252  0.00161858  0.75076053  1
  Zn  Zn106  1  0.49868236  0.00150581  -0.00050086  1
  Zn  Zn107  1  0.62584999  0.62530457  0.00013026  1
  Zn  Zn108  1  0.87286447  0.12277426  0.74879035  1
  Zn  Zn109  1  0.12459819  -0.00047132  0.62584398  1
  Zn  Zn110  1  0.74910945  0.62266699  0.37630549  1
  Zn  Zn111  1  0.74919858  -0.00301128  0.25346273  1
  Zn  Zn112  1  0.62567361  0.12500788  0.49864708  1
  Zn  Zn113  1  0.00031924  0.87588846  0.87582626  1
  Zn  Zn114  1  0.37780860  0.50246159  0.87436048  1
  Zn  Zn115  1  0.25044415  0.87501883  0.12478676  1
  Zn  Zn116  1  0.12251114  0.49684893  0.62611873  1
  Zn  Zn117  1  0.37424410  0.24951190  0.12426679  1
  Zn  Zn118  1  0.24931911  0.12599662  0.87493521  1
  Zn  Zn119  1  0.37373332  -0.00128188  0.37457552  1
  Zn  Zn120  1  0.24939406  0.62532776  0.37453091  1
  Zn  Zn121  1  0.62536519  0.87377985  0.25096682  1
  Zn  Zn122  1  0.62276441  0.37785398  0.74983532  1
  Zn  Zn123  1  -0.00002140  0.62466875  0.12286740  1
  Zn  Zn124  1  0.00035033  0.49785350  0.50211606  1
  Zn  Zn125  1  0.24983844  0.12211376  0.37556452  1
  Zn  Zn126  1  0.87611396  0.74860373  0.12487408  1
  Zn  Zn127  1  0.00050560  0.50130751  0.00002033  1
  Zn  Zn128  1  0.18798984  0.18791539  0.18612400  1
  Zn  Zn129  1  0.18604572  0.18644468  0.68612085  1
  Zn  Zn130  1  0.18870106  0.68724517  0.18661614  1
  Zn  Zn131  1  0.18730911  0.68800989  0.68689007  1
  Zn  Zn132  1  0.68898937  0.18681995  0.18848254  1
  Zn  Zn133  1  0.68626283  0.18747323  0.68869390  1
  Zn  Zn134  1  0.68763233  0.68677061  0.18889238  1
  Zn  Zn135  1  0.68719929  0.68669110  0.68698338  1
  Zn  Zn136  1  0.31194576  0.31080143  0.31371190  1
  Zn  Zn137  1  0.31166269  0.31497456  0.81526667  1
  Zn  Zn138  1  0.31190992  0.81350187  0.31279028  1
  Zn  Zn139  1  0.31283954  0.81348635  0.81331767  1
  Zn  Zn140  1  0.81248079  0.31115381  0.31214583  1
  Zn  Zn141  1  0.81311454  0.31153941  0.81104860  1
  Zn  Zn142  1  0.81151764  0.80999437  0.31336383  1
  Zn  Zn143  1  0.81276261  0.81551082  0.81291445  1
  Zn  Zn144  1  0.18821137  0.43725231  0.43603306  1
  Zn  Zn145  1  0.18754289  0.43862976  0.93495705  1
  Zn  Zn146  1  0.18748376  0.93829529  0.43599767  1
  Zn  Zn147  1  0.18933021  0.93761629  0.93682888  1
  Zn  Zn148  1  0.68777663  0.43670604  0.43854254  1
  Zn  Zn149  1  0.68659670  0.43820503  0.93615657  1
  Zn  Zn150  1  0.68805750  0.93496089  0.43742746  1
  Zn  Zn151  1  0.68803449  0.93874293  0.93959846  1
  Zn  Zn152  1  0.31098884  0.06215248  0.06282984  1
  Zn  Zn153  1  0.31319466  0.06242017  0.56493409  1
  Zn  Zn154  1  0.31284535  0.56292448  0.06364167  1
  Zn  Zn155  1  0.31165905  0.56330400  0.56339046  1
  Zn  Zn156  1  0.81085720  0.06197307  0.06219805  1
  Zn  Zn157  1  0.81200371  0.06306371  0.56005119  1
  Zn  Zn158  1  0.81213164  0.56217489  0.06220651  1
  Zn  Zn159  1  0.81261828  0.56061261  0.56288455  1
  Zn  Zn160  1  0.43799444  0.43678837  0.18700012  1
  Zn  Zn161  1  0.43344002  0.43860391  0.68524382  1
  Zn  Zn162  1  0.43810733  0.93756365  0.18717523  1
  Zn  Zn163  1  0.43779185  0.93891912  0.68723185  1
  Zn  Zn164  1  0.94034149  0.43767739  0.18697659  1
  Zn  Zn165  1  0.93712828  0.43704120  0.68738366  1
  Zn  Zn166  1  0.93778440  0.93729567  0.18736531  1
  Zn  Zn167  1  0.93742262  0.93855350  0.68934937  1
  Zn  Zn168  1  0.06143277  0.06218648  0.31341202  1
  Zn  Zn169  1  0.06166480  0.06298818  0.81223558  1
  Zn  Zn170  1  0.06139064  0.56053957  0.31288281  1
  Zn  Zn171  1  0.06343004  0.56365589  0.81432739  1
  Zn  Zn172  1  0.56233549  0.06244500  0.31153659  1
  Zn  Zn173  1  0.56154821  0.06502506  0.81225791  1
  Zn  Zn174  1  0.56134032  0.56234614  0.31421617  1
  Zn  Zn175  1  0.56412978  0.56282323  0.81321254  1
  Zn  Zn176  1  0.43892291  0.18619123  0.43425907  1
  Zn  Zn177  1  0.43715360  0.18929698  0.93622578  1
  Zn  Zn178  1  0.43718476  0.68689392  0.43684009  1
  Zn  Zn179  1  0.43926331  0.68801378  0.93771249  1
  Zn  Zn180  1  0.93841944  0.18713606  0.43710670  1
  Zn  Zn181  1  0.93719018  0.18732368  0.93677176  1
  Zn  Zn182  1  0.93811060  0.68565459  0.43607070  1
  Zn  Zn183  1  0.93871185  0.68820716  0.93874831  1
  Zn  Zn184  1  0.06119642  0.31296026  0.06166778  1
  Zn  Zn185  1  0.06390661  0.31264837  0.56393768  1
  Zn  Zn186  1  0.06173996  0.81143854  0.06415125  1
  Zn  Zn187  1  0.06311666  0.81148613  0.56450971  1
  Zn  Zn188  1  0.56107823  0.31291452  0.06371812  1
  Zn  Zn189  1  0.56227495  0.31456761  0.56376233  1
  Zn  Zn190  1  0.56248196  0.81257594  0.06073796  1
  Zn  Zn191  1  0.56315852  0.81309165  0.56160209  1
  O  O192  1  0.11864268  0.11963109  0.11968540  1
  O  O193  1  0.11747857  0.12249292  0.61693066  1
  O  O194  1  0.12573813  0.61828080  0.11877471  1
  O  O195  1  0.11888365  0.62722027  0.61481954  1
  O  O196  1  0.62186269  0.11782356  0.12118510  1
  O  O197  1  0.62271567  0.11321888  0.62249412  1
  O  O198  1  0.61923270  0.61825046  0.12471033  1
  O  O199  1  0.61724581  0.62457469  0.61851137  1
  O  O200  1  0.37588065  0.38004728  0.38479691  1
  O  O201  1  0.37620984  0.37885354  0.88986123  1
  O  O202  1  0.38227405  0.87605010  0.38200222  1
  O  O203  1  0.38148788  0.88029171  0.87944778  1
  O  O204  1  0.88014758  0.37770796  0.37932918  1
  O  O205  1  0.87924847  0.37985512  0.88030844  1
  O  O206  1  0.88075378  0.87798707  0.38035223  1
  O  O207  1  0.87584395  0.88285801  0.88312512  1
  O  O208  1  0.25278625  0.00237871  0.36580731  1
  O  O209  1  0.25806527  0.00216178  0.86742286  1
  O  O210  1  0.25647757  0.50158543  0.36744796  1
  O  O211  1  0.25277733  0.50835623  0.86562656  1
  O  O212  1  0.75771288  0.00005881  0.37329520  1
  O  O213  1  0.75592912  0.00716411  0.87624398  1
  O  O214  1  0.75685856  0.49891170  0.36797973  1
  O  O215  1  0.75599950  0.50629205  0.86972417  1
  O  O216  1  0.24476109  0.49419687  0.13114947  1
  O  O217  1  0.24819993  0.50225016  0.63746863  1
  O  O218  1  0.24181423  0.99788713  0.13157328  1
  O  O219  1  0.24942554  0.99256845  0.63212623  1
  O  O220  1  0.74488520  0.49400335  0.13088147  1
  O  O221  1  0.75041617  0.49299315  0.63224231  1
  O  O222  1  0.74155316  0.99065944  0.12470656  1
  O  O223  1  0.73977203  0.99375717  0.62302329  1
  O  O224  1  0.00721864  0.37246033  0.25640756  1
  O  O225  1  -0.00035873  0.36692248  0.75649638  1
  O  O226  1  0.00453345  0.86905680  0.25617207  1
  O  O227  1  0.00689225  0.86809795  0.75132167  1
  O  O228  1  0.50662407  0.36797715  0.25090433  1
  O  O229  1  0.49618630  0.36535366  0.75139206  1
  O  O230  1  0.50118016  0.86813690  0.25648999  1
  O  O231  1  0.50540366  0.86992519  0.75461902  1
  O  O232  1  0.49252416  0.12896218  0.24445453  1
  O  O233  1  0.49084393  0.13509569  0.74967921  1
  O  O234  1  0.49401025  0.63059303  0.24485103  1
  O  O235  1  0.49506024  0.63188469  0.74489800  1
  O  O236  1  0.98943664  0.12513250  0.24354106  1
  O  O237  1  0.99799423  0.13077438  0.74220077  1
  O  O238  1  0.99069909  0.62891664  0.24985419  1
  O  O239  1  0.99462192  0.63161205  0.74557557  1
  O  O240  1  0.36916814  0.25940457  0.00148154  1
  O  O241  1  0.36816757  0.25621575  0.49747486  1
  O  O242  1  0.37127522  0.75562722  0.00509128  1
  O  O243  1  0.36990701  0.75524520  0.50537200  1
  O  O244  1  0.86845825  0.25525952  0.00532866  1
  O  O245  1  0.86933100  0.25481697  0.50443430  1
  O  O246  1  0.86823351  0.75637020  0.00224372  1
  O  O247  1  0.87072655  0.75407610  0.50545082  1
  O  O248  1  0.13317330  0.24422569  0.49436834  1
  O  O249  1  0.12877101  0.24485538  0.99453013  1
  O  O250  1  0.12929345  0.74270874  0.49497257  1
  O  O251  1  0.13209244  0.74577900  0.99565084  1
  O  O252  1  0.62851559  0.24988891  0.49064094  1
  O  O253  1  0.63009507  0.24590736  0.99608841  1
  O  O254  1  0.62968486  0.74417235  0.49556220  1
  O  O255  1  0.63216100  0.74970982  0.99210514  1
  O  O256  1  0.49949058  0.24235690  0.13250355  1
  O  O257  1  0.49739347  0.24871079  0.63558735  1
  O  O258  1  0.49585504  0.74527677  0.13030520  1
  O  O259  1  0.49485455  0.74612920  0.63005671  1
  O  O260  1  0.99281404  0.24304297  0.12568165  1
  O  O261  1  0.99401735  0.24378871  0.62877903  1
  O  O262  1  0.99661435  0.74686037  0.13432011  1
  O  O263  1  0.99362732  0.74481363  0.63114396  1
  O  O264  1  0.00726840  0.25627653  0.37348987  1
  O  O265  1  0.00408055  0.25461404  0.86943181  1
  O  O266  1  0.00517314  0.75527340  0.36962098  1
  O  O267  1  0.00743946  0.75184673  0.86853269  1
  O  O268  1  0.51071765  0.25079952  0.36857050  1
  O  O269  1  0.50476490  0.25275918  0.86577506  1
  O  O270  1  0.50477884  0.75471140  0.37061043  1
  O  O271  1  0.50622961  0.75648846  0.86844700  1
  O  O272  1  0.24624712  0.13212513  0.49876705  1
  O  O273  1  0.24306823  0.13227513  0.99906377  1
  O  O274  1  0.24054222  0.63211495  0.49928348  1
  O  O275  1  0.24667217  0.63154238  0.99507437  1
  O  O276  1  0.74669532  0.13320175  0.49596117  1
  O  O277  1  0.74346488  0.13202106  0.99583758  1
  O  O278  1  0.74379451  0.63057040  0.49964612  1
  O  O279  1  0.74941196  0.63207799  0.99334835  1
  O  O280  1  0.25715772  0.37197846  0.00490828  1
  O  O281  1  0.25777434  0.36577392  0.49833862  1
  O  O282  1  0.25795523  0.86823773  0.00094301  1
  O  O283  1  0.25484515  0.87038126  0.50518241  1
  O  O284  1  0.75536518  0.37005461  0.00576138  1
  O  O285  1  0.75592198  0.36840274  0.50603636  1
  O  O286  1  0.75484289  0.87037064  0.00856738  1
  O  O287  1  0.75641204  0.86745561  0.50587646  1
  O  O288  1  0.13128283  0.49401444  0.24531926  1
  O  O289  1  0.13660136  0.50167752  0.74968588  1
  O  O290  1  0.12865714  0.99500110  0.24495783  1
  O  O291  1  0.13210852  0.99371710  0.74935314  1
  O  O292  1  0.63003612  0.49425409  0.24592815  1
  O  O293  1  0.63341142  0.49898356  0.74735277  1
  O  O294  1  0.62727254  0.99811312  0.23804097  1
  O  O295  1  0.62427061  0.99521132  0.73959498  1
  O  O296  1  0.36970662  0.00840849  0.24927021  1
  O  O297  1  0.37161192  0.00789889  0.75464008  1
  O  O298  1  0.37050337  0.50475529  0.25434405  1
  O  O299  1  0.36661690  0.50850000  0.75141891  1
  O  O300  1  0.87478298  0.00767303  0.25535378  1
  O  O301  1  0.87157160  0.00208671  0.75944125  1
  O  O302  1  0.87046892  0.50529561  0.25488142  1
  O  O303  1  0.86947643  0.50686676  0.75595286  1
  O  O304  1  0.12041772  0.36942184  0.36968056  1
  O  O305  1  0.11766472  0.36818149  0.87329860  1
  O  O306  1  0.11850888  0.86894382  0.36967265  1
  O  O307  1  0.12455081  0.86824549  0.86885521  1
  O  O308  1  0.62413852  0.36454576  0.36880418  1
  O  O309  1  0.62231753  0.36725055  0.87203172  1
  O  O310  1  0.61842753  0.86702777  0.37402582  1
  O  O311  1  0.62096196  0.87153204  0.86950336  1
  O  O312  1  0.38075655  0.12544440  0.13459868  1
  O  O313  1  0.37865581  0.12645643  0.63798483  1
  O  O314  1  0.38161094  0.63123000  0.13102918  1
  O  O315  1  0.38039846  0.63284405  0.62980283  1
  O  O316  1  0.87915647  0.12874920  0.13133588  1
  O  O317  1  0.88133222  0.13060991  0.62411222  1
  O  O318  1  0.87555116  0.62492591  0.13815055  1
  O  O319  1  0.87980941  0.63131986  0.63063788  1
  O  O320  1  0.25037627  0.25765325  0.11704825  1
  O  O321  1  0.25205900  0.25053052  0.61113393  1
  O  O322  1  0.25826647  0.75172149  0.11858669  1
  O  O323  1  0.25644634  0.75605718  0.61975605  1
  O  O324  1  0.75489005  0.25564104  0.11920357  1
  O  O325  1  0.75449751  0.25441594  0.61979682  1
  O  O326  1  0.74922832  0.75988096  0.11954422  1
  O  O327  1  0.75555591  0.75525255  0.61992094  1
  O  O328  1  0.24433220  0.24700922  0.38554450  1
  O  O329  1  0.24220009  0.24954184  0.88202490  1
  O  O330  1  0.24301134  0.74936503  0.38174580  1
  O  O331  1  0.24569257  0.74542636  0.88058821  1
  O  O332  1  0.74036817  0.24982381  0.38028373  1
  O  O333  1  0.74444254  0.24542483  0.88097155  1
  O  O334  1  0.74318544  0.74753831  0.38272444  1
  O  O335  1  0.74578236  0.74646872  0.87943172  1
  O  O336  1  0.00494899  0.11977844  0.00570070  1
  O  O337  1  0.00484662  0.11868075  0.50474205  1
  O  O338  1  0.00912776  0.62304536  0.00194043  1
  O  O339  1  0.00916364  0.62515798  0.50545518  1
  O  O340  1  0.50582359  0.12547084  0.00667068  1
  O  O341  1  0.50117987  0.11326233  0.50111175  1
  O  O342  1  0.50200857  0.61979218  0.00778834  1
  O  O343  1  0.50363691  0.62042578  0.50595321  1
  O  O344  1  0.48909440  0.38011575  0.49857337  1
  O  O345  1  0.49051739  0.38124033  1.00235659  1
  O  O346  1  0.49466669  0.88188216  0.49544768  1
  O  O347  1  0.49374114  0.87646773  0.99218948  1
  O  O348  1  0.99320101  0.37501071  0.49330161  1
  O  O349  1  0.99210048  0.37583953  0.99219155  1
  O  O350  1  0.99486805  0.87779990  0.49508732  1
  O  O351  1  0.99356421  0.88165059  1.00025548  1
  O  O352  1  0.49196703  0.49770371  0.38206222  1
  O  O353  1  0.49797086  0.49965850  0.88406345  1
  O  O354  1  0.50124327  0.99380857  0.38485878  1
  O  O355  1  0.49426821  0.99423338  0.87559878  1
  O  O356  1  0.99334267  0.49136920  0.37725469  1
  O  O357  1  0.99270248  0.49383305  0.87531673  1
  O  O358  1  0.99459143  0.99239354  0.38118629  1
  O  O359  1  0.99264529  0.99910315  0.88270980  1
  O  O360  1  0.00508422  0.00541481  0.11906439  1
  O  O361  1  0.00042555  0.00531350  0.61769259  1
  O  O362  1  0.00950583  0.50187417  0.12175996  1
  O  O363  1  0.00071329  0.50913381  0.62323344  1
  O  O364  1  0.51040962  0.00554659  0.12372649  1
  O  O365  1  0.50924365  -0.00160480  0.61561343  1
  O  O366  1  0.50584339  0.50592816  0.12121064  1
  O  O367  1  0.49884564  0.50777964  0.61816772  1
  O  O368  1  0.24539853  0.37973461  0.24479939  1
  O  O369  1  0.25079495  0.38737435  0.74927506  1
  O  O370  1  0.24277376  0.88129903  0.24826618  1
  O  O371  1  0.24603133  0.87958488  0.74468803  1
  O  O372  1  0.74525306  0.37938587  0.24363126  1
  O  O373  1  0.75034421  0.38121991  0.74345845  1
  O  O374  1  0.74845776  0.87467484  0.23866488  1
  O  O375  1  0.74315114  0.87715472  0.74264220  1
  O  O376  1  0.25873601  0.11960697  0.24917531  1
  O  O377  1  0.25963092  0.12043260  0.75045028  1
  O  O378  1  0.25717453  0.61840744  0.25110365  1
  O  O379  1  0.25573517  0.62123866  0.75505004  1
  O  O380  1  0.76312452  0.12141893  0.25041295  1
  O  O381  1  0.75088470  0.12276049  0.75901546  1
  O  O382  1  0.75920247  0.61816568  0.25208337  1
  O  O383  1  0.75665112  0.62127114  0.75508126  1
  O  O384  1  0.37492354  0.12192156  0.36057719  1
  O  O385  1  0.37392040  0.11998655  0.86451686  1
  O  O386  1  0.37305801  0.61895011  0.36837261  1
  O  O387  1  0.36930989  0.62690215  0.86821839  1
  O  O388  1  0.87587396  0.11851619  0.36573813  1
  O  O389  1  0.86729598  0.11809713  0.87612112  1
  O  O390  1  0.87408134  0.61773590  0.36491994  1
  O  O391  1  0.86991630  0.62090904  0.86929713  1
  O  O392  1  0.13032953  0.38010084  0.12976810  1
  O  O393  1  0.12935525  0.37937311  0.62863196  1
  O  O394  1  0.12570562  0.88174089  0.13225414  1
  O  O395  1  0.13245709  0.87494342  0.63210105  1
  O  O396  1  0.63125177  0.38017695  0.13084252  1
  O  O397  1  0.63376714  0.37795844  0.62787212  1
  O  O398  1  0.63286692  0.88307025  0.12411379  1
  O  O399  1  0.62973635  0.88267096  0.62925395  1
  O  O400  1  0.12495764  0.25607431  0.25619197  1
  O  O401  1  0.11843728  0.25024639  0.75630040  1
  O  O402  1  0.12023951  0.75419875  0.25531043  1
  O  O403  1  0.12081669  0.75492272  0.75588423  1
  O  O404  1  0.62192958  0.25427937  0.25660865  1
  O  O405  1  0.61376336  0.25088497  0.75556178  1
  O  O406  1  0.61771587  0.75001326  0.25708313  1
  O  O407  1  0.61993352  0.75674546  0.75434091  1
  O  O408  1  0.37991768  0.24086682  0.24845715  1
  O  O409  1  0.38068280  0.24331451  0.75090934  1
  O  O410  1  0.38063546  0.74526219  0.24511616  1
  O  O411  1  0.38095062  0.74677281  0.74402591  1
  O  O412  1  0.87591576  0.24016722  0.24377774  1
  O  O413  1  0.88140207  0.24652120  0.74237600  1
  O  O414  1  0.87997334  0.73934990  0.25089921  1
  O  O415  1  0.87998856  0.74570644  0.74498563  1
  O  O416  1  0.37698432  0.49297924  0.49487752  1
  O  O417  1  0.38099900  0.49212730  1.00115994  1
  O  O418  1  0.38508997  0.99441892  0.50008408  1
  O  O419  1  0.37605306  0.99463398  0.99361983  1
  O  O420  1  0.87573382  0.49237604  0.49300499  1
  O  O421  1  0.87500792  0.49334391  0.99309585  1
  O  O422  1  0.88046838  0.99238110  0.49458424  1
  O  O423  1  0.88011883  0.99521535  0.99586881  1
  O  O424  1  0.12016115  0.00508175  0.00478959  1
  O  O425  1  0.11813571  0.00478897  0.50125161  1
  O  O426  1  0.12647756  0.50723051  0.00581377  1
  O  O427  1  0.12476161  0.51236004  0.50069723  1
  O  O428  1  0.62353156  0.00702093  0.01072092  1
  O  O429  1  0.61655589  -0.00188041  0.50781373  1
  O  O430  1  0.61941585  0.50121182  0.00813629  1
  O  O431  1  0.61717011  0.50553337  0.50101031  1
  O  O432  1  0.36853624  0.37413456  0.11548260  1
  O  O433  1  0.36984346  0.37308054  0.61052986  1
  O  O434  1  0.37521954  0.86858177  0.11817814  1
  O  O435  1  0.37030745  0.86978346  0.61969930  1
  O  O436  1  0.86971993  0.37000677  0.12023688  1
  O  O437  1  0.86971341  0.36759556  0.61890952  1
  O  O438  1  0.86456040  0.87490875  0.12012032  1
  O  O439  1  0.87016286  0.86924809  0.61958952  1
  O  O440  1  0.12560398  0.13101621  0.38153125  1
  O  O441  1  0.12560666  0.13182565  0.88225055  1
  O  O442  1  0.12491638  0.63093416  0.38432905  1
  O  O443  1  0.13217759  0.63225639  0.88110404  1
  O  O444  1  0.62754719  0.13643494  0.37368678  1
  O  O445  1  0.62924988  0.13154474  0.88139994  1
  O  O446  1  0.62569329  0.63096578  0.38251612  1
  O  O447  1  0.63301081  0.63386645  0.87570470  1
