# generated using pymatgen
data_V3Zn3O8
_symmetry_space_group_name_H-M   'P 1'
_cell_length_a   17.08602374
_cell_length_b   17.08714305
_cell_length_c   17.08611697
_cell_angle_alpha   90.01600987
_cell_angle_beta   89.98982036
_cell_angle_gamma   89.99891840
_symmetry_Int_Tables_number   1
_chemical_formula_structural   V3Zn3O8
_chemical_formula_sum   'V96 Zn96 O256'
_cell_volume   4988.31432933
_cell_formula_units_Z   32
loop_
 _symmetry_equiv_pos_site_id
 _symmetry_equiv_pos_as_xyz
  1  'x, y, z'
loop_
 _atom_site_type_symbol
 _atom_site_label
 _atom_site_symmetry_multiplicity
 _atom_site_fract_x
 _atom_site_fract_y
 _atom_site_fract_z
 _atom_site_occupancy
  V  V0  1  0.62513435  0.12434568  0.49840527  1
  V  V1  1  0.49919097  0.49911378  0.49990648  1
  V  V2  1  0.12418759  0.25129930  0.37549876  1
  V  V3  1  0.87383947  0.00029843  0.37295546  1
  V  V4  1  0.87520939  0.37580162  0.00106525  1
  V  V5  1  0.00082155  0.25032220  0.75149403  1
  V  V6  1  0.62536970  0.87460915  0.74874037  1
  V  V7  1  0.87451382  0.62519177  0.25099572  1
  V  V8  1  0.75012387  0.25043520  0.00042137  1
  V  V9  1  0.74813497  0.74833187  0.49848511  1
  V  V10  1  0.24813949  0.74939853  0.50118114  1
  V  V11  1  0.24871105  0.87459403  0.62512933  1
  V  V12  1  0.25095770  0.37528002  0.12588376  1
  V  V13  1  -0.00014156  0.75094010  0.24925180  1
  V  V14  1  0.24979292  0.24970378  0.50183089  1
  V  V15  1  0.62563959  0.24966142  0.87494250  1
  V  V16  1  0.37683146  0.87365646  -0.00088468  1
  V  V17  1  0.37373266  0.62361509  0.75109297  1
  V  V18  1  0.75158884  0.12489312  0.87527175  1
  V  V19  1  0.12390013  0.62537749  0.50043624  1
  V  V20  1  0.24833389  0.37417575  0.62684218  1
  V  V21  1  0.75100326  0.25037298  0.50058265  1
  V  V22  1  0.50086789  0.12441507  0.12425636  1
  V  V23  1  0.62422928  0.25022432  0.37469122  1
  V  V24  1  0.37338053  0.74969763  0.62514535  1
  V  V25  1  0.12503917  0.37486514  0.75163982  1
  V  V26  1  0.12646663  0.74870807  0.87632183  1
  V  V27  1  -0.00163495  0.62536385  0.62547385  1
  V  V28  1  0.12444980  0.74989873  0.37580285  1
  V  V29  1  0.37456388  0.37411586  0.50102387  1
  V  V30  1  0.00041972  0.37534369  0.37524423  1
  V  V31  1  0.00273781  0.00208800  0.00049907  1
  V  V32  1  0.37738210  -0.00152871  0.87516429  1
  V  V33  1  0.75006038  0.12406468  0.37358404  1
  V  V34  1  0.37493381  0.25112727  0.12545473  1
  V  V35  1  0.62339051  0.74852530  0.37504472  1
  V  V36  1  0.62600133  0.74981392  0.87346144  1
  V  V37  1  0.87382198  0.37417879  0.50075881  1
  V  V38  1  0.00058490  0.87642759  0.87385943  1
  V  V39  1  0.00088411  0.37510448  0.87582758  1
  V  V40  1  0.87589121  0.12621943  0.24777983  1
  V  V41  1  0.75041475  0.62487263  0.87368516  1
  V  V42  1  0.87612667  0.25082379  0.12578460  1
  V  V43  1  0.87535063  0.75128111  0.12367684  1
  V  V44  1  0.62464236  0.12425080  0.00143348  1
  V  V45  1  0.12450517  0.49937551  0.62652764  1
  V  V46  1  0.50030106  0.12381247  0.62466390  1
  V  V47  1  0.12377448  0.12485144  0.50079054  1
  V  V48  1  0.49817493  0.87446129  0.37453739  1
  V  V49  1  0.62498111  0.50050464  0.12544811  1
  V  V50  1  0.12533319  0.00140702  0.12378489  1
  V  V51  1  0.49939421  -0.00108870  0.49865404  1
  V  V52  1  0.37498079  0.49953048  0.87420242  1
  V  V53  1  0.24979912  0.00022389  0.25044103  1
  V  V54  1  0.00061278  0.50090781  0.00121213  1
  V  V55  1  0.62525326  -0.00116168  0.62421380  1
  V  V56  1  0.37361353  0.62437774  0.25072932  1
  V  V57  1  0.12499198  0.87543168  0.25006195  1
  V  V58  1  0.37570302  0.37497971  0.00080180  1
  V  V59  1  0.37463384  0.74994021  0.12434703  1
  V  V60  1  0.87612109  0.12540656  0.75033947  1
  V  V61  1  0.12476735  0.50085732  0.12522646  1
  V  V62  1  -0.00008390  0.12555897  0.62540222  1
  V  V63  1  0.87382798  0.50138025  0.37437112  1
  V  V64  1  0.37514343  0.12564408  0.25032441  1
  V  V65  1  0.74973559  0.87584662  0.62335714  1
  V  V66  1  0.87434793  0.62506013  0.74957285  1
  V  V67  1  0.50022248  0.25055797  0.25143665  1
  V  V68  1  0.49901242  0.62412669  0.62494103  1
  V  V69  1  0.25095797  0.50159096  0.25130768  1
  V  V70  1  0.50265025  0.25022045  0.75056978  1
  V  V71  1  0.87556137  0.87552135  -0.00058590  1
  V  V72  1  0.62609493  0.87571576  0.24614709  1
  V  V73  1  0.12463984  0.87581692  0.74884990  1
  V  V74  1  0.50055530  0.62431284  0.12478570  1
  V  V75  1  -0.00137556  0.75043941  0.74846210  1
  V  V76  1  0.74941675  0.37688284  0.12651939  1
  V  V77  1  0.50072946  0.50005395  0.00037448  1
  V  V78  1  0.87436666  0.50081101  0.87497730  1
  V  V79  1  0.25002193  0.12677808  0.87710483  1
  V  V80  1  -0.00164143  0.87623552  0.37454902  1
  V  V81  1  0.12468634  0.00010414  0.62471440  1
  V  V82  1  0.37659718  0.12352868  0.75007410  1
  V  V83  1  0.62686730  0.49733257  0.62706765  1
  V  V84  1  -0.00090193  0.49989244  0.50051789  1
  V  V85  1  0.37480906  -0.00076466  0.37545989  1
  V  V86  1  0.25107858  0.87474351  0.12521369  1
  V  V87  1  0.87632405  0.00138728  0.87490853  1
  V  V88  1  0.75124288  0.75044611  -0.00152077  1
  V  V89  1  0.62433687  0.37557922  0.25082895  1
  V  V90  1  0.50016712  0.75022869  0.74964162  1
  V  V91  1  0.87371834  0.87612125  0.49802572  1
  V  V92  1  0.00092279  0.62550617  0.12415685  1
  V  V93  1  0.24909134  0.12492688  0.37581862  1
  V  V94  1  0.49891708  0.74929271  0.24983931  1
  V  V95  1  0.12514245  0.37579805  0.25136267  1
  Zn  Zn96  1  0.24946960  0.24998328  0.00144212  1
  Zn  Zn97  1  0.37494315  0.24775779  0.62649249  1
  Zn  Zn98  1  0.62607547  0.62532680  -0.00055476  1
  Zn  Zn99  1  0.50257430  0.37512823  0.87488591  1
  Zn  Zn100  1  0.50300570  -0.00101377  0.00135754  1
  Zn  Zn101  1  0.25054379  0.00011977  0.74924609  1
  Zn  Zn102  1  0.50219058  0.87454645  0.87483407  1
  Zn  Zn103  1  0.74842222  0.50237834  0.25177064  1
  Zn  Zn104  1  0.74734690  0.62334367  0.37354401  1
  Zn  Zn105  1  0.62621926  -0.00037411  0.12277694  1
  Zn  Zn106  1  0.49943512  0.37499286  0.37567633  1
  Zn  Zn107  1  0.00115777  0.25119327  0.24857998  1
  Zn  Zn108  1  0.24911530  0.62461069  0.87617446  1
  Zn  Zn109  1  0.37370479  0.50165023  0.37566911  1
  Zn  Zn110  1  0.62879801  0.37442169  0.75146750  1
  Zn  Zn111  1  0.87397143  0.75089760  0.62397345  1
  Zn  Zn112  1  0.74968518  -0.00095947  0.24550689  1
  Zn  Zn113  1  0.62442415  0.62296478  0.49840267  1
  Zn  Zn114  1  0.12707078  0.25082807  0.87886558  1
  Zn  Zn115  1  0.12728626  0.62533032  -0.00032291  1
  Zn  Zn116  1  0.74978180  0.87664848  0.12293400  1
  Zn  Zn117  1  0.00319251  0.12814235  0.12327938  1
  Zn  Zn118  1  0.25056063  0.62467783  0.37624447  1
  Zn  Zn119  1  0.12582978  0.12874273  0.00217235  1
  Zn  Zn120  1  -0.00165524  0.00100987  0.49934265  1
  Zn  Zn121  1  0.24926376  0.49985209  0.75154187  1
  Zn  Zn122  1  0.74993493  0.49707601  0.74985276  1
  Zn  Zn123  1  0.37367236  0.87394725  0.50020040  1
  Zn  Zn124  1  0.87407139  0.25087758  0.62604626  1
  Zn  Zn125  1  0.75148916  0.37264836  0.62773632  1
  Zn  Zn126  1  0.75052321  0.00000505  0.74954372  1
  Zn  Zn127  1  0.25027390  0.74688232  -0.00075048  1
  Zn  Zn128  1  0.18780896  0.18860120  0.18828565  1
  Zn  Zn129  1  0.18751160  0.18763124  0.69019080  1
  Zn  Zn130  1  0.18805001  0.68768575  0.18703957  1
  Zn  Zn131  1  0.18752145  0.68592088  0.68961060  1
  Zn  Zn132  1  0.68798762  0.18891679  0.18688106  1
  Zn  Zn133  1  0.68939587  0.18557603  0.68651336  1
  Zn  Zn134  1  0.68913601  0.68816373  0.18638633  1
  Zn  Zn135  1  0.68713055  0.68563348  0.68584172  1
  Zn  Zn136  1  0.31156359  0.31338697  0.31417151  1
  Zn  Zn137  1  0.31468892  0.31215596  0.81248245  1
  Zn  Zn138  1  0.31134290  0.81140169  0.31349495  1
  Zn  Zn139  1  0.31111547  0.81247743  0.81067044  1
  Zn  Zn140  1  0.81153470  0.31304263  0.31305378  1
  Zn  Zn141  1  0.81271561  0.31325977  0.81130351  1
  Zn  Zn142  1  0.81099920  0.81125193  0.31224036  1
  Zn  Zn143  1  0.81230956  0.81321047  0.81158101  1
  Zn  Zn144  1  0.18822898  0.43936928  0.43790884  1
  Zn  Zn145  1  0.18857774  0.43719582  0.93949348  1
  Zn  Zn146  1  0.18645805  0.93712474  0.43915396  1
  Zn  Zn147  1  0.18978256  0.93794340  0.93795212  1
  Zn  Zn148  1  0.68833435  0.43611683  0.43764730  1
  Zn  Zn149  1  0.68693206  0.43737187  0.93727198  1
  Zn  Zn150  1  0.68710009  0.93708650  0.43344928  1
  Zn  Zn151  1  0.68861041  0.93797991  0.93667313  1
  Zn  Zn152  1  0.31405079  0.06166654  0.06196822  1
  Zn  Zn153  1  0.31241475  0.06119413  0.56289437  1
  Zn  Zn154  1  0.31087904  0.56378834  0.06104449  1
  Zn  Zn155  1  0.31041967  0.56227099  0.56449881  1
  Zn  Zn156  1  0.81122050  0.06081288  0.06380381  1
  Zn  Zn157  1  0.81320750  0.06307847  0.56230177  1
  Zn  Zn158  1  0.81198664  0.56392008  0.06276594  1
  Zn  Zn159  1  0.81219933  0.56253788  0.56200356  1
  Zn  Zn160  1  0.43808076  0.43817970  0.18800509  1
  Zn  Zn161  1  0.43839568  0.43522320  0.68746930  1
  Zn  Zn162  1  0.43910300  0.93875140  0.18684224  1
  Zn  Zn163  1  0.43744322  0.93577157  0.68715676  1
  Zn  Zn164  1  0.93775659  0.43858235  0.18912705  1
  Zn  Zn165  1  0.93645521  0.43678495  0.68821655  1
  Zn  Zn166  1  0.93798329  0.93911287  0.18576605  1
  Zn  Zn167  1  0.93690226  0.93886139  0.68593617  1
  Zn  Zn168  1  0.06061264  0.06279204  0.31215906  1
  Zn  Zn169  1  0.06465782  0.06324496  0.81196396  1
  Zn  Zn170  1  0.06194487  0.56323594  0.31287837  1
  Zn  Zn171  1  0.06036090  0.56248430  0.81209607  1
  Zn  Zn172  1  0.56190820  0.06137094  0.31120451  1
  Zn  Zn173  1  0.56424528  0.06197080  0.81311152  1
  Zn  Zn174  1  0.56111863  0.56217056  0.31359256  1
  Zn  Zn175  1  0.56184120  0.56366900  0.81189826  1
  Zn  Zn176  1  0.43736076  0.18722933  0.43755292  1
  Zn  Zn177  1  0.43786079  0.18776197  0.93850211  1
  Zn  Zn178  1  0.43526954  0.68633052  0.43792227  1
  Zn  Zn179  1  0.43980468  0.68609618  0.93667955  1
  Zn  Zn180  1  0.93760182  0.18838800  0.43694497  1
  Zn  Zn181  1  0.93930632  0.18816173  0.93827331  1
  Zn  Zn182  1  0.93626846  0.68827705  0.43707290  1
  Zn  Zn183  1  0.93889620  0.68748580  0.93680179  1
  Zn  Zn184  1  0.06397738  0.31133126  0.06244546  1
  Zn  Zn185  1  0.06091271  0.31219195  0.56411687  1
  Zn  Zn186  1  0.06196552  0.81496764  0.06140266  1
  Zn  Zn187  1  0.06034207  0.81312133  0.56189866  1
  Zn  Zn188  1  0.56185294  0.31272317  0.06292068  1
  Zn  Zn189  1  0.56370868  0.31188328  0.56411489  1
  Zn  Zn190  1  0.56213016  0.80938288  0.06084405  1
  Zn  Zn191  1  0.56143707  0.81257475  0.56195870  1
  O  O192  1  0.12474517  0.11631151  0.12525177  1
  O  O193  1  0.12031546  0.11989471  0.62046833  1
  O  O194  1  0.11762863  0.61927569  0.12493918  1
  O  O195  1  0.11792015  0.61940046  0.62070240  1
  O  O196  1  0.61858691  0.12640325  0.11903380  1
  O  O197  1  0.61995154  0.11802557  0.61778400  1
  O  O198  1  0.61808412  0.61937022  0.12416472  1
  O  O199  1  0.61693446  0.61498115  0.62216224  1
  O  O200  1  0.37560525  0.37656692  0.38989074  1
  O  O201  1  0.37819702  0.38408136  0.88068498  1
  O  O202  1  0.38066456  0.88139361  0.37526936  1
  O  O203  1  0.37447589  0.88179276  0.88211112  1
  O  O204  1  0.88079356  0.38088515  0.38028900  1
  O  O205  1  0.88067596  0.38088707  0.88216319  1
  O  O206  1  0.87899269  0.88049322  0.37758618  1
  O  O207  1  0.88178491  0.88115295  0.87911262  1
  O  O208  1  0.25424014  0.00511168  0.37001636  1
  O  O209  1  0.26215991  0.00683023  0.87345363  1
  O  O210  1  0.25189075  0.50346539  0.36752471  1
  O  O211  1  0.26373834  0.50036762  0.87427461  1
  O  O212  1  0.75561817  0.00660519  0.37050451  1
  O  O213  1  0.75876480  0.00772139  0.87394582  1
  O  O214  1  0.75781421  0.50290692  0.37386769  1
  O  O215  1  0.75698012  0.50704857  0.87539931  1
  O  O216  1  0.24470798  0.49464386  0.13148388  1
  O  O217  1  0.24193401  0.49207716  0.62687391  1
  O  O218  1  0.24638855  0.99423492  0.13168889  1
  O  O219  1  0.24293898  0.99323849  0.62611213  1
  O  O220  1  0.74326307  0.49413464  0.12620349  1
  O  O221  1  0.73718312  0.50003083  0.62417654  1
  O  O222  1  0.74482339  0.99413047  0.12819424  1
  O  O223  1  0.74227681  0.99374318  0.62433823  1
  O  O224  1  0.00728341  0.37512171  0.25774102  1
  O  O225  1  0.00483162  0.37021939  0.75634485  1
  O  O226  1  0.00545354  0.87008899  0.25467713  1
  O  O227  1  0.00491768  0.87019789  0.75464411  1
  O  O228  1  0.50536225  0.36816230  0.25249456  1
  O  O229  1  0.50215657  0.36015569  0.75023832  1
  O  O230  1  0.50590591  0.86861225  0.25458340  1
  O  O231  1  0.50713236  0.86716058  0.74995651  1
  O  O232  1  0.49401617  0.13089270  0.24544853  1
  O  O233  1  0.49660964  0.13128917  0.74478726  1
  O  O234  1  0.49370338  0.63029911  0.24426483  1
  O  O235  1  0.49324964  0.63107747  0.74367996  1
  O  O236  1  0.98715600  0.12777749  0.24897209  1
  O  O237  1  0.99603318  0.13077513  0.74605748  1
  O  O238  1  0.99495444  0.63200064  0.24415449  1
  O  O239  1  0.99379969  0.63078542  0.74427394  1
  O  O240  1  0.37497844  0.25715233  0.00800508  1
  O  O241  1  0.36945387  0.25770522  0.50221690  1
  O  O242  1  0.37528024  0.75869865  0.00460972  1
  O  O243  1  0.36708375  0.75033695  0.50774018  1
  O  O244  1  0.86968302  0.25638450  0.00539791  1
  O  O245  1  0.86848773  0.25613897  0.49982680  1
  O  O246  1  0.87211884  0.75638233  0.00351494  1
  O  O247  1  0.86426044  0.75706228  0.49907400  1
  O  O248  1  0.13066279  0.24512642  0.49516809  1
  O  O249  1  0.13131180  0.24718972  0.99682628  1
  O  O250  1  0.12813474  0.74456924  0.49540264  1
  O  O251  1  0.12464963  0.75181245  0.98741144  1
  O  O252  1  0.62934061  0.24333633  0.49441177  1
  O  O253  1  0.63110665  0.24503581  0.99521879  1
  O  O254  1  0.63258532  0.74986104  0.49389519  1
  O  O255  1  0.63217228  0.74881801  0.99176389  1
  O  O256  1  0.49412212  0.24455656  0.13236356  1
  O  O257  1  0.50087355  0.24160332  0.63408034  1
  O  O258  1  0.49351387  0.74393432  0.13038571  1
  O  O259  1  0.49396972  0.74425414  0.62935493  1
  O  O260  1  0.99156085  0.24908201  0.12783047  1
  O  O261  1  0.99907467  0.24276783  0.63308034  1
  O  O262  1  0.99555412  0.74604728  0.13003329  1
  O  O263  1  0.99800277  0.74339913  0.63076154  1
  O  O264  1  0.00739016  0.25775908  0.37404357  1
  O  O265  1  0.00165501  0.25803871  0.86964853  1
  O  O266  1  0.00477942  0.75654548  0.36878082  1
  O  O267  1  0.00735136  0.75666555  0.86879310  1
  O  O268  1  0.50661698  0.25013793  0.36925090  1
  O  O269  1  0.50643168  0.24794097  0.86502270  1
  O  O270  1  0.50337607  0.75472603  0.36949347  1
  O  O271  1  0.50701734  0.75069506  0.86687846  1
  O  O272  1  0.24443837  0.13013723  0.49492887  1
  O  O273  1  0.25188205  0.12547278  0.98899413  1
  O  O274  1  0.24129531  0.63124710  0.50095029  1
  O  O275  1  0.24517963  0.62978155  0.99540485  1
  O  O276  1  0.74432828  0.12958612  0.49291157  1
  O  O277  1  0.74582947  0.13206239  0.99511297  1
  O  O278  1  0.74811265  0.63795270  0.49842055  1
  O  O279  1  0.75037004  0.63285174  0.99197896  1
  O  O280  1  0.25857799  0.37548691  0.00889895  1
  O  O281  1  0.25622097  0.37017616  0.50611847  1
  O  O282  1  0.26184919  0.87354714  0.00574160  1
  O  O283  1  0.24967269  0.86726789  0.50725704  1
  O  O284  1  0.75598042  0.36973807  0.00616083  1
  O  O285  1  0.75688576  0.36708662  0.50064280  1
  O  O286  1  0.75856463  0.86753732  -0.00154084  1
  O  O287  1  0.75308798  0.86716403  0.50281804  1
  O  O288  1  0.12980981  0.49533533  0.24490966  1
  O  O289  1  0.12469733  0.49304313  0.74390441  1
  O  O290  1  0.13059943  0.99447630  0.24557159  1
  O  O291  1  0.12669708  0.99288063  0.74305681  1
  O  O292  1  0.62425906  0.49344254  0.24388208  1
  O  O293  1  0.62330764  0.49831329  0.73866700  1
  O  O294  1  0.62454249  0.98701211  0.24912135  1
  O  O295  1  0.62627376  0.99362101  0.74258608  1
  O  O296  1  0.36937223  0.00578063  0.25568219  1
  O  O297  1  0.37506219  0.00404978  0.75940010  1
  O  O298  1  0.36936967  0.50614138  0.25130316  1
  O  O299  1  0.37706882  0.50372962  0.75900554  1
  O  O300  1  0.87393750  0.00966487  0.25390453  1
  O  O301  1  0.87479282  0.00685482  0.75758956  1
  O  O302  1  0.87471294  0.50738301  0.25683172  1
  O  O303  1  0.87522074  0.50740775  0.75763630  1
  O  O304  1  0.12030380  0.37071099  0.37144624  1
  O  O305  1  0.11865759  0.37640431  0.86921871  1
  O  O306  1  0.11891974  0.87032243  0.36928007  1
  O  O307  1  0.12032767  0.86894361  0.86918859  1
  O  O308  1  0.62276065  0.36755519  0.36955779  1
  O  O309  1  0.62218651  0.36571896  0.87305957  1
  O  O310  1  0.61763959  0.86864310  0.36586185  1
  O  O311  1  0.62458972  0.86840924  0.86707441  1
  O  O312  1  0.37941753  0.13062646  0.13172949  1
  O  O313  1  0.38231708  0.12450030  0.63141869  1
  O  O314  1  0.38072529  0.63051828  0.13057519  1
  O  O315  1  0.37937848  0.62946306  0.63119143  1
  O  O316  1  0.87469615  0.13146467  0.13384935  1
  O  O317  1  0.88211017  0.12514687  0.63206027  1
  O  O318  1  0.88196582  0.63136303  0.13041117  1
  O  O319  1  0.88127457  0.62652740  0.63088662  1
  O  O320  1  0.25831407  0.25765026  0.12687140  1
  O  O321  1  0.25127030  0.25550461  0.61898783  1
  O  O322  1  0.25668622  0.75799388  0.12441289  1
  O  O323  1  0.25326728  0.75478589  0.62057824  1
  O  O324  1  0.75568417  0.25726255  0.11894853  1
  O  O325  1  0.75210662  0.24981742  0.61498696  1
  O  O326  1  0.75820850  0.75184036  0.11656546  1
  O  O327  1  0.74917537  0.75649649  0.61366970  1
  O  O328  1  0.24402493  0.24436283  0.38161285  1
  O  O329  1  0.25282021  0.23818922  0.87709098  1
  O  O330  1  0.24160015  0.74938952  0.38214230  1
  O  O331  1  0.23733948  0.75002821  0.87461014  1
  O  O332  1  0.74345070  0.24368192  0.38063868  1
  O  O333  1  0.74596361  0.24445399  0.88158644  1
  O  O334  1  0.74270327  0.75042204  0.38493079  1
  O  O335  1  0.74589625  0.74438768  0.87895095  1
  O  O336  1  0.00314876  0.11651406  0.00163943  1
  O  O337  1  0.00662368  0.12468018  0.50597012  1
  O  O338  1  0.00126531  0.61849253  0.00684911  1
  O  O339  1  0.00410762  0.61999130  0.50552728  1
  O  O340  1  0.50670482  0.12544631  0.00707692  1
  O  O341  1  0.50570615  0.11909036  0.50435283  1
  O  O342  1  0.50170747  0.61830174  0.00779972  1
  O  O343  1  0.49802455  0.61392893  0.50689077  1
  O  O344  1  0.49057199  0.38191019  0.50213975  1
  O  O345  1  0.49306815  0.38187719  0.99942382  1
  O  O346  1  0.49811604  0.88111329  0.49260320  1
  O  O347  1  0.48781077  0.87556315  0.99799968  1
  O  O348  1  0.99512348  0.38093081  0.49463429  1
  O  O349  1  0.99382986  0.38135133  0.99599312  1
  O  O350  1  0.99209201  0.87602304  0.49206961  1
  O  O351  1  0.99485180  0.88183200  0.99291442  1
  O  O352  1  0.49763046  0.49742170  0.38881515  1
  O  O353  1  0.49081408  0.49918223  0.88055972  1
  O  O354  1  0.49387442  0.99495342  0.37944499  1
  O  O355  1  0.48783998  0.99804871  0.87671152  1
  O  O356  1  0.99498187  0.49487127  0.38177500  1
  O  O357  1  0.99386212  0.49493130  0.88155548  1
  O  O358  1  0.99253249  0.99330373  0.37545872  1
  O  O359  1  0.99650986  0.99510561  0.88001011  1
  O  O360  1  0.00822441  0.00086712  0.11791413  1
  O  O361  1  0.00704667  0.00722677  0.62252475  1
  O  O362  1  0.00510181  0.50554230  0.12047900  1
  O  O363  1  0.00496067  0.50556254  0.61937783  1
  O  O364  1  0.50239249  0.00977020  0.12307036  1
  O  O365  1  0.50531988  0.00421075  0.61853351  1
  O  O366  1  0.50530171  0.50525310  0.11991043  1
  O  O367  1  0.50577362  0.50353050  0.61763325  1
  O  O368  1  0.24491201  0.38146377  0.24578765  1
  O  O369  1  0.24427647  0.37550943  0.74405120  1
  O  O370  1  0.24466892  0.88090653  0.24525454  1
  O  O371  1  0.24241365  0.87621654  0.74234780  1
  O  O372  1  0.74257186  0.37645969  0.24345509  1
  O  O373  1  0.74709596  0.37884763  0.74570072  1
  O  O374  1  0.73716185  0.87321040  0.24867093  1
  O  O375  1  0.74367343  0.87618991  0.74156089  1
  O  O376  1  0.25563932  0.11965108  0.25687215  1
  O  O377  1  0.25818918  0.12296453  0.75912464  1
  O  O378  1  0.25631428  0.61907832  0.25009409  1
  O  O379  1  0.25853022  0.62058371  0.75338027  1
  O  O380  1  0.76030789  0.12585952  0.25513923  1
  O  O381  1  0.75747675  0.12364903  0.75739870  1
  O  O382  1  0.75946101  0.62467652  0.25228497  1
  O  O383  1  0.75704489  0.62358475  0.75585275  1
  O  O384  1  0.36863028  0.11950853  0.36999782  1
  O  O385  1  0.37027224  0.11624068  0.87128439  1
  O  O386  1  0.37178282  0.62336435  0.36625852  1
  O  O387  1  0.37592316  0.61513359  0.86936604  1
  O  O388  1  0.86992495  0.12105899  0.36665907  1
  O  O389  1  0.87093878  0.12040041  0.87035094  1
  O  O390  1  0.87536341  0.61895101  0.36828585  1
  O  O391  1  0.87102747  0.62018518  0.86913323  1
  O  O392  1  0.13071392  0.38126984  0.13201162  1
  O  O393  1  0.12878248  0.38013564  0.63110037  1
  O  O394  1  0.13100932  0.88031729  0.13110773  1
  O  O395  1  0.12843112  0.87982932  0.62977881  1
  O  O396  1  0.63007755  0.38007607  0.13087241  1
  O  O397  1  0.62582121  0.38598727  0.62631556  1
  O  O398  1  0.62378529  0.87299887  0.13604351  1
  O  O399  1  0.62968728  0.88014655  0.62876653  1
  O  O400  1  0.12498501  0.25767896  0.25786648  1
  O  O401  1  0.11845030  0.25746950  0.75376989  1
  O  O402  1  0.11936772  0.75638373  0.25494766  1
  O  O403  1  0.11828364  0.75552465  0.75714523  1
  O  O404  1  0.61950243  0.25526337  0.25533901  1
  O  O405  1  0.61620449  0.24636160  0.75580949  1
  O  O406  1  0.61821214  0.75652547  0.25451320  1
  O  O407  1  0.61984413  0.75470706  0.75317955  1
  O  O408  1  0.37994656  0.24484442  0.24667075  1
  O  O409  1  0.38672303  0.24269576  0.74937472  1
  O  O410  1  0.37987507  0.74582064  0.24384557  1
  O  O411  1  0.37999947  0.74428383  0.74472670  1
  O  O412  1  0.87517600  0.24196853  0.24516331  1
  O  O413  1  0.88304222  0.24291490  0.74980053  1
  O  O414  1  0.88157195  0.74626837  0.24458835  1
  O  O415  1  0.88159928  0.74411626  0.74824672  1
  O  O416  1  0.38258395  0.49122504  0.50262103  1
  O  O417  1  0.38109118  0.49536334  0.99324459  1
  O  O418  1  0.38134882  0.99852832  0.49275051  1
  O  O419  1  0.37710716  0.99030910  0.99226331  1
  O  O420  1  0.88074342  0.49513560  0.49444217  1
  O  O421  1  0.88078219  0.49477446  0.99572198  1
  O  O422  1  0.87501392  0.99397049  0.49085894  1
  O  O423  1  0.88201024  0.99524961  0.99418605  1
  O  O424  1  0.12051642  -0.00016261  0.00671495  1
  O  O425  1  0.12277194  0.00752605  0.50585769  1
  O  O426  1  0.11786774  0.50036280  0.00770501  1
  O  O427  1  0.11845332  0.50505116  0.50634334  1
  O  O428  1  0.62231450  0.00785786  0.00032795  1
  O  O429  1  0.61889831  0.00486767  0.50275694  1
  O  O430  1  0.61829607  0.50153870  0.00686283  1
  O  O431  1  0.61422139  0.49898919  0.50751841  1
  O  O432  1  0.37035126  0.37039364  0.12103648  1
  O  O433  1  0.36926160  0.37263523  0.61532275  1
  O  O434  1  0.37119088  0.87067325  0.11789095  1
  O  O435  1  0.36747721  0.86754181  0.62408858  1
  O  O436  1  0.86971295  0.37136016  0.12066008  1
  O  O437  1  0.87429929  0.37296956  0.61535119  1
  O  O438  1  0.87598168  0.86817413  0.11730071  1
  O  O439  1  0.86808322  0.87451090  0.61683719  1
  O  O440  1  0.13005493  0.13037940  0.37983682  1
  O  O441  1  0.13954095  0.12446830  0.87538616  1
  O  O442  1  0.12425545  0.63257666  0.38250238  1
  O  O443  1  0.12358774  0.63696914  0.87485919  1
  O  O444  1  0.62989956  0.12971914  0.37903021  1
  O  O445  1  0.63149132  0.13012479  0.88113155  1
  O  O446  1  0.62581430  0.63324132  0.37796746  1
  O  O447  1  0.63210076  0.63184742  0.87506446  1
