# generated using pymatgen
data_V3Zn3O8
_symmetry_space_group_name_H-M   'P 1'
_cell_length_a   17.08307501
_cell_length_b   17.08041708
_cell_length_c   17.08273646
_cell_angle_alpha   90.01963786
_cell_angle_beta   90.00969782
_cell_angle_gamma   89.99247449
_symmetry_Int_Tables_number   1
_chemical_formula_structural   V3Zn3O8
_chemical_formula_sum   'V96 Zn96 O256'
_cell_volume   4984.50371950
_cell_formula_units_Z   32
loop_
 _symmetry_equiv_pos_site_id
 _symmetry_equiv_pos_as_xyz
  1  'x, y, z'
loop_
 _atom_site_type_symbol
 _atom_site_label
 _atom_site_symmetry_multiplicity
 _atom_site_fract_x
 _atom_site_fract_y
 _atom_site_fract_z
 _atom_site_occupancy
  V  V0  1  -0.00167560  0.12513568  0.12700113  1
  V  V1  1  0.25122740  0.37682996  0.12457822  1
  V  V2  1  -0.00162199  0.87591108  0.87576216  1
  V  V3  1  0.62499533  0.87539249  0.74878253  1
  V  V4  1  0.24924771  0.00139729  0.25013554  1
  V  V5  1  0.62317086  0.12479690  -0.00037693  1
  V  V6  1  0.12527039  0.12451069  0.50021924  1
  V  V7  1  0.37400697  0.12440150  0.75109673  1
  V  V8  1  0.00118862  0.50154090  0.00004687  1
  V  V9  1  0.75156181  0.12368777  0.37427048  1
  V  V10  1  0.49953556  0.25018531  0.74800793  1
  V  V11  1  0.87361534  0.00030138  0.87571896  1
  V  V12  1  0.24957279  0.75032743  0.00106398  1
  V  V13  1  0.49980339  0.62473503  0.62500321  1
  V  V14  1  0.87568530  0.50064778  0.87499948  1
  V  V15  1  0.75083980  0.62613212  0.87473900  1
  V  V16  1  0.00015524  0.87317812  0.37631922  1
  V  V17  1  0.62569089  0.49989494  0.62495836  1
  V  V18  1  0.74855653  -0.00062262  0.74852143  1
  V  V19  1  0.00217725  0.62540363  0.12482084  1
  V  V20  1  0.50044296  0.37622219  0.87384081  1
  V  V21  1  0.87425033  0.25151249  0.12569193  1
  V  V22  1  0.62449012  -0.00043654  0.62404312  1
  V  V23  1  0.12506978  0.49969833  0.62579776  1
  V  V24  1  0.50092621  0.50143949  -0.00008727  1
  V  V25  1  0.87468981  0.87280400  0.50072714  1
  V  V26  1  0.49866822  0.87547194  0.37528480  1
  V  V27  1  0.25017237  0.49964295  0.74958731  1
  V  V28  1  0.12486651  0.87534709  0.25134739  1
  V  V29  1  0.87484809  0.74999497  0.12616041  1
  V  V30  1  0.12482536  0.37395469  0.75061818  1
  V  V31  1  0.12604802  0.74851399  0.37634501  1
  V  V32  1  0.75160094  0.49995497  0.24908085  1
  V  V33  1  0.37521796  0.50013641  0.87464709  1
  V  V34  1  0.49969459  0.62615496  0.12474885  1
  V  V35  1  0.87404334  0.24961286  0.62446443  1
  V  V36  1  -0.00297829  0.00017700  0.00090902  1
  V  V37  1  0.62579514  0.37449529  0.24861294  1
  V  V38  1  0.37561442  0.62456970  0.74908881  1
  V  V39  1  0.49706879  0.87705683  0.87639424  1
  V  V40  1  0.24976255  0.62587416  0.87549743  1
  V  V41  1  0.87451020  0.75016011  0.62419991  1
  V  V42  1  0.37361808  0.87529428  0.50121008  1
  V  V43  1  0.00029235  0.74822710  0.25055615  1
  V  V44  1  0.24928745  0.87498825  0.12463647  1
  V  V45  1  0.50006208  0.74896063  0.74946578  1
  V  V46  1  0.50023095  0.49853131  0.49864762  1
  V  V47  1  0.50031123  0.24922611  0.24855230  1
  V  V48  1  0.87481407  0.37498211  0.00035116  1
  V  V49  1  0.87354275  0.12510493  0.75000867  1
  V  V50  1  0.62585535  0.75005944  0.87454565  1
  V  V51  1  0.62549289  0.37600113  0.74902144  1
  V  V52  1  0.75018050  0.50026812  0.74954961  1
  V  V53  1  0.50051633  0.37480554  0.37478195  1
  V  V54  1  -0.00112181  0.24932561  0.75075189  1
  V  V55  1  0.12489865  0.87633489  0.75098680  1
  V  V56  1  -0.00041318  0.75076281  0.75142932  1
  V  V57  1  0.12420469  0.24916689  0.87614793  1
  V  V58  1  0.50031956  -0.00007077  0.49980762  1
  V  V59  1  0.62375794  0.74939659  0.37466637  1
  V  V60  1  0.74798743  0.12554469  0.87402913  1
  V  V61  1  0.25086268  0.37373108  0.62460326  1
  V  V62  1  0.00083483  0.62392607  0.62614505  1
  V  V63  1  0.00010564  -0.00029982  0.50121838  1
  V  V64  1  0.37595716  0.25080794  0.12414536  1
  V  V65  1  0.87573392  0.12522816  0.25114615  1
  V  V66  1  0.87600604  0.62531773  0.75029424  1
  V  V67  1  0.24981233  0.87454649  0.62685483  1
  V  V68  1  0.62580496  0.24860091  0.37373276  1
  V  V69  1  0.24898305  0.25014426  -0.00127418  1
  V  V70  1  0.25266214  0.49934613  0.25002545  1
  V  V71  1  0.12561480  0.62551611  0.00007986  1
  V  V72  1  0.87586307  0.37560733  0.49862272  1
  V  V73  1  0.37651931  0.49875777  0.37508401  1
  V  V74  1  0.37517119  0.37521199  -0.00071398  1
  V  V75  1  0.87489990  -0.00022701  0.37511249  1
  V  V76  1  0.62428049  0.12389238  0.49924628  1
  V  V77  1  0.75097834  0.24993533  0.49931782  1
  V  V78  1  0.25026259  0.24871623  0.50063404  1
  V  V79  1  0.12289637  0.00066274  0.12586749  1
  V  V80  1  0.62470650  0.50065127  0.12397722  1
  V  V81  1  -0.00066141  0.37496720  0.87498052  1
  V  V82  1  0.62477511  0.87589654  0.24944543  1
  V  V83  1  0.62531632  -0.00048156  0.12479432  1
  V  V84  1  0.12379876  0.12628510  0.00040123  1
  V  V85  1  0.75044855  0.75120808  0.00054439  1
  V  V86  1  0.62426264  0.62456235  0.49892399  1
  V  V87  1  0.12508695  0.37442639  0.25042944  1
  V  V88  1  0.49906542  0.75053805  0.24876924  1
  V  V89  1  0.00098455  0.49918853  0.49930557  1
  V  V90  1  0.25102222  0.62532122  0.37641429  1
  V  V91  1  0.62506210  0.25033332  0.87444511  1
  V  V92  1  0.37347005  0.12443939  0.24934071  1
  V  V93  1  -0.00095343  0.12379909  0.62510037  1
  V  V94  1  0.75059654  0.62433723  0.37495249  1
  V  V95  1  0.37481826  0.75159105  0.12490061  1
  Zn  Zn96  1  0.37275603  0.87924338  -0.00096373  1
  Zn  Zn97  1  0.37212044  0.00202024  0.87874230  1
  Zn  Zn98  1  0.37291360  0.00078277  0.37504100  1
  Zn  Zn99  1  0.87748539  0.50028240  0.37373262  1
  Zn  Zn100  1  0.24884584  0.12199067  0.87487490  1
  Zn  Zn101  1  0.49895289  0.12630478  0.62385334  1
  Zn  Zn102  1  0.74835874  0.25287166  -0.00003947  1
  Zn  Zn103  1  0.12375326  0.25030891  0.37363107  1
  Zn  Zn104  1  0.12517478  -0.00019967  0.62681000  1
  Zn  Zn105  1  0.49977321  0.12463833  0.12337966  1
  Zn  Zn106  1  0.37735228  0.24950097  0.62390011  1
  Zn  Zn107  1  0.62465786  0.62506367  -0.00056114  1
  Zn  Zn108  1  0.37423185  0.74858115  0.62493437  1
  Zn  Zn109  1  0.87414418  0.87698534  0.00192492  1
  Zn  Zn110  1  0.37615419  0.62589431  0.25059169  1
  Zn  Zn111  1  0.37603283  0.37121333  0.50010100  1
  Zn  Zn112  1  0.75005827  0.87430036  0.12709783  1
  Zn  Zn113  1  0.74876739  0.87258816  0.62278274  1
  Zn  Zn114  1  0.12704014  0.50102747  0.12463747  1
  Zn  Zn115  1  0.74999008  0.37591523  0.12295051  1
  Zn  Zn116  1  0.49704063  -0.00007210  -0.00003090  1
  Zn  Zn117  1  0.24887103  0.74964347  0.50129288  1
  Zn  Zn118  1  0.00079356  0.25252281  0.25330203  1
  Zn  Zn119  1  0.12474696  0.75093228  0.87661353  1
  Zn  Zn120  1  0.24897899  0.12419158  0.37585747  1
  Zn  Zn121  1  0.74930276  0.74993485  0.50079593  1
  Zn  Zn122  1  0.25131616  -0.00012215  0.75459149  1
  Zn  Zn123  1  0.00205371  0.37535030  0.37266556  1
  Zn  Zn124  1  0.87832538  0.62307578  0.25202010  1
  Zn  Zn125  1  0.12674297  0.62584968  0.50235309  1
  Zn  Zn126  1  0.74982855  0.37530798  0.62461892  1
  Zn  Zn127  1  0.75071502  -0.00237080  0.25015903  1
  Zn  Zn128  1  0.18849326  0.18931929  0.18473782  1
  Zn  Zn129  1  0.18831519  0.18683321  0.68702310  1
  Zn  Zn130  1  0.18822361  0.68695254  0.18877745  1
  Zn  Zn131  1  0.18705845  0.68911209  0.68840686  1
  Zn  Zn132  1  0.69043796  0.18565137  0.18710019  1
  Zn  Zn133  1  0.68637144  0.18747646  0.68492334  1
  Zn  Zn134  1  0.68547725  0.68637451  0.18785116  1
  Zn  Zn135  1  0.68808745  0.68777774  0.68681341  1
  Zn  Zn136  1  0.31127688  0.31115309  0.31487757  1
  Zn  Zn137  1  0.31239048  0.30993506  0.81252095  1
  Zn  Zn138  1  0.31290497  0.81291447  0.31229785  1
  Zn  Zn139  1  0.31303779  0.80968624  0.81312410  1
  Zn  Zn140  1  0.81348607  0.31290058  0.31317166  1
  Zn  Zn141  1  0.81075516  0.31327568  0.81305236  1
  Zn  Zn142  1  0.81133747  0.81217544  0.31217127  1
  Zn  Zn143  1  0.81270861  0.81446816  0.81161753  1
  Zn  Zn144  1  0.18859128  0.43668365  0.43718534  1
  Zn  Zn145  1  0.18714042  0.43812750  0.93710515  1
  Zn  Zn146  1  0.18832698  0.93930888  0.43716307  1
  Zn  Zn147  1  0.18698447  0.93935080  0.93732538  1
  Zn  Zn148  1  0.68726695  0.43693239  0.43676159  1
  Zn  Zn149  1  0.68847370  0.43768827  0.93766342  1
  Zn  Zn150  1  0.68885485  0.93601470  0.43740964  1
  Zn  Zn151  1  0.68650616  0.93675600  0.93713662  1
  Zn  Zn152  1  0.31146538  0.06208352  0.06135765  1
  Zn  Zn153  1  0.31262485  0.06090535  0.56851763  1
  Zn  Zn154  1  0.31386942  0.56436382  0.06345540  1
  Zn  Zn155  1  0.31449269  0.56002306  0.56109792  1
  Zn  Zn156  1  0.80930158  0.06448048  0.06273015  1
  Zn  Zn157  1  0.81135164  0.06071320  0.56177915  1
  Zn  Zn158  1  0.81414160  0.56452023  0.06268906  1
  Zn  Zn159  1  0.81243966  0.56308651  0.56292828  1
  Zn  Zn160  1  0.43828808  0.43836609  0.18810405  1
  Zn  Zn161  1  0.43662355  0.43623239  0.68493198  1
  Zn  Zn162  1  0.43785018  0.93804370  0.18513856  1
  Zn  Zn163  1  0.43777129  0.93999059  0.68806315  1
  Zn  Zn164  1  0.93886082  0.43905390  0.18517696  1
  Zn  Zn165  1  0.93679220  0.43659475  0.68619340  1
  Zn  Zn166  1  0.93691823  0.93615207  0.18949224  1
  Zn  Zn167  1  0.93620891  0.93686766  0.68688604  1
  Zn  Zn168  1  0.06117420  0.06340436  0.31456677  1
  Zn  Zn169  1  0.06165257  0.06141876  0.81375634  1
  Zn  Zn170  1  0.06600008  0.56091128  0.31233996  1
  Zn  Zn171  1  0.06405479  0.56306767  0.81352562  1
  Zn  Zn172  1  0.56072728  0.06144651  0.31206620  1
  Zn  Zn173  1  0.56001197  0.06231062  0.81084790  1
  Zn  Zn174  1  0.56281473  0.56288281  0.31051308  1
  Zn  Zn175  1  0.56380458  0.56352568  0.81292570  1
  Zn  Zn176  1  0.43695557  0.18623143  0.43533976  1
  Zn  Zn177  1  0.43799958  0.18843726  0.93496730  1
  Zn  Zn178  1  0.43647341  0.68852398  0.43828766  1
  Zn  Zn179  1  0.43604909  0.68944568  0.93875686  1
  Zn  Zn180  1  0.94089008  0.18996579  0.43459353  1
  Zn  Zn181  1  0.93624667  0.18737516  0.93915946  1
  Zn  Zn182  1  0.93718739  0.68589414  0.43842308  1
  Zn  Zn183  1  0.93798720  0.68884020  0.93837063  1
  Zn  Zn184  1  0.06167019  0.31364607  0.06474808  1
  Zn  Zn185  1  0.06285776  0.31131199  0.56423238  1
  Zn  Zn186  1  0.06238498  0.81300781  0.06183413  1
  Zn  Zn187  1  0.06317325  0.81042795  0.56274576  1
  Zn  Zn188  1  0.56232118  0.31324755  0.06250330  1
  Zn  Zn189  1  0.56341132  0.31214580  0.56278936  1
  Zn  Zn190  1  0.56307086  0.81272171  0.06142605  1
  Zn  Zn191  1  0.56207812  0.81175756  0.56228290  1
  O  O192  1  0.11807826  0.12028985  0.12049562  1
  O  O193  1  0.11781133  0.12300825  0.61697687  1
  O  O194  1  0.11956343  0.62405453  0.11868766  1
  O  O195  1  0.11909404  0.61777470  0.62552604  1
  O  O196  1  0.62520875  0.11841103  0.11652758  1
  O  O197  1  0.62354209  0.11809171  0.61636300  1
  O  O198  1  0.61765182  0.61861855  0.12254851  1
  O  O199  1  0.61946566  0.61923470  0.61961095  1
  O  O200  1  0.38294097  0.38011860  0.37634978  1
  O  O201  1  0.38039374  0.38067591  0.87950730  1
  O  O202  1  0.37950922  0.87672250  0.38468533  1
  O  O203  1  0.38673523  0.87419497  0.87483824  1
  O  O204  1  0.87722508  0.37772172  0.38774106  1
  O  O205  1  0.88071725  0.38059563  0.87939843  1
  O  O206  1  0.88150296  0.87858637  0.37979302  1
  O  O207  1  0.88072691  0.88324033  0.87585480  1
  O  O208  1  0.25220522  0.00305773  0.36566412  1
  O  O209  1  0.25291856  0.00377244  0.87198559  1
  O  O210  1  0.25608000  0.50687356  0.37099547  1
  O  O211  1  0.25585083  0.50489423  0.86903212  1
  O  O212  1  0.75763977  0.00661875  0.37485849  1
  O  O213  1  0.75372948  0.00594933  0.86868070  1
  O  O214  1  0.74835326  0.50855023  0.36586496  1
  O  O215  1  0.75638975  0.50635304  0.86969569  1
  O  O216  1  0.25137928  0.49426329  0.13119035  1
  O  O217  1  0.24476837  0.49477742  0.63040292  1
  O  O218  1  0.24151630  0.99507344  0.13000974  1
  O  O219  1  0.24676980  0.98543994  0.63058099  1
  O  O220  1  0.74574050  0.50180242  0.13459759  1
  O  O221  1  0.74362333  0.50006280  0.63193740  1
  O  O222  1  0.73796247  0.99743731  0.12642667  1
  O  O223  1  0.74308417  0.99807410  0.63135012  1
  O  O224  1  0.01258367  0.37778729  0.24930071  1
  O  O225  1  0.00432193  0.36931332  0.75511043  1
  O  O226  1  0.00593064  0.86854196  0.25679100  1
  O  O227  1  0.00641630  0.87074302  0.75453438  1
  O  O228  1  0.50642572  0.36915433  0.25504419  1
  O  O229  1  0.50563484  0.37160047  0.75518400  1
  O  O230  1  0.50474375  0.87029010  0.25559518  1
  O  O231  1  0.50537405  0.86906932  0.75683324  1
  O  O232  1  0.49046038  0.13092477  0.24795498  1
  O  O233  1  0.49240399  0.13267564  0.74927886  1
  O  O234  1  0.49908777  0.63248179  0.24348472  1
  O  O235  1  0.49510727  0.62862128  0.74505631  1
  O  O236  1  0.99376186  0.12675711  0.24382800  1
  O  O237  1  0.99325390  0.13008262  0.74566045  1
  O  O238  1  1.00051191  0.63026596  0.24449907  1
  O  O239  1  0.99498954  0.62968826  0.74613681  1
  O  O240  1  0.37060778  0.25617585  0.00401320  1
  O  O241  1  0.36335178  0.24799607  0.50143778  1
  O  O242  1  0.36689221  0.75254578  0.00744671  1
  O  O243  1  0.37413645  0.76374760  0.50236981  1
  O  O244  1  0.87338650  0.25500724  0.00907898  1
  O  O245  1  0.87154592  0.25737596  0.50446684  1
  O  O246  1  0.86768114  0.75128435  0.00894437  1
  O  O247  1  0.87530541  0.75500813  0.50655529  1
  O  O248  1  0.13225722  0.24027429  0.50215602  1
  O  O249  1  0.12808877  0.24612198  0.99612474  1
  O  O250  1  0.12714255  0.74614756  0.49201798  1
  O  O251  1  0.13111568  0.74328418  0.99910388  1
  O  O252  1  0.63109297  0.24467983  0.49301542  1
  O  O253  1  0.62549090  0.24224580  0.99381649  1
  O  O254  1  0.62516326  0.74227872  0.49244075  1
  O  O255  1  0.63561354  0.74801441  0.99460785  1
  O  O256  1  0.49356011  0.24957379  0.13135559  1
  O  O257  1  0.49919037  0.24839071  0.63267631  1
  O  O258  1  0.49548270  0.74612470  0.12937526  1
  O  O259  1  0.49955893  0.74199406  0.63174384  1
  O  O260  1  0.98870406  0.24447292  0.12634930  1
  O  O261  1  0.99365330  0.24399456  0.63158743  1
  O  O262  1  0.99288863  0.74567316  0.12984247  1
  O  O263  1  0.99489788  0.74344081  0.63169602  1
  O  O264  1  0.00585014  0.25720274  0.37118761  1
  O  O265  1  0.00350332  0.25545875  0.87014003  1
  O  O266  1  0.00527637  0.75300430  0.37004668  1
  O  O267  1  0.00034703  0.75726490  0.86889531  1
  O  O268  1  0.50653569  0.25454530  0.36844238  1
  O  O269  1  0.50651749  0.25808143  0.86876129  1
  O  O270  1  0.50458029  0.75546489  0.36914345  1
  O  O271  1  0.50597775  0.75592724  0.86929891  1
  O  O272  1  0.24127882  0.13026400  0.50364095  1
  O  O273  1  0.24111166  0.13346304  1.00061867  1
  O  O274  1  0.24968994  0.62544034  0.48890571  1
  O  O275  1  0.24534837  0.62977743  0.99504130  1
  O  O276  1  0.74529267  0.13044865  0.49349395  1
  O  O277  1  0.73811135  0.12704727  0.99284645  1
  O  O278  1  0.74366924  0.62308987  0.48931020  1
  O  O279  1  0.75063745  0.63557171  0.99349944  1
  O  O280  1  0.25594467  0.37071684  0.00407217  1
  O  O281  1  0.24888567  0.36468648  0.50582770  1
  O  O282  1  0.24752774  0.86818688  0.00784154  1
  O  O283  1  0.25703224  0.87530271  0.50836504  1
  O  O284  1  0.75889483  0.37375224  0.00200394  1
  O  O285  1  0.75945040  0.36992502  0.50029353  1
  O  O286  1  0.75194835  0.86223165  0.00149719  1
  O  O287  1  0.75869483  0.87044211  0.50074358  1
  O  O288  1  0.13413237  0.49113502  0.24722658  1
  O  O289  1  0.13050198  0.49364561  0.74591113  1
  O  O290  1  0.12826358  0.99528374  0.24521659  1
  O  O291  1  0.12379277  0.98707070  0.74881725  1
  O  O292  1  0.63268626  0.49442787  0.24422711  1
  O  O293  1  0.63045069  0.49560003  0.74521693  1
  O  O294  1  0.62557960  0.99544186  0.24109286  1
  O  O295  1  0.62953383  0.99536162  0.74422703  1
  O  O296  1  0.36900701  0.00988209  0.24720898  1
  O  O297  1  0.37527256  0.01178353  0.75334819  1
  O  O298  1  0.37033987  0.50139317  0.25753322  1
  O  O299  1  0.36983022  0.50459000  0.75544566  1
  O  O300  1  0.87434731  0.00603359  0.25735022  1
  O  O301  1  0.86920252  0.00639969  0.75507412  1
  O  O302  1  0.86430803  0.50134094  0.25171022  1
  O  O303  1  0.87102703  0.50516409  0.75534385  1
  O  O304  1  0.12633133  0.37479406  0.36213377  1
  O  O305  1  0.11827177  0.36977291  0.86980435  1
  O  O306  1  0.11943481  0.86946261  0.37058498  1
  O  O307  1  0.11744436  0.87400283  0.86624493  1
  O  O308  1  0.62072381  0.36797642  0.36855272  1
  O  O309  1  0.61957904  0.37130485  0.86903169  1
  O  O310  1  0.61833550  0.86928681  0.37021440  1
  O  O311  1  0.61792105  0.86912541  0.86854378  1
  O  O312  1  0.37624495  0.13183376  0.13370048  1
  O  O313  1  0.37807184  0.12764746  0.63664552  1
  O  O314  1  0.38180593  0.63294915  0.12764872  1
  O  O315  1  0.38161235  0.62445491  0.63105798  1
  O  O316  1  0.87841841  0.13243938  0.12997785  1
  O  O317  1  0.87905287  0.13023029  0.63022144  1
  O  O318  1  0.88212151  0.63582490  0.12662619  1
  O  O319  1  0.88121479  0.62925267  0.63148053  1
  O  O320  1  0.25663314  0.25739062  0.11748499  1
  O  O321  1  0.24956259  0.25586821  0.61542035  1
  O  O322  1  0.25438985  0.75547027  0.12143870  1
  O  O323  1  0.25195021  0.76134369  0.62328732  1
  O  O324  1  0.76266331  0.25218130  0.12380584  1
  O  O325  1  0.75651013  0.25118652  0.61723278  1
  O  O326  1  0.75762169  0.74776047  0.11772043  1
  O  O327  1  0.75855477  0.75020569  0.62199404  1
  O  O328  1  0.24607779  0.24657848  0.38783257  1
  O  O329  1  0.24087444  0.25039213  0.88223877  1
  O  O330  1  0.24536606  0.74107468  0.37525829  1
  O  O331  1  0.24860790  0.74257106  0.88214600  1
  O  O332  1  0.74537675  0.24410856  0.37983422  1
  O  O333  1  0.74276543  0.24320540  0.87533418  1
  O  O334  1  0.74329749  0.73795383  0.37407025  1
  O  O335  1  0.74731542  0.74589048  0.88206279  1
  O  O336  1  0.00381254  0.11962572  0.00675775  1
  O  O337  1  0.00675490  0.12075187  0.50553477  1
  O  O338  1  0.00578776  0.62083881  0.00416407  1
  O  O339  1  0.00019627  0.61353548  0.50695023  1
  O  O340  1  0.51295043  0.12478621  -0.00057332  1
  O  O341  1  0.50659792  0.11836973  0.49881265  1
  O  O342  1  0.50134542  0.61890368  0.00547684  1
  O  O343  1  0.50493066  0.61868784  0.50432948  1
  O  O344  1  0.50114691  0.38046765  0.49189816  1
  O  O345  1  0.49448642  0.38105414  0.99342595  1
  O  O346  1  0.49212022  0.87974681  0.49575517  1
  O  O347  1  0.49973580  0.87394155  0.98707463  1
  O  O348  1  0.99271804  0.38369232  0.50277990  1
  O  O349  1  0.99511427  0.38109385  0.99397037  1
  O  O350  1  0.99530289  0.87947262  0.49501881  1
  O  O351  1  0.99771829  0.88249505  0.99465567  1
  O  O352  1  0.49696591  0.49471762  0.37887765  1
  O  O353  1  0.49478145  0.49578275  0.87953063  1
  O  O354  1  0.49741473  0.99249571  0.38157248  1
  O  O355  1  0.50055643  0.98691551  0.87558005  1
  O  O356  1  0.99919535  0.49926509  0.38721917  1
  O  O357  1  0.99445472  0.49465130  0.87937533  1
  O  O358  1  0.99454082  0.99302229  0.38170125  1
  O  O359  1  0.99256556  0.99608540  0.88143997  1
  O  O360  1  0.00324346  0.00505331  0.12091739  1
  O  O361  1  -0.00018525  0.00654018  0.61856216  1
  O  O362  1  0.00137213  0.50835090  0.11684998  1
  O  O363  1  0.00531154  0.50417808  0.61919297  1
  O  O364  1  0.51350520  0.00258503  0.12235966  1
  O  O365  1  0.50757761  0.00128702  0.61710802  1
  O  O366  1  0.50483495  0.50530797  0.11946412  1
  O  O367  1  0.50612057  0.50518782  0.61942202  1
  O  O368  1  0.24517603  0.37937260  0.24438851  1
  O  O369  1  0.24417945  0.38016811  0.74605196  1
  O  O370  1  0.24352013  0.88077891  0.24487637  1
  O  O371  1  0.24138053  0.87253679  0.74399607  1
  O  O372  1  0.74489272  0.38569841  0.25044981  1
  O  O373  1  0.74403519  0.38270584  0.74869470  1
  O  O374  1  0.74048794  0.87645101  0.24867488  1
  O  O375  1  0.74258087  0.88195123  0.74896727  1
  O  O376  1  0.25824318  0.12109379  0.24866375  1
  O  O377  1  0.25897988  0.12417189  0.75161147  1
  O  O378  1  0.25194850  0.61916313  0.26059122  1
  O  O379  1  0.25498990  0.61909041  0.75481286  1
  O  O380  1  0.75779130  0.12264875  0.25766575  1
  O  O381  1  0.75424605  0.11979388  0.75455319  1
  O  O382  1  0.74868382  0.61579485  0.25865482  1
  O  O383  1  0.75653512  0.61994654  0.75568128  1
  O  O384  1  0.37218169  0.12315530  0.36092094  1
  O  O385  1  0.37301712  0.12641984  0.86408772  1
  O  O386  1  0.36693256  0.61947425  0.37394881  1
  O  O387  1  0.36997730  0.61892338  0.86935515  1
  O  O388  1  0.87137733  0.11999092  0.37124854  1
  O  O389  1  0.86898293  0.12048605  0.86939941  1
  O  O390  1  0.86326784  0.62263307  0.37386311  1
  O  O391  1  0.87118993  0.61990142  0.86949190  1
  O  O392  1  0.13272986  0.37755345  0.13256808  1
  O  O393  1  0.12983388  0.37990328  0.63260373  1
  O  O394  1  0.12835672  0.88092010  0.13225156  1
  O  O395  1  0.13155642  0.87474672  0.63375413  1
  O  O396  1  0.62728291  0.38177113  0.13100605  1
  O  O397  1  0.62737802  0.38236413  0.63095412  1
  O  O398  1  0.62560590  0.88312145  0.13014643  1
  O  O399  1  0.62568629  0.88075678  0.63098873  1
  O  O400  1  0.12558147  0.26202210  0.24877247  1
  O  O401  1  0.11801930  0.25471508  0.75515848  1
  O  O402  1  0.11960036  0.75585860  0.25588840  1
  O  O403  1  0.11809017  0.76061297  0.75176532  1
  O  O404  1  0.62131892  0.25388423  0.25415361  1
  O  O405  1  0.62019677  0.25590736  0.75467147  1
  O  O406  1  0.61827123  0.75557884  0.25469819  1
  O  O407  1  0.62012543  0.75466665  0.75536214  1
  O  O408  1  0.37893036  0.24325862  0.24449145  1
  O  O409  1  0.38139005  0.24266508  0.74915230  1
  O  O410  1  0.38212455  0.75034514  0.24311999  1
  O  O411  1  0.38204174  0.74129398  0.74821001  1
  O  O412  1  0.87623415  0.24592813  0.24114894  1
  O  O413  1  0.87927735  0.24494015  0.74540214  1
  O  O414  1  0.88076028  0.74728696  0.24177136  1
  O  O415  1  0.88027160  0.74440159  0.74527031  1
  O  O416  1  0.38324811  0.49663501  0.49258932  1
  O  O417  1  0.38047289  0.49471147  0.99389569  1
  O  O418  1  0.37966520  0.98987182  0.50057419  1
  O  O419  1  0.38003915  0.99754623  0.99780380  1
  O  O420  1  0.88372928  0.49156493  0.50196218  1
  O  O421  1  0.88114781  0.49622551  0.99416776  1
  O  O422  1  0.88096958  0.99412791  0.49470121  1
  O  O423  1  0.87855596  1.00025051  0.99443145  1
  O  O424  1  0.11695948  0.00630218  0.00712469  1
  O  O425  1  0.11908965  0.00873024  0.50235533  1
  O  O426  1  0.11871816  0.50671676  0.00051682  1
  O  O427  1  0.11560660  0.49873920  0.50714630  1
  O  O428  1  0.62459755  0.00841671  0.00661257  1
  O  O429  1  0.62019973  0.00449783  0.50359970  1
  O  O430  1  0.61896771  0.50154248  0.00533508  1
  O  O431  1  0.61979145  0.50494397  0.50455307  1
  O  O432  1  0.37129327  0.37044489  0.11862935  1
  O  O433  1  0.36631271  0.37210111  0.62131861  1
  O  O434  1  0.36699120  0.86925304  0.12384423  1
  O  O435  1  0.36733881  0.87408374  0.61867871  1
  O  O436  1  0.87520685  0.36667915  0.11918252  1
  O  O437  1  0.87349580  0.36891199  0.61497910  1
  O  O438  1  0.87319572  0.86210411  0.12500521  1
  O  O439  1  0.87405955  0.86775536  0.61887095  1
  O  O440  1  0.12556627  0.12606123  0.38883595  1
  O  O441  1  0.12261748  0.13247601  0.88237928  1
  O  O442  1  0.13606668  0.62893897  0.37668876  1
  O  O443  1  0.13231723  0.62697795  0.88086050  1
  O  O444  1  0.63087208  0.12968608  0.37906146  1
  O  O445  1  0.62853728  0.12970400  0.88091972  1
  O  O446  1  0.63136838  0.62926377  0.37923245  1
  O  O447  1  0.63294178  0.63202514  0.87568958  1
