# generated using pymatgen
data_V3Zn3O8
_symmetry_space_group_name_H-M   'P 1'
_cell_length_a   17.08793926
_cell_length_b   17.08970750
_cell_length_c   17.08936253
_cell_angle_alpha   89.97781502
_cell_angle_beta   89.98846582
_cell_angle_gamma   89.98983339
_symmetry_Int_Tables_number   1
_chemical_formula_structural   V3Zn3O8
_chemical_formula_sum   'V96 Zn96 O256'
_cell_volume   4990.56982125
_cell_formula_units_Z   32
loop_
 _symmetry_equiv_pos_site_id
 _symmetry_equiv_pos_as_xyz
  1  'x, y, z'
loop_
 _atom_site_type_symbol
 _atom_site_label
 _atom_site_symmetry_multiplicity
 _atom_site_fract_x
 _atom_site_fract_y
 _atom_site_fract_z
 _atom_site_occupancy
  V  V0  1  0.74937483  0.25018132  -0.00074092  1
  V  V1  1  0.25083610  0.75105381  0.50007928  1
  V  V2  1  0.49940229  0.50022559  0.00028714  1
  V  V3  1  0.50115960  0.25074801  0.24994423  1
  V  V4  1  0.37512670  0.49979111  0.87702633  1
  V  V5  1  0.62489660  0.25129247  0.87560058  1
  V  V6  1  0.50113316  0.12444753  0.62482601  1
  V  V7  1  0.37436542  0.62464663  0.75035002  1
  V  V8  1  0.37682114  0.00002120  0.37648345  1
  V  V9  1  0.74983543  0.75049565  -0.00029655  1
  V  V10  1  0.87488717  0.87582692  -0.00028465  1
  V  V11  1  0.62543889  0.62442575  0.50037346  1
  V  V12  1  0.00103647  0.25013006  0.25081471  1
  V  V13  1  0.87483270  0.00080633  0.87486378  1
  V  V14  1  0.25134095  0.24972503  0.00215572  1
  V  V15  1  0.12642773  0.49823383  0.12640618  1
  V  V16  1  0.00033762  0.62498547  0.12419849  1
  V  V17  1  0.62542275  0.25082453  0.37486827  1
  V  V18  1  0.12342983  0.62410786  0.49941019  1
  V  V19  1  0.12371319  0.74884381  0.87257811  1
  V  V20  1  0.49954590  0.49944527  0.50082255  1
  V  V21  1  0.87582878  0.37529222  0.49949083  1
  V  V22  1  0.37628773  0.62586722  0.24995450  1
  V  V23  1  0.37571000  0.50019842  0.37580044  1
  V  V24  1  0.87559024  0.75033901  0.12451160  1
  V  V25  1  0.12540715  -0.00085492  0.12522410  1
  V  V26  1  0.24990783  0.37533114  0.62631804  1
  V  V27  1  0.87401358  0.87421410  0.49970534  1
  V  V28  1  0.75079089  0.50002096  0.24927675  1
  V  V29  1  0.75030777  0.62549676  0.87436778  1
  V  V30  1  0.74952368  -0.00021179  0.24980112  1
  V  V31  1  0.25036163  0.24980701  0.49979440  1
  V  V32  1  0.49852710  0.87540979  0.87474521  1
  V  V33  1  0.12459580  -0.00278348  0.62428186  1
  V  V34  1  0.12549185  0.12482984  -0.00092722  1
  V  V35  1  0.00010562  0.00038872  -0.00074015  1
  V  V36  1  0.50008440  0.62715125  0.12526739  1
  V  V37  1  0.87509804  0.24957461  0.12473288  1
  V  V38  1  0.37425083  0.12432717  0.75086195  1
  V  V39  1  0.74939922  0.12615397  0.87567743  1
  V  V40  1  0.75090159  0.37533647  0.12491830  1
  V  V41  1  0.00117129  0.25006594  0.74915051  1
  V  V42  1  0.87459458  0.62299276  0.74895393  1
  V  V43  1  0.00020997  0.12438397  0.62394509  1
  V  V44  1  0.87465196  0.12454327  0.25012865  1
  V  V45  1  0.62453057  0.37503185  0.75058671  1
  V  V46  1  0.74706776  -0.00157020  0.74857714  1
  V  V47  1  0.87489837  0.50048645  0.37373695  1
  V  V48  1  0.87622307  0.37490228  -0.00096914  1
  V  V49  1  0.00146179  0.37366861  0.37327875  1
  V  V50  1  0.37627475  0.12662600  0.25098814  1
  V  V51  1  0.74986342  0.12489806  0.37537286  1
  V  V52  1  0.87483810  0.75036900  0.62437075  1
  V  V53  1  0.62517085  0.62669801  -0.00002983  1
  V  V54  1  0.00001282  0.37481439  0.87526354  1
  V  V55  1  0.49750662  0.00006926  0.00045042  1
  V  V56  1  0.62509890  0.49905860  0.62639575  1
  V  V57  1  0.00040285  0.75138061  0.24951524  1
  V  V58  1  0.25063388  0.62549838  0.37444682  1
  V  V59  1  0.87553991  0.25014510  0.62433573  1
  V  V60  1  0.37521183  0.37587876  0.50060935  1
  V  V61  1  0.37418254  0.74968384  0.62432888  1
  V  V62  1  0.50005343  0.74957751  0.24997503  1
  V  V63  1  0.62611549  0.37551486  0.25011547  1
  V  V64  1  0.49987473  0.62469737  0.62606316  1
  V  V65  1  0.75044616  0.24983843  0.50003679  1
  V  V66  1  0.12544233  0.37396881  0.74949620  1
  V  V67  1  0.25049977  -0.00037745  0.75017324  1
  V  V68  1  0.50042768  0.87489136  0.37727177  1
  V  V69  1  0.12399740  0.62415174  -0.00037579  1
  V  V70  1  0.24856241  0.62468422  0.87414517  1
  V  V71  1  0.62457343  0.87399881  0.25042651  1
  V  V72  1  0.25049801  0.50036043  0.24923340  1
  V  V73  1  0.00042467  0.50029809  0.49900413  1
  V  V74  1  0.74882040  0.74887312  0.49937518  1
  V  V75  1  0.87448859  0.62490675  0.24935224  1
  V  V76  1  0.25075320  0.12542095  0.37588911  1
  V  V77  1  0.62408833  0.00026884  0.12513152  1
  V  V78  1  0.12499302  0.87577716  0.24986772  1
  V  V79  1  -0.00046678  0.74940903  0.74918900  1
  V  V80  1  0.24985055  0.00001559  0.25042546  1
  V  V81  1  0.49966469  0.25028356  0.75222956  1
  V  V82  1  0.87458363  -0.00065459  0.37580889  1
  V  V83  1  0.87523216  0.12514545  0.74947379  1
  V  V84  1  0.50003267  0.12535313  0.12642438  1
  V  V85  1  0.00017124  0.87425376  0.87333825  1
  V  V86  1  0.75015976  0.87567422  0.12478289  1
  V  V87  1  -0.00062121  0.12463091  0.12492742  1
  V  V88  1  0.24950959  0.49845609  0.75057693  1
  V  V89  1  -0.00103412  0.87544749  0.37425712  1
  V  V90  1  0.12569205  0.12484632  0.49922144  1
  V  V91  1  0.25099719  0.75265105  0.00068195  1
  V  V92  1  0.62419824  0.12457040  0.50176069  1
  V  V93  1  0.50019536  0.75116852  0.75047147  1
  V  V94  1  0.74972656  0.37543085  0.62533279  1
  V  V95  1  0.37497948  0.25010052  0.62654409  1
  Zn  Zn96  1  0.25148687  0.87430102  0.62454972  1
  Zn  Zn97  1  0.62427721  0.87474052  0.74782961  1
  Zn  Zn98  1  0.12517427  0.75191933  0.37389628  1
  Zn  Zn99  1  0.37399659  0.75297842  0.12599944  1
  Zn  Zn100  1  0.62532861  0.74729396  0.37447075  1
  Zn  Zn101  1  0.12826611  0.37191139  0.25087618  1
  Zn  Zn102  1  0.24984343  0.12504074  0.87574450  1
  Zn  Zn103  1  0.74833706  0.62435166  0.37343800  1
  Zn  Zn104  1  0.50085076  -0.00095352  0.50288060  1
  Zn  Zn105  1  0.49888578  0.37431616  0.87730489  1
  Zn  Zn106  1  -0.00014515  0.49912756  0.00021868  1
  Zn  Zn107  1  0.37388538  0.87486544  0.00297729  1
  Zn  Zn108  1  0.62452737  0.75255484  0.87342779  1
  Zn  Zn109  1  0.12706372  0.24791440  0.87500254  1
  Zn  Zn110  1  0.25161188  0.87571990  0.12514355  1
  Zn  Zn111  1  0.62399602  0.12676152  0.00077853  1
  Zn  Zn112  1  -0.00067770  0.62316391  0.62395567  1
  Zn  Zn113  1  0.74974895  0.49900072  0.75104717  1
  Zn  Zn114  1  0.37603545  0.25357617  0.12601136  1
  Zn  Zn115  1  0.87519540  0.49973317  0.87639398  1
  Zn  Zn116  1  0.12629405  0.87189849  0.74751509  1
  Zn  Zn117  1  0.62326687  -0.00189715  0.62430292  1
  Zn  Zn118  1  0.12637580  0.25081663  0.37346554  1
  Zn  Zn119  1  0.25322908  0.37402775  0.12657836  1
  Zn  Zn120  1  0.37596689  0.87661423  0.50186968  1
  Zn  Zn121  1  0.37462409  0.37351767  0.00197170  1
  Zn  Zn122  1  0.74685895  0.87580591  0.62519774  1
  Zn  Zn123  1  0.50059411  0.37559617  0.37460161  1
  Zn  Zn124  1  -0.00108882  -0.00090542  0.49980294  1
  Zn  Zn125  1  0.12337952  0.49911095  0.62503872  1
  Zn  Zn126  1  0.37181318  0.00055156  0.87733179  1
  Zn  Zn127  1  0.62628828  0.50119572  0.12544091  1
  Zn  Zn128  1  0.18715901  0.18624075  0.18689279  1
  Zn  Zn129  1  0.18729864  0.18616639  0.68670484  1
  Zn  Zn130  1  0.18657877  0.68748041  0.18668900  1
  Zn  Zn131  1  0.18661652  0.68496580  0.68524047  1
  Zn  Zn132  1  0.68642310  0.18779246  0.18692569  1
  Zn  Zn133  1  0.68661709  0.18773263  0.68810508  1
  Zn  Zn134  1  0.68673973  0.68736830  0.18649709  1
  Zn  Zn135  1  0.68588616  0.68948778  0.68699570  1
  Zn  Zn136  1  0.31325609  0.31409366  0.31255485  1
  Zn  Zn137  1  0.31282403  0.31253095  0.81777176  1
  Zn  Zn138  1  0.31344851  0.81315961  0.31312121  1
  Zn  Zn139  1  0.31330964  0.81451603  0.81259463  1
  Zn  Zn140  1  0.81351042  0.31288199  0.31220841  1
  Zn  Zn141  1  0.81261587  0.31209863  0.81172476  1
  Zn  Zn142  1  0.81237691  0.81165410  0.31364715  1
  Zn  Zn143  1  0.81375240  0.81245064  0.81251739  1
  Zn  Zn144  1  0.18775862  0.43711752  0.43605264  1
  Zn  Zn145  1  0.18702842  0.43488895  0.93874654  1
  Zn  Zn146  1  0.18728879  0.93742781  0.43614127  1
  Zn  Zn147  1  0.18479878  0.93632688  0.93472443  1
  Zn  Zn148  1  0.68802692  0.43795110  0.43669258  1
  Zn  Zn149  1  0.68678861  0.43894401  0.93720964  1
  Zn  Zn150  1  0.68599854  0.93727288  0.43849925  1
  Zn  Zn151  1  0.68385636  0.93828887  0.93638940  1
  Zn  Zn152  1  0.31303721  0.06472503  0.06533234  1
  Zn  Zn153  1  0.31419730  0.06234168  0.56247959  1
  Zn  Zn154  1  0.31322200  0.56603529  0.06344311  1
  Zn  Zn155  1  0.31154293  0.56237958  0.56355382  1
  Zn  Zn156  1  0.81178421  0.06324828  0.06168175  1
  Zn  Zn157  1  0.81179674  0.06186498  0.56263248  1
  Zn  Zn158  1  0.81421312  0.56043123  0.06162193  1
  Zn  Zn159  1  0.81181744  0.56224720  0.56268839  1
  Zn  Zn160  1  0.43759238  0.43675577  0.18560479  1
  Zn  Zn161  1  0.43760017  0.43673729  0.68919099  1
  Zn  Zn162  1  0.43454437  0.93574986  0.18759963  1
  Zn  Zn163  1  0.43642167  0.93691136  0.68596755  1
  Zn  Zn164  1  0.93896143  0.43676650  0.18760794  1
  Zn  Zn165  1  0.93859928  0.43882314  0.68627236  1
  Zn  Zn166  1  0.93767702  0.93802491  0.18764900  1
  Zn  Zn167  1  0.93558438  0.93592086  0.68668748  1
  Zn  Zn168  1  0.06271426  0.06233621  0.31337500  1
  Zn  Zn169  1  0.06417198  0.06274475  0.81216596  1
  Zn  Zn170  1  0.06257348  0.56298121  0.31245306  1
  Zn  Zn171  1  0.06194567  0.56033728  0.81210033  1
  Zn  Zn172  1  0.56296404  0.06246934  0.31396092  1
  Zn  Zn173  1  0.56233697  0.06422896  0.81456616  1
  Zn  Zn174  1  0.56365165  0.56164964  0.31393918  1
  Zn  Zn175  1  0.56292660  0.56306197  0.81367056  1
  Zn  Zn176  1  0.43896855  0.18858831  0.43769345  1
  Zn  Zn177  1  0.43523226  0.18552757  0.93694939  1
  Zn  Zn178  1  0.43833716  0.68727354  0.43714934  1
  Zn  Zn179  1  0.43621427  0.68766643  0.93639433  1
  Zn  Zn180  1  0.93910777  0.18703973  0.43721979  1
  Zn  Zn181  1  0.93759605  0.18867108  0.93665903  1
  Zn  Zn182  1  0.93658670  0.68800683  0.43474171  1
  Zn  Zn183  1  0.93782498  0.68769875  0.93711309  1
  Zn  Zn184  1  0.06483522  0.31158122  0.06281141  1
  Zn  Zn185  1  0.06422660  0.31251230  0.56149815  1
  Zn  Zn186  1  0.06426568  0.81311809  0.06182228  1
  Zn  Zn187  1  0.06088019  0.81131342  0.56164073  1
  Zn  Zn188  1  0.56376139  0.31424354  0.06400312  1
  Zn  Zn189  1  0.56198026  0.31191305  0.56348779  1
  Zn  Zn190  1  0.56245671  0.81259312  0.06198186  1
  Zn  Zn191  1  0.56497174  0.81310937  0.56535609  1
  O  O192  1  0.11733501  0.11775512  0.11957097  1
  O  O193  1  0.11991675  0.11614957  0.61942500  1
  O  O194  1  0.11930474  0.61737476  0.11993384  1
  O  O195  1  0.12300338  0.62171571  0.61095659  1
  O  O196  1  0.61872172  0.11749485  0.12432090  1
  O  O197  1  0.61872995  0.12592966  0.61891324  1
  O  O198  1  0.61888319  0.62363961  0.11744020  1
  O  O199  1  0.61899877  0.61875615  0.62051856  1
  O  O200  1  0.37651370  0.38281750  0.38314905  1
  O  O201  1  0.37853028  0.38483836  0.88036017  1
  O  O202  1  0.38595376  0.88086493  0.37510561  1
  O  O203  1  0.38672636  0.87870108  0.87850809  1
  O  O204  1  0.88065776  0.38027908  0.38060268  1
  O  O205  1  0.88381322  0.37454175  0.87913014  1
  O  O206  1  0.87939338  0.88055479  0.37915491  1
  O  O207  1  0.88039107  0.88057228  0.88121045  1
  O  O208  1  0.25645646  0.00569742  0.37021940  1
  O  O209  1  0.24948988  0.00079264  0.86244099  1
  O  O210  1  0.25615258  0.50680276  0.37001600  1
  O  O211  1  0.25402081  0.50532980  0.87067871  1
  O  O212  1  0.75464734  0.00533707  0.36878810  1
  O  O213  1  0.75564578  0.00559189  0.86923629  1
  O  O214  1  0.75807962  0.50061392  0.36801250  1
  O  O215  1  0.75291931  0.51337088  0.87327737  1
  O  O216  1  0.24022077  0.50383552  0.13032547  1
  O  O217  1  0.24945041  0.49296994  0.63285867  1
  O  O218  1  0.24244278  1.00017657  0.13243210  1
  O  O219  1  0.24091373  0.99948560  0.63162108  1
  O  O220  1  0.75026153  0.49280593  0.13114538  1
  O  O221  1  0.74315773  0.49302578  0.62606277  1
  O  O222  1  0.74531266  0.99488672  0.12994931  1
  O  O223  1  0.75023526  1.00056633  0.63820284  1
  O  O224  1  0.00064043  0.36750992  0.25596425  1
  O  O225  1  0.00417506  0.36959007  0.75604633  1
  O  O226  1  0.00443538  0.87058255  0.25423957  1
  O  O227  1  -0.00079130  0.86744541  0.75622674  1
  O  O228  1  0.50811683  0.36954560  0.25139806  1
  O  O229  1  0.50646989  0.36790523  0.75193113  1
  O  O230  1  0.50528261  0.87013338  0.25780321  1
  O  O231  1  0.49855153  0.87028449  0.75935560  1
  O  O232  1  0.49641102  0.13039368  0.24636354  1
  O  O233  1  0.49456541  0.13114012  0.74530191  1
  O  O234  1  0.49624868  0.62962256  0.24555026  1
  O  O235  1  0.49381825  0.63006961  0.74553001  1
  O  O236  1  0.99333417  0.12875025  0.24445878  1
  O  O237  1  0.99453935  0.12969581  0.74411685  1
  O  O238  1  0.99438916  0.63131879  0.24405318  1
  O  O239  1  0.98969112  0.63001071  0.75052319  1
  O  O240  1  0.36460585  0.24883805  0.00280442  1
  O  O241  1  0.37000799  0.25554126  0.50661038  1
  O  O242  1  0.36131963  0.74930918  -0.00019222  1
  O  O243  1  0.36450534  0.74712476  0.50525828  1
  O  O244  1  0.86926172  0.25468270  0.00570788  1
  O  O245  1  0.86993973  0.25518401  0.50489585  1
  O  O246  1  0.87012579  0.75640803  0.00535288  1
  O  O247  1  0.86724385  0.75326131  0.50404976  1
  O  O248  1  0.13301596  0.24243787  0.49957583  1
  O  O249  1  0.13313086  0.24212317  1.00061905  1
  O  O250  1  0.13297563  0.74110896  0.49855844  1
  O  O251  1  0.13129590  0.74428876  0.99307986  1
  O  O252  1  0.63175854  0.24559088  0.49510225  1
  O  O253  1  0.63224088  0.25007203  0.99403193  1
  O  O254  1  0.63423188  0.74317232  0.50068778  1
  O  O255  1  0.63275440  0.74476901  0.99787012  1
  O  O256  1  0.50159891  0.24288606  0.13202104  1
  O  O257  1  0.49384943  0.24496133  0.63213318  1
  O  O258  1  0.49888925  0.74460931  0.13185493  1
  O  O259  1  0.49411011  0.74327340  0.62982240  1
  O  O260  1  0.99398994  0.24385192  0.12966415  1
  O  O261  1  0.99448319  0.24482144  0.62947736  1
  O  O262  1  0.99455689  0.74543570  0.12924368  1
  O  O263  1  0.99278551  0.74619436  0.63068401  1
  O  O264  1  0.00039971  0.25542397  0.36837971  1
  O  O265  1  0.00058228  0.25952380  0.86823727  1
  O  O266  1  0.00016899  0.75745175  0.36679889  1
  O  O267  1  0.00430870  0.75469885  0.86937013  1
  O  O268  1  0.50808585  0.25209264  0.36857906  1
  O  O269  1  0.50648680  0.25107949  0.87009426  1
  O  O270  1  0.50129431  0.75887102  0.36930420  1
  O  O271  1  0.49948927  0.75878709  0.86988823  1
  O  O272  1  0.24604829  0.13057684  0.49548226  1
  O  O273  1  0.24349587  0.13138765  1.00000970  1
  O  O274  1  0.24304775  0.63125256  0.49489293  1
  O  O275  1  0.24358486  0.63295197  0.99333063  1
  O  O276  1  0.74580864  0.13134663  0.49448159  1
  O  O277  1  0.74904113  0.13177049  0.99370637  1
  O  O278  1  0.74497785  0.63342134  0.49955136  1
  O  O279  1  0.74746024  0.63030956  0.99253918  1
  O  O280  1  0.24981927  0.36304803  0.00283142  1
  O  O281  1  0.25578089  0.37037431  0.50596695  1
  O  O282  1  0.24897075  0.86375928  -0.00174873  1
  O  O283  1  0.25026408  0.86130310  0.49945392  1
  O  O284  1  0.75583876  0.36981324  0.00452105  1
  O  O285  1  0.75623424  0.36917996  0.50513177  1
  O  O286  1  0.75500972  0.87154643  0.00456902  1
  O  O287  1  0.75516547  0.86464152  0.49945829  1
  O  O288  1  0.13149096  0.50255398  0.24049211  1
  O  O289  1  0.13176753  0.49299884  0.74812580  1
  O  O290  1  0.12993198  0.99587302  0.24471698  1
  O  O291  1  0.13266584  1.00023452  0.73962328  1
  O  O292  1  0.63266893  0.49381576  0.24908280  1
  O  O293  1  0.62550289  0.49425255  0.74361818  1
  O  O294  1  0.63096302  0.99428531  0.24509823  1
  O  O295  1  0.63810399  1.00167684  0.75133657  1
  O  O296  1  0.36998837  0.00646272  0.25690609  1
  O  O297  1  0.36385719  0.00559921  0.74772930  1
  O  O298  1  0.37082216  0.50671419  0.25580758  1
  O  O299  1  0.36964977  0.50545594  0.75634104  1
  O  O300  1  0.86860272  0.00517920  0.25490483  1
  O  O301  1  0.86786021  0.00582783  0.75571049  1
  O  O302  1  0.87067090  0.50529369  0.25396251  1
  O  O303  1  0.87316670  0.51193867  0.75080667  1
  O  O304  1  0.11677915  0.37269631  0.37271397  1
  O  O305  1  0.11513635  0.37228812  0.86876187  1
  O  O306  1  0.11714085  0.87480194  0.36799365  1
  O  O307  1  0.11641339  0.86725450  0.87102892  1
  O  O308  1  0.62533098  0.36794652  0.36883673  1
  O  O309  1  0.62421746  0.36918276  0.86836639  1
  O  O310  1  0.61593558  0.87405422  0.36847108  1
  O  O311  1  0.61139349  0.87406361  0.87255461  1
  O  O312  1  0.38352768  0.12631610  0.13472248  1
  O  O313  1  0.38052769  0.13179881  0.63079083  1
  O  O314  1  0.38203462  0.62870113  0.13288436  1
  O  O315  1  0.38038659  0.62922776  0.63135438  1
  O  O316  1  0.87967347  0.12956099  0.13041675  1
  O  O317  1  0.88040724  0.13080542  0.62946322  1
  O  O318  1  0.88056092  0.63118643  0.12912895  1
  O  O319  1  0.87448221  0.63073422  0.63459229  1
  O  O320  1  0.25113586  0.24969740  0.11509329  1
  O  O321  1  0.25624691  0.25515715  0.62014141  1
  O  O322  1  0.24805564  0.75063897  0.11181497  1
  O  O323  1  0.25488527  0.74830951  0.61537530  1
  O  O324  1  0.75614192  0.25478026  0.11980083  1
  O  O325  1  0.75613700  0.25515438  0.61950234  1
  O  O326  1  0.75619629  0.75648009  0.11945358  1
  O  O327  1  0.75563251  0.75024968  0.61454442  1
  O  O328  1  0.25015181  0.24319266  0.38215586  1
  O  O329  1  0.24706577  0.24667678  0.88678597  1
  O  O330  1  0.24934074  0.74357975  0.38402975  1
  O  O331  1  0.24395451  0.74419536  0.88021216  1
  O  O332  1  0.74628190  0.24416212  0.38027910  1
  O  O333  1  0.74557577  0.24515482  0.87986392  1
  O  O334  1  0.74895116  0.74753339  0.38705176  1
  O  O335  1  0.75035415  0.74085969  0.88080402  1
  O  O336  1  0.00345617  0.11979998  0.00552310  1
  O  O337  1  0.00617645  0.12245686  0.50647000  1
  O  O338  1  0.00600287  0.62396478  0.00587184  1
  O  O339  1  0.00853892  0.62042232  0.49764000  1
  O  O340  1  0.50123386  0.11527749  0.00630492  1
  O  O341  1  0.50708739  0.12618535  0.50709296  1
  O  O342  1  0.50494728  0.62013972  0.00416532  1
  O  O343  1  0.50474321  0.61949140  0.50703822  1
  O  O344  1  0.49310583  0.38146170  0.50030664  1
  O  O345  1  0.50055426  0.38917998  0.99981783  1
  O  O346  1  0.50012783  0.87399938  0.48769472  1
  O  O347  1  0.49932956  0.88332277  0.99305306  1
  O  O348  1  0.99430576  0.37942792  0.49429320  1
  O  O349  1  0.99544079  0.37269233  0.99033050  1
  O  O350  1  0.99229334  0.87544119  0.49258415  1
  O  O351  1  0.99430105  0.88061224  0.99404628  1
  O  O352  1  0.49341106  0.49895110  0.38330657  1
  O  O353  1  0.49428650  0.50240723  0.88553581  1
  O  O354  1  0.49555498  0.99012965  0.37525159  1
  O  O355  1  0.49921311  0.99360300  0.88421413  1
  O  O356  1  0.99381987  0.49437406  0.37901472  1
  O  O357  1  0.99826537  0.48636098  0.87610040  1
  O  O358  1  0.99183310  0.99401103  0.37588532  1
  O  O359  1  0.99411515  0.99507751  0.87932743  1
  O  O360  1  0.00407580  0.00537906  0.11878072  1
  O  O361  1  0.00859175  0.00533120  0.62504181  1
  O  O362  1  0.00985959  0.50654822  0.12526600  1
  O  O363  1  0.00240721  0.50273943  0.61492368  1
  O  O364  1  0.50481749  0.00372630  0.11920927  1
  O  O365  1  0.50131059  0.00952827  0.62394565  1
  O  O366  1  0.50182463  0.50854985  0.11525336  1
  O  O367  1  0.50474705  0.50553211  0.62043549  1
  O  O368  1  0.24786510  0.38466072  0.24807458  1
  O  O369  1  0.24536276  0.37897407  0.74624829  1
  O  O370  1  0.24289052  0.88220238  0.25126184  1
  O  O371  1  0.24763441  0.88521230  0.74625259  1
  O  O372  1  0.74681121  0.37960009  0.24409717  1
  O  O373  1  0.74400858  0.37595958  0.74304571  1
  O  O374  1  0.74571834  0.88016657  0.24449543  1
  O  O375  1  0.75046920  0.88689576  0.75153962  1
  O  O376  1  0.25577025  0.11952677  0.25632962  1
  O  O377  1  0.25495407  0.11538065  0.74885712  1
  O  O378  1  0.25544357  0.62119611  0.25564807  1
  O  O379  1  0.25461161  0.61894784  0.75506963  1
  O  O380  1  0.75514461  0.11966264  0.25520521  1
  O  O381  1  0.75633849  0.11916231  0.75586320  1
  O  O382  1  0.75719735  0.61933978  0.24946717  1
  O  O383  1  0.75811653  0.62659014  0.75803012  1
  O  O384  1  0.37077157  0.11994964  0.37044466  1
  O  O385  1  0.37202066  0.12013399  0.86524555  1
  O  O386  1  0.37036175  0.61889099  0.37001904  1
  O  O387  1  0.36809947  0.61966494  0.86857649  1
  O  O388  1  0.86904672  0.11972434  0.36983636  1
  O  O389  1  0.87015633  0.12034660  0.86911614  1
  O  O390  1  0.87374424  0.61798264  0.36687112  1
  O  O391  1  0.86688126  0.62574181  0.86660604  1
  O  O392  1  0.12599642  0.38845643  0.12691016  1
  O  O393  1  0.13233256  0.37607899  0.63099895  1
  O  O394  1  0.12558958  0.88253228  0.13179333  1
  O  O395  1  0.12552928  0.88585905  0.62508899  1
  O  O396  1  0.63408102  0.37727260  0.13212753  1
  O  O397  1  0.63057230  0.37922501  0.63038962  1
  O  O398  1  0.63111140  0.88066776  0.13046942  1
  O  O399  1  0.62922771  0.88063015  0.63012083  1
  O  O400  1  0.11646955  0.25039876  0.25164871  1
  O  O401  1  0.11841229  0.25539670  0.75003050  1
  O  O402  1  0.11816060  0.75649687  0.25071925  1
  O  O403  1  0.11831000  0.74835123  0.75452169  1
  O  O404  1  0.62161259  0.25533237  0.25603364  1
  O  O405  1  0.61965363  0.25557353  0.75572555  1
  O  O406  1  0.61949716  0.75667560  0.25170158  1
  O  O407  1  0.61582749  0.75223598  0.75279526  1
  O  O408  1  0.38285415  0.24357210  0.25090696  1
  O  O409  1  0.37925550  0.24510376  0.74566445  1
  O  O410  1  0.38164419  0.74251097  0.25083460  1
  O  O411  1  0.37915527  0.74335248  0.74465785  1
  O  O412  1  0.87954433  0.24325112  0.24406453  1
  O  O413  1  0.88066017  0.24438437  0.74320019  1
  O  O414  1  0.87983924  0.74581283  0.24323332  1
  O  O415  1  0.87910541  0.74156914  0.74517079  1
  O  O416  1  0.37982799  0.49583545  0.49619426  1
  O  O417  1  0.38477300  0.50441244  0.99480689  1
  O  O418  1  0.37818949  0.99704136  0.49200685  1
  O  O419  1  0.38662678  0.99899894  1.00049179  1
  O  O420  1  0.87987316  0.49465727  0.49425304  1
  O  O421  1  0.87975608  0.49081161  0.99773467  1
  O  O422  1  0.87421866  0.99298628  0.49334116  1
  O  O423  1  0.88031356  0.99533247  0.99469965  1
  O  O424  1  0.11858325  0.00429087  0.00483066  1
  O  O425  1  0.12501823  0.00530747  0.50968748  1
  O  O426  1  0.12452240  0.50604427  0.00955161  1
  O  O427  1  0.12000312  0.50962379  0.49878575  1
  O  O428  1  0.61403864  0.00121785  0.00673032  1
  O  O429  1  0.62382819  0.01006824  0.50189246  1
  O  O430  1  0.61562238  0.50782169  0.00036195  1
  O  O431  1  0.61991974  0.50379227  0.50665544  1
  O  O432  1  0.37133650  0.37194678  0.12012413  1
  O  O433  1  0.36933268  0.36948129  0.62068027  1
  O  O434  1  0.36910237  0.87014865  0.12152247  1
  O  O435  1  0.37282879  0.86510121  0.62057824  1
  O  O436  1  0.87108718  0.36810768  0.11977342  1
  O  O437  1  0.87029381  0.36949397  0.61920519  1
  O  O438  1  0.86967443  0.87075398  0.11906931  1
  O  O439  1  0.87147286  0.86797355  0.61781286  1
  O  O440  1  0.13263612  0.12483187  0.38187201  1
  O  O441  1  0.12589785  0.12698174  0.88389671  1
  O  O442  1  0.13071338  0.62702119  0.38420612  1
  O  O443  1  0.12927975  0.62917454  0.87962323  1
  O  O444  1  0.63160842  0.13099726  0.38016639  1
  O  O445  1  0.63206317  0.13335970  0.87740321  1
  O  O446  1  0.62765361  0.62683242  0.38465491  1
  O  O447  1  0.63590608  0.62782057  0.87986200  1
