# generated using pymatgen
data_V3Zn3O8
_symmetry_space_group_name_H-M   'P 1'
_cell_length_a   17.08855840
_cell_length_b   17.08718259
_cell_length_c   17.08785852
_cell_angle_alpha   89.97870658
_cell_angle_beta   90.00058052
_cell_angle_gamma   89.99483199
_symmetry_Int_Tables_number   1
_chemical_formula_structural   V3Zn3O8
_chemical_formula_sum   'V96 Zn96 O256'
_cell_volume   4989.57431170
_cell_formula_units_Z   32
loop_
 _symmetry_equiv_pos_site_id
 _symmetry_equiv_pos_as_xyz
  1  'x, y, z'
loop_
 _atom_site_type_symbol
 _atom_site_label
 _atom_site_symmetry_multiplicity
 _atom_site_fract_x
 _atom_site_fract_y
 _atom_site_fract_z
 _atom_site_occupancy
  V  V0  1  0.49872493  0.12511315  0.12471506  1
  V  V1  1  0.50135359  0.49914317  0.49975794  1
  V  V2  1  0.87483696  0.75012010  0.12535814  1
  V  V3  1  0.75068040  0.37559084  0.62498578  1
  V  V4  1  0.49972112  0.37414235  0.37394100  1
  V  V5  1  0.37561391  0.87505479  0.49944376  1
  V  V6  1  0.49971607  0.49868097  -0.00117027  1
  V  V7  1  0.37587262  0.49972599  0.87458326  1
  V  V8  1  0.25068750  0.62450173  0.37534617  1
  V  V9  1  0.12470428  0.25007942  0.87454883  1
  V  V10  1  0.49924396  -0.00043232  -0.00072989  1
  V  V11  1  0.25083483  0.12511609  0.87366847  1
  V  V12  1  0.37518710  0.62441411  0.75041571  1
  V  V13  1  0.37585421  0.24983470  0.62349279  1
  V  V14  1  0.12434931  0.50082750  0.12630879  1
  V  V15  1  0.25021906  0.37542434  0.12384863  1
  V  V16  1  0.00000051  0.62577008  0.12623892  1
  V  V17  1  -0.00061504  0.37636316  0.37554574  1
  V  V18  1  0.87593461  0.24977013  0.62548050  1
  V  V19  1  0.62648226  0.62560345  0.49992737  1
  V  V20  1  0.37528683  0.74991297  0.62488686  1
  V  V21  1  -0.00020352  0.37611612  0.87604009  1
  V  V22  1  0.87465297  0.12572437  0.74956235  1
  V  V23  1  0.87592667  0.37599299  0.49956301  1
  V  V24  1  0.37411238  0.12447834  0.75011268  1
  V  V25  1  -0.00043773  0.25023225  0.74982925  1
  V  V26  1  0.24945887  0.62574015  0.87584783  1
  V  V27  1  0.62502592  0.87456650  0.74992139  1
  V  V28  1  0.62364459  0.12393261  -0.00060996  1
  V  V29  1  0.75062909  0.87534779  0.62588862  1
  V  V30  1  0.74948049  0.24974954  -0.00026488  1
  V  V31  1  0.75090458  0.24986624  0.49924425  1
  V  V32  1  0.87380020  0.24925595  0.12454394  1
  V  V33  1  0.62498212  0.62471262  -0.00020170  1
  V  V34  1  0.62541913  -0.00140511  0.12542191  1
  V  V35  1  0.50171679  0.00050790  0.49925261  1
  V  V36  1  0.75133579  0.50031351  0.74999879  1
  V  V37  1  0.62380051  0.37413810  0.24984358  1
  V  V38  1  0.74924521  0.37348829  0.12388137  1
  V  V39  1  0.75085591  0.75042520  0.50178948  1
  V  V40  1  0.24956057  0.37564746  0.62539553  1
  V  V41  1  0.00161715  0.50218897  0.50281969  1
  V  V42  1  0.74940486  0.12495287  0.37547760  1
  V  V43  1  0.00133571  0.87635521  0.87607749  1
  V  V44  1  0.12375864  0.12446297  0.00030843  1
  V  V45  1  0.25004947  0.25045959  0.49840192  1
  V  V46  1  0.49895931  0.62430321  0.12535668  1
  V  V47  1  -0.00110348  0.74936504  0.25049396  1
  V  V48  1  0.74989867  0.74975747  0.00096966  1
  V  V49  1  0.12662842  0.00011655  0.62709682  1
  V  V50  1  0.62383587  0.24967325  0.87355773  1
  V  V51  1  0.12563980  0.62656315  0.00058112  1
  V  V52  1  0.37592424  0.74872616  0.12727653  1
  V  V53  1  0.62678233  0.49980457  0.62477411  1
  V  V54  1  0.12364218  0.00110086  0.12441149  1
  V  V55  1  0.12459682  0.87523712  0.25007524  1
  V  V56  1  0.62542235  0.87482616  0.24942927  1
  V  V57  1  0.24990844  0.87483879  0.12549727  1
  V  V58  1  0.12479924  0.12526308  0.49968933  1
  V  V59  1  0.87522075  0.12535424  0.24971257  1
  V  V60  1  0.00214299  0.75055845  0.75122051  1
  V  V61  1  0.50039882  0.62458614  0.62495594  1
  V  V62  1  0.87358022  0.87496934  0.00039036  1
  V  V63  1  0.12449299  0.37606479  0.24990653  1
  V  V64  1  0.00079460  -0.00039430  0.49975392  1
  V  V65  1  0.50027087  0.12487888  0.62313274  1
  V  V66  1  0.24879781  0.25113015  0.00008052  1
  V  V67  1  -0.00140191  0.25054664  0.24916639  1
  V  V68  1  0.12507148  0.74990723  0.37650665  1
  V  V69  1  0.37534940  0.37440695  0.49917407  1
  V  V70  1  0.62422773  0.74988519  0.87496286  1
  V  V71  1  0.25026851  0.87540194  0.62631405  1
  V  V72  1  -0.00114715  0.49965697  -0.00007660  1
  V  V73  1  0.50073335  0.24998439  0.74895866  1
  V  V74  1  0.87608136  -0.00026391  0.37521990  1
  V  V75  1  0.12620224  0.37559969  0.74889310  1
  V  V76  1  0.25030672  0.74998315  0.50038833  1
  V  V77  1  0.37419479  -0.00048673  0.37394328  1
  V  V78  1  0.62543877  0.75017434  0.37516458  1
  V  V79  1  0.49958871  0.37461375  0.87386959  1
  V  V80  1  -0.00062550  0.87462505  0.37571858  1
  V  V81  1  0.37478828  0.50088822  0.37468657  1
  V  V82  1  0.74888889  -0.00049945  0.74895143  1
  V  V83  1  0.75141351  0.50116765  0.25122603  1
  V  V84  1  0.74885566  0.12513893  0.87403394  1
  V  V85  1  0.62397789  0.49928687  0.12419086  1
  V  V86  1  0.50108326  0.75026942  0.75025813  1
  V  V87  1  0.87584042  0.62536634  0.75191022  1
  V  V88  1  0.49872595  0.24843943  0.24847372  1
  V  V89  1  0.24989547  0.00023558  0.25062210  1
  V  V90  1  0.87396974  -0.00000376  0.87537308  1
  V  V91  1  0.24961167  0.12455484  0.37336829  1
  V  V92  1  0.37578901  0.87591072  -0.00098266  1
  V  V93  1  0.12458111  0.25067739  0.37467382  1
  V  V94  1  0.75058028  0.62400970  0.87518791  1
  V  V95  1  0.87555928  0.75095767  0.62614672  1
  Zn  Zn96  1  0.75199738  0.62401942  0.37586734  1
  Zn  Zn97  1  -0.00196184  0.00212882  0.00198544  1
  Zn  Zn98  1  0.24932452  0.49988812  0.74824483  1
  Zn  Zn99  1  -0.00160762  0.12454012  0.12310490  1
  Zn  Zn100  1  0.00048945  0.12493698  0.62517387  1
  Zn  Zn101  1  0.49955477  0.87487417  0.37414803  1
  Zn  Zn102  1  0.49915456  0.87591531  0.87377819  1
  Zn  Zn103  1  0.37352902  0.12450319  0.24724386  1
  Zn  Zn104  1  0.75075129  0.87575633  0.12527873  1
  Zn  Zn105  1  0.12703692  0.75284019  0.87746050  1
  Zn  Zn106  1  0.62604630  0.12538059  0.50043815  1
  Zn  Zn107  1  0.62598317  0.37469897  0.74898037  1
  Zn  Zn108  1  0.87445951  0.62554346  0.25183698  1
  Zn  Zn109  1  0.87516258  0.87490064  0.50057179  1
  Zn  Zn110  1  0.62589556  0.00082192  0.62415377  1
  Zn  Zn111  1  0.87426201  0.37547745  -0.00113353  1
  Zn  Zn112  1  0.37492781  0.37375702  -0.00044086  1
  Zn  Zn113  1  0.87516383  0.50302033  0.37539764  1
  Zn  Zn114  1  0.24862625  0.75084793  0.00101724  1
  Zn  Zn115  1  0.37726475  0.62362726  0.25055073  1
  Zn  Zn116  1  0.00315662  0.62550203  0.62649785  1
  Zn  Zn117  1  0.75123957  -0.00035181  0.24885903  1
  Zn  Zn118  1  0.12745008  0.50373304  0.62724062  1
  Zn  Zn119  1  0.37335026  0.24838460  0.12284560  1
  Zn  Zn120  1  0.87445007  0.49868471  0.87692247  1
  Zn  Zn121  1  0.62432815  0.24851657  0.37636537  1
  Zn  Zn122  1  0.12845590  0.87611866  0.75325107  1
  Zn  Zn123  1  0.25200051  -0.00124031  0.75190344  1
  Zn  Zn124  1  0.12393763  0.62608385  0.50410315  1
  Zn  Zn125  1  0.25074471  0.50071884  0.25014436  1
  Zn  Zn126  1  0.37477637  -0.00045917  0.87261008  1
  Zn  Zn127  1  0.50111870  0.74779146  0.25196275  1
  Zn  Zn128  1  0.18515001  0.18785495  0.18703906  1
  Zn  Zn129  1  0.18818027  0.18790822  0.68719784  1
  Zn  Zn130  1  0.18807488  0.68807366  0.18935970  1
  Zn  Zn131  1  0.18615151  0.68719302  0.68869966  1
  Zn  Zn132  1  0.68616050  0.18620276  0.18792255  1
  Zn  Zn133  1  0.68637647  0.18667823  0.68527011  1
  Zn  Zn134  1  0.68738587  0.68694534  0.18644903  1
  Zn  Zn135  1  0.68863690  0.68724860  0.68783287  1
  Zn  Zn136  1  0.31312677  0.31255620  0.30991192  1
  Zn  Zn137  1  0.31308768  0.31190086  0.81180763  1
  Zn  Zn138  1  0.31229261  0.81280622  0.31249112  1
  Zn  Zn139  1  0.31263659  0.81141648  0.81171248  1
  Zn  Zn140  1  0.81342691  0.31358853  0.31268456  1
  Zn  Zn141  1  0.81335572  0.31395119  0.81283573  1
  Zn  Zn142  1  0.81189375  0.81302026  0.31288022  1
  Zn  Zn143  1  0.81283499  0.81214826  0.81329143  1
  Zn  Zn144  1  0.18607427  0.43844529  0.43894022  1
  Zn  Zn145  1  0.18562858  0.43976955  0.93732641  1
  Zn  Zn146  1  0.18735537  0.93693614  0.43872604  1
  Zn  Zn147  1  0.18895995  0.94073887  0.93896697  1
  Zn  Zn148  1  0.68672776  0.43561431  0.43622959  1
  Zn  Zn149  1  0.68658614  0.43633445  0.93603934  1
  Zn  Zn150  1  0.68870384  0.93664104  0.43729606  1
  Zn  Zn151  1  0.68683021  0.93612468  0.93679009  1
  Zn  Zn152  1  0.31125341  0.06296669  0.06231253  1
  Zn  Zn153  1  0.31307431  0.06275268  0.56153595  1
  Zn  Zn154  1  0.31277534  0.56100801  0.06040002  1
  Zn  Zn155  1  0.31269133  0.56153050  0.56191443  1
  Zn  Zn156  1  0.81084962  0.06182253  0.06288231  1
  Zn  Zn157  1  0.81437225  0.06201306  0.56236366  1
  Zn  Zn158  1  0.81405578  0.56233445  0.06378776  1
  Zn  Zn159  1  0.81581396  0.56473379  0.56427717  1
  Zn  Zn160  1  0.43491828  0.43806864  0.18840746  1
  Zn  Zn161  1  0.43727629  0.43713052  0.68805225  1
  Zn  Zn162  1  0.43940306  0.93702740  0.18797162  1
  Zn  Zn163  1  0.43754478  0.93804251  0.68679971  1
  Zn  Zn164  1  0.93562262  0.43642048  0.18557431  1
  Zn  Zn165  1  0.93781143  0.43803359  0.68804343  1
  Zn  Zn166  1  0.93761914  0.93786403  0.18772385  1
  Zn  Zn167  1  0.93779585  0.93782512  0.68774983  1
  Zn  Zn168  1  0.06160675  0.06309262  0.31124991  1
  Zn  Zn169  1  0.06204058  0.06364480  0.81256085  1
  Zn  Zn170  1  0.06327953  0.56289577  0.31436436  1
  Zn  Zn171  1  0.06419752  0.56126238  0.81363839  1
  Zn  Zn172  1  0.56311373  0.06173796  0.31210111  1
  Zn  Zn173  1  0.56008529  0.06073864  0.81217740  1
  Zn  Zn174  1  0.56337603  0.56325077  0.31144626  1
  Zn  Zn175  1  0.56399884  0.56182494  0.81169275  1
  Zn  Zn176  1  0.43600804  0.18562959  0.43471609  1
  Zn  Zn177  1  0.43503281  0.18852135  0.93782282  1
  Zn  Zn178  1  0.43852783  0.68703271  0.43837614  1
  Zn  Zn179  1  0.43741371  0.68796998  0.93849389  1
  Zn  Zn180  1  0.93765294  0.18710003  0.43765712  1
  Zn  Zn181  1  0.93725958  0.18807151  0.93773790  1
  Zn  Zn182  1  0.93447765  0.68534951  0.43686902  1
  Zn  Zn183  1  0.93736743  0.68723990  0.93827057  1
  Zn  Zn184  1  0.06168628  0.31221145  0.06235298  1
  Zn  Zn185  1  0.06258534  0.31430147  0.56362016  1
  Zn  Zn186  1  0.06207353  0.81219979  0.06196024  1
  Zn  Zn187  1  0.06321671  0.81412681  0.56319140  1
  Zn  Zn188  1  0.56232255  0.31225984  0.06144189  1
  Zn  Zn189  1  0.56549472  0.31160739  0.56094017  1
  Zn  Zn190  1  0.56150021  0.81200102  0.06339445  1
  Zn  Zn191  1  0.56341056  0.81431787  0.56315761  1
  O  O192  1  0.12357304  0.11901934  0.11848139  1
  O  O193  1  0.12536239  0.11644026  0.61820417  1
  O  O194  1  0.12052065  0.62058853  0.12114912  1
  O  O195  1  0.12143485  0.62230676  0.62202880  1
  O  O196  1  0.61906621  0.11910945  0.11867391  1
  O  O197  1  0.61655170  0.12129778  0.62086055  1
  O  O198  1  0.61906513  0.61896498  0.11839003  1
  O  O199  1  0.61960848  0.62016270  0.61961457  1
  O  O200  1  0.37978389  0.38009802  0.38027171  1
  O  O201  1  0.38141210  0.38168545  0.87531100  1
  O  O202  1  0.37661422  0.88063315  0.38154668  1
  O  O203  1  0.37559283  0.87353248  0.88832776  1
  O  O204  1  0.88215359  0.37698673  0.38189419  1
  O  O205  1  0.88375603  0.37692492  0.87808367  1
  O  O206  1  0.88178423  0.88138806  0.37611819  1
  O  O207  1  0.88188245  0.88011436  0.88005259  1
  O  O208  1  0.25382810  0.00462210  0.37028127  1
  O  O209  1  0.25311523  0.00941621  0.87241947  1
  O  O210  1  0.25538279  0.50914039  0.37721174  1
  O  O211  1  0.25620729  0.51074845  0.87455104  1
  O  O212  1  0.75679597  0.00955506  0.37533874  1
  O  O213  1  0.75424466  0.00573636  0.86897900  1
  O  O214  1  0.74916609  0.49919881  0.36263969  1
  O  O215  1  0.74999169  0.50654129  0.86874444  1
  O  O216  1  0.24306864  0.49182467  0.12526457  1
  O  O217  1  0.25011733  0.49075921  0.62639241  1
  O  O218  1  0.24396255  0.99406450  0.13116799  1
  O  O219  1  0.24109412  0.99479129  0.62338947  1
  O  O220  1  0.74327852  0.49404181  0.13132147  1
  O  O221  1  0.74609702  0.49540049  0.62975816  1
  O  O222  1  0.74078301  0.99719605  0.12773377  1
  O  O223  1  0.74973646  0.99396289  0.63146554  1
  O  O224  1  0.00491568  0.37045667  0.25522850  1
  O  O225  1  0.00554488  0.36908515  0.75570304  1
  O  O226  1  0.00601440  0.86907459  0.25617585  1
  O  O227  1  -0.00102752  0.86735686  0.76062757  1
  O  O228  1  0.50387935  0.36760043  0.25350548  1
  O  O229  1  0.50192495  0.36756363  0.75516178  1
  O  O230  1  0.51293641  0.87173070  0.25237789  1
  O  O231  1  0.50565088  0.86747312  0.74998962  1
  O  O232  1  0.50015679  0.13331529  0.24441668  1
  O  O233  1  0.49435629  0.13073408  0.74339346  1
  O  O234  1  0.49811096  0.62712290  0.24126872  1
  O  O235  1  0.49550264  0.63031455  0.74396678  1
  O  O236  1  0.99301748  0.13336451  0.24984332  1
  O  O237  1  0.99244256  0.13241431  0.74944997  1
  O  O238  1  1.00073750  0.63205746  0.24375336  1
  O  O239  1  0.99535174  0.63654498  0.75375816  1
  O  O240  1  0.36516822  0.25404599  0.00294320  1
  O  O241  1  0.36978352  0.25513360  0.50326246  1
  O  O242  1  0.37515708  0.75855651  0.01092597  1
  O  O243  1  0.37077656  0.75513852  0.50587380  1
  O  O244  1  0.86630763  0.24990517  0.00617207  1
  O  O245  1  0.87120612  0.25587312  0.50572033  1
  O  O246  1  0.86944043  0.75499631  0.00543496  1
  O  O247  1  0.86881853  0.75163676  0.50775857  1
  O  O248  1  0.13024770  0.24583432  0.49392717  1
  O  O249  1  0.12954393  0.24475424  0.99368230  1
  O  O250  1  0.13261275  0.75070749  0.49372703  1
  O  O251  1  0.12810743  0.74243828  0.99823038  1
  O  O252  1  0.63447276  0.24690316  0.49600616  1
  O  O253  1  0.62944591  0.24287049  0.99377999  1
  O  O254  1  0.62991338  0.74615064  0.49364784  1
  O  O255  1  0.62941314  0.74401947  0.99532340  1
  O  O256  1  0.49980429  0.24479233  0.13306537  1
  O  O257  1  0.49460791  0.24544146  0.62795029  1
  O  O258  1  0.49116521  0.74292133  0.12523085  1
  O  O259  1  0.49514397  0.74379051  0.62939189  1
  O  O260  1  0.99281096  0.24950839  0.13194147  1
  O  O261  1  0.99373899  0.24898059  0.63158773  1
  O  O262  1  0.99495221  0.74543449  0.13099381  1
  O  O263  1  0.99501247  0.75345023  0.63697216  1
  O  O264  1  0.00540939  0.25632967  0.37001475  1
  O  O265  1  0.00562631  0.25553575  0.86931545  1
  O  O266  1  0.00546513  0.75486452  0.37068651  1
  O  O267  1  -0.00114618  0.76018564  0.86766924  1
  O  O268  1  0.49992952  0.25480462  0.36527597  1
  O  O269  1  0.50474403  0.25433846  0.86923018  1
  O  O270  1  0.51313863  0.75183997  0.37581744  1
  O  O271  1  0.50647317  0.74998786  0.86823630  1
  O  O272  1  0.24481800  0.13122943  0.49323818  1
  O  O273  1  0.24355255  0.13123229  0.99439097  1
  O  O274  1  0.25103358  0.63148058  0.49020390  1
  O  O275  1  0.24502343  0.62578756  0.99125655  1
  O  O276  1  0.75227536  0.13047903  0.49033234  1
  O  O277  1  0.74290626  0.12979526  0.99314946  1
  O  O278  1  0.74308284  0.63198189  0.50091087  1
  O  O279  1  0.74392220  0.62950700  0.99553945  1
  O  O280  1  0.24712691  0.37051565  0.00935139  1
  O  O281  1  0.25602630  0.36886840  0.50369932  1
  O  O282  1  0.25961932  0.87404013  0.00695463  1
  O  O283  1  0.25647362  0.86941331  0.50562520  1
  O  O284  1  0.74861726  0.36736408  0.00617127  1
  O  O285  1  0.75621760  0.37049339  0.50497386  1
  O  O286  1  0.75597229  0.86711117  0.00002278  1
  O  O287  1  0.75143871  0.86841897  0.50753723  1
  O  O288  1  0.12684102  0.49349575  0.24429982  1
  O  O289  1  0.12788375  0.49047127  0.74845673  1
  O  O290  1  0.13027722  0.99409239  0.24554690  1
  O  O291  1  0.12655394  1.00013865  0.73765420  1
  O  O292  1  0.63122832  0.49364440  0.24350052  1
  O  O293  1  0.63259702  0.49944642  0.74194169  1
  O  O294  1  0.62569260  0.99059039  0.24491412  1
  O  O295  1  0.63118612  0.99303996  0.74899808  1
  O  O296  1  0.36784980  -0.00063803  0.25591456  1
  O  O297  1  0.37344706  0.00885871  0.75068943  1
  O  O298  1  0.37089254  0.50249824  0.25914559  1
  O  O299  1  0.37459623  0.50769851  0.75640955  1
  O  O300  1  0.87374229  0.00655761  0.25722876  1
  O  O301  1  0.86884611  0.00560100  0.75566400  1
  O  O302  1  0.86225199  0.49953911  0.24914632  1
  O  O303  1  0.86915932  0.50760454  0.75176725  1
  O  O304  1  0.12014512  0.36931040  0.36987675  1
  O  O305  1  0.12038429  0.36894598  0.86936105  1
  O  O306  1  0.12036153  0.86984248  0.36941057  1
  O  O307  1  0.11436765  0.87553352  0.87507787  1
  O  O308  1  0.61670966  0.37272852  0.36777334  1
  O  O309  1  0.61794460  0.36740235  0.87213498  1
  O  O310  1  0.62428044  0.86663969  0.36777241  1
  O  O311  1  0.62333244  0.86688259  0.86818840  1
  O  O312  1  0.38268471  0.12671216  0.12718539  1
  O  O313  1  0.37993300  0.13180205  0.62850710  1
  O  O314  1  0.37895242  0.63363898  0.12442188  1
  O  O315  1  0.38084591  0.63030296  0.62957203  1
  O  O316  1  0.87450160  0.13134771  0.13182956  1
  O  O317  1  0.87676686  0.13167721  0.63211251  1
  O  O318  1  0.88261141  0.63240015  0.12736337  1
  O  O319  1  0.87896226  0.63378848  0.63434998  1
  O  O320  1  0.24715166  0.26040415  0.11963030  1
  O  O321  1  0.25636877  0.25488500  0.61727596  1
  O  O322  1  0.25976683  0.75570622  0.12514231  1
  O  O323  1  0.25628117  0.75494750  0.62031043  1
  O  O324  1  0.75282552  0.25398803  0.11965033  1
  O  O325  1  0.75638581  0.25522507  0.61965435  1
  O  O326  1  0.75612540  0.75058094  0.11788613  1
  O  O327  1  0.75561518  0.75570131  0.62167467  1
  O  O328  1  0.24449067  0.24575214  0.37901241  1
  O  O329  1  0.24335125  0.24567736  0.88022110  1
  O  O330  1  0.24603829  0.74347717  0.38034628  1
  O  O331  1  0.25050132  0.73733468  0.87750119  1
  O  O332  1  0.75158377  0.24053897  0.38026921  1
  O  O333  1  0.74406270  0.24416026  0.87904771  1
  O  O334  1  0.73923121  0.74979878  0.38160021  1
  O  O335  1  0.74409044  0.74354529  0.88064581  1
  O  O336  1  0.00804190  0.12315498  0.00088841  1
  O  O337  1  0.00771810  0.11851816  0.50087295  1
  O  O338  1  0.00587975  0.62061910  0.00629688  1
  O  O339  1  0.00054536  0.61441437  0.50148078  1
  O  O340  1  0.50510652  0.12031657  0.00461817  1
  O  O341  1  0.49869622  0.11548109  0.50366431  1
  O  O342  1  0.50585020  0.61858489  0.00485038  1
  O  O343  1  0.50602737  0.61883684  0.50605416  1
  O  O344  1  0.49494259  0.37943276  0.49429124  1
  O  O345  1  0.49926927  0.38119369  0.99269715  1
  O  O346  1  0.49397228  0.88459227  0.50008530  1
  O  O347  1  0.49071254  0.88021926  1.00050694  1
  O  O348  1  0.99542697  0.38188333  0.49521519  1
  O  O349  1  1.00040479  0.38158813  0.99380356  1
  O  O350  1  0.99933285  0.88154842  0.49270555  1
  O  O351  1  0.99320740  0.87532187  0.98963360  1
  O  O352  1  0.49573281  0.49461780  0.38058916  1
  O  O353  1  0.49626226  0.49524414  0.87931001  1
  O  O354  1  0.49364588  0.99978354  0.38400032  1
  O  O355  1  0.49577235  0.99670340  0.88366032  1
  O  O356  1  0.99952731  0.49376781  0.38430819  1
  O  O357  1  0.99969148  0.49378650  0.88246361  1
  O  O358  1  0.99639713  0.99433437  0.37982792  1
  O  O359  1  0.99311997  0.99045341  0.87406114  1
  O  O360  1  0.00815765  0.00244787  0.12319067  1
  O  O361  1  0.01021666  0.00055148  0.61970221  1
  O  O362  1  0.00549753  0.50542756  0.12074474  1
  O  O363  1  0.00155677  0.50050575  0.61437636  1
  O  O364  1  0.50606287  0.00540153  0.11930845  1
  O  O365  1  0.49898765  0.00591302  0.61357676  1
  O  O366  1  0.50462059  0.50355975  0.11923201  1
  O  O367  1  0.50552576  0.50485950  0.61915237  1
  O  O368  1  0.24274065  0.37513453  0.24051165  1
  O  O369  1  0.24431368  0.37440373  0.74327439  1
  O  O370  1  0.24357126  0.88035360  0.24536246  1
  O  O371  1  0.24853182  0.87719312  0.74247878  1
  O  O372  1  0.74372139  0.38111433  0.24413848  1
  O  O373  1  0.74942919  0.38158767  0.74270994  1
  O  O374  1  0.73737971  0.87683796  0.24867610  1
  O  O375  1  0.74503903  0.87991214  0.74596189  1
  O  O376  1  0.24909061  0.11859810  0.25608690  1
  O  O377  1  0.25704213  0.12621550  0.75581693  1
  O  O378  1  0.25238575  0.62483068  0.26426083  1
  O  O379  1  0.25677328  0.62458391  0.75960519  1
  O  O380  1  0.75586393  0.12510502  0.26030715  1
  O  O381  1  0.75478379  0.11996287  0.75504601  1
  O  O382  1  0.74817055  0.61138480  0.24924900  1
  O  O383  1  0.75558360  0.62039791  0.75567596  1
  O  O384  1  0.36636686  0.11758922  0.37181386  1
  O  O385  1  0.36816801  0.12562446  0.86795869  1
  O  O386  1  0.36716655  0.62048665  0.37556322  1
  O  O387  1  0.36855224  0.62049638  0.87098156  1
  O  O388  1  0.86791467  0.12043083  0.36987987  1
  O  O389  1  0.86810222  0.12030797  0.86944512  1
  O  O390  1  0.86893808  0.62101738  0.36924242  1
  O  O391  1  0.86752351  0.62433652  0.86963128  1
  O  O392  1  0.13172619  0.38061728  0.12997782  1
  O  O393  1  0.13301797  0.37424625  0.63168693  1
  O  O394  1  0.13011465  0.87955117  0.13059470  1
  O  O395  1  0.13161961  0.88555984  0.62560392  1
  O  O396  1  0.62940967  0.38022711  0.13000118  1
  O  O397  1  0.63267105  0.38220334  0.62505544  1
  O  O398  1  0.62559529  0.87908190  0.13349250  1
  O  O399  1  0.63251283  0.87624479  0.63260666  1
  O  O400  1  0.11848957  0.25603438  0.25592987  1
  O  O401  1  0.11930449  0.25466417  0.75535292  1
  O  O402  1  0.11941474  0.75641366  0.25615655  1
  O  O403  1  0.11363482  0.75383720  0.75418352  1
  O  O404  1  0.61435698  0.25535336  0.25112436  1
  O  O405  1  0.61835172  0.25036613  0.75570050  1
  O  O406  1  0.62581495  0.75655027  0.25835826  1
  O  O407  1  0.62022029  0.75407361  0.75521294  1
  O  O408  1  0.38684838  0.24842277  0.24638984  1
  O  O409  1  0.38150546  0.24462008  0.74268893  1
  O  O410  1  0.37822112  0.75094135  0.23808382  1
  O  O411  1  0.38149983  0.74396843  0.74397524  1
  O  O412  1  0.87960544  0.24554252  0.24438090  1
  O  O413  1  0.87961295  0.24495712  0.74496099  1
  O  O414  1  0.88124452  0.75025056  0.24347367  1
  O  O415  1  0.88316454  0.74572538  0.74682857  1
  O  O416  1  0.38261609  0.49372512  0.49475460  1
  O  O417  1  0.38277595  0.49783564  0.99245170  1
  O  O418  1  0.38198419  0.99487096  0.49425986  1
  O  O419  1  0.38010226  0.98909851  1.00190275  1
  O  O420  1  0.88396663  0.49373710  0.50010412  1
  O  O421  1  0.88336409  0.49744973  0.99902334  1
  O  O422  1  0.88327219  0.99844856  0.49347736  1
  O  O423  1  0.87506747  0.99409635  0.99268772  1
  O  O424  1  0.12343357  0.00694082  0.00722648  1
  O  O425  1  0.12108685  0.00526725  0.50760058  1
  O  O426  1  0.11846967  0.50707254  0.00684802  1
  O  O427  1  0.11318978  0.50034927  0.50254183  1
  O  O428  1  0.61939037  0.00460172  0.00453634  1
  O  O429  1  0.61262325  0.00039888  0.50012252  1
  O  O430  1  0.61979916  0.50543317  0.00497427  1
  O  O431  1  0.62038492  0.50518470  0.50493015  1
  O  O432  1  0.36090701  0.37502960  0.12343377  1
  O  O433  1  0.37104050  0.36872584  0.61834383  1
  O  O434  1  0.37116177  0.86798274  0.11836918  1
  O  O435  1  0.36998842  0.86877598  0.61925578  1
  O  O436  1  0.86653669  0.36665302  0.12274148  1
  O  O437  1  0.86966080  0.36892957  0.61966095  1
  O  O438  1  0.87414451  0.86858349  0.11834079  1
  O  O439  1  0.86819116  0.86871010  0.62526965  1
  O  O440  1  0.13028414  0.13093339  0.37988996  1
  O  O441  1  0.13039922  0.13113089  0.87941299  1
  O  O442  1  0.13500836  0.63152171  0.37819060  1
  O  O443  1  0.13513489  0.62573545  0.88108213  1
  O  O444  1  0.63806287  0.12546391  0.37618513  1
  O  O445  1  0.62950339  0.12972608  0.87978337  1
  O  O446  1  0.62680250  0.63403805  0.38122348  1
  O  O447  1  0.63042672  0.63027765  0.88066702  1
