# generated using pymatgen
data_V3Zn3O8
_symmetry_space_group_name_H-M   'P 1'
_cell_length_a   17.08779755
_cell_length_b   17.08727267
_cell_length_c   17.08766701
_cell_angle_alpha   90.00198156
_cell_angle_beta   89.99670248
_cell_angle_gamma   90.00372078
_symmetry_Int_Tables_number   1
_chemical_formula_structural   V3Zn3O8
_chemical_formula_sum   'V96 Zn96 O256'
_cell_volume   4989.32288133
_cell_formula_units_Z   32
loop_
 _symmetry_equiv_pos_site_id
 _symmetry_equiv_pos_as_xyz
  1  'x, y, z'
loop_
 _atom_site_type_symbol
 _atom_site_label
 _atom_site_symmetry_multiplicity
 _atom_site_fract_x
 _atom_site_fract_y
 _atom_site_fract_z
 _atom_site_occupancy
  V  V0  1  0.87475917  0.12637652  0.24915029  1
  V  V1  1  0.62566821  0.00053070  0.12593499  1
  V  V2  1  0.74936584  0.62452201  0.87384606  1
  V  V3  1  0.24959247  0.25005861  0.50062893  1
  V  V4  1  0.75117492  0.25097364  -0.00020717  1
  V  V5  1  0.50056242  0.87516889  0.87545049  1
  V  V6  1  0.37347504  -0.00166689  0.37805759  1
  V  V7  1  0.62594241  0.87521079  0.74961462  1
  V  V8  1  0.74893638  0.12594432  0.37492428  1
  V  V9  1  -0.00023205  0.74974721  0.74975571  1
  V  V10  1  0.25122063  0.37413101  0.62441760  1
  V  V11  1  0.12403469  0.75054123  0.37441196  1
  V  V12  1  0.62528233  -0.00035367  0.62545314  1
  V  V13  1  0.00072892  0.24975913  0.74997464  1
  V  V14  1  0.37418978  0.24855449  0.62417001  1
  V  V15  1  0.74932333  0.50165756  0.24891574  1
  V  V16  1  0.62702525  0.37436590  0.74756346  1
  V  V17  1  0.12316477  0.12466143  0.50056190  1
  V  V18  1  0.12430549  0.24988518  0.37498225  1
  V  V19  1  0.49954323  0.00017014  0.00081649  1
  V  V20  1  0.87435425  0.75096087  0.12456118  1
  V  V21  1  0.75178629  0.12396763  0.87461541  1
  V  V22  1  0.75019439  0.62645575  0.37465259  1
  V  V23  1  0.62554712  0.12494313  0.00063081  1
  V  V24  1  0.49838715  0.87450168  0.37536546  1
  V  V25  1  0.25015778  0.74930232  -0.00001667  1
  V  V26  1  0.87509336  0.25084884  0.12404099  1
  V  V27  1  0.37647314  0.12674416  0.25075937  1
  V  V28  1  0.75070801  0.75100142  0.49939636  1
  V  V29  1  0.24931839  0.49946503  0.24947730  1
  V  V30  1  0.25007878  -0.00020908  0.75199853  1
  V  V31  1  0.50034721  0.74884283  0.74985740  1
  V  V32  1  0.62566299  0.74942564  0.87505463  1
  V  V33  1  -0.00100564  0.37598822  0.37485487  1
  V  V34  1  0.62518648  0.62565530  0.50010177  1
  V  V35  1  0.75052082  0.87547215  0.12522108  1
  V  V36  1  0.12537369  0.37497380  0.25014981  1
  V  V37  1  0.62596172  0.49893949  0.62471648  1
  V  V38  1  0.25070376  0.87297391  0.62533797  1
  V  V39  1  0.12536526  0.37433377  0.75002735  1
  V  V40  1  0.49899312  0.37462020  0.87538861  1
  V  V41  1  0.62452933  0.62602059  -0.00142480  1
  V  V42  1  0.37579643  0.62396529  0.75050282  1
  V  V43  1  0.62533704  0.12587190  0.49909431  1
  V  V44  1  0.62402348  0.75168126  0.37430092  1
  V  V45  1  -0.00040116  0.12560084  0.62567737  1
  V  V46  1  0.87509031  0.62594404  0.24940226  1
  V  V47  1  0.24931891  0.12459749  0.37598772  1
  V  V48  1  0.49910814  0.62580023  0.12391429  1
  V  V49  1  -0.00040556  0.62463412  0.12395237  1
  V  V50  1  0.49996824  0.12359531  0.62411538  1
  V  V51  1  0.12525458  0.74945059  0.87521280  1
  V  V52  1  0.12578380  0.87468111  0.75178196  1
  V  V53  1  0.62492190  0.50120770  0.12474809  1
  V  V54  1  0.37409738  0.62551843  0.24923136  1
  V  V55  1  -0.00031378  0.87563612  0.87610637  1
  V  V56  1  0.87539454  0.00041278  0.37518162  1
  V  V57  1  0.12509125  0.25011992  0.87485807  1
  V  V58  1  0.37528539  0.12383970  0.75089571  1
  V  V59  1  -0.00095803  0.25043694  0.24935210  1
  V  V60  1  0.87256255  0.25185722  0.62375859  1
  V  V61  1  0.37401529  0.75059967  0.12406019  1
  V  V62  1  0.25009811  0.75012091  0.50076141  1
  V  V63  1  0.37559410  0.50029647  0.37513024  1
  V  V64  1  0.12469159  0.00052998  0.12681730  1
  V  V65  1  0.49940980  0.75115428  0.24966572  1
  V  V66  1  0.12493347  0.12505031  0.00092117  1
  V  V67  1  -0.00103136  0.50028191  -0.00085287  1
  V  V68  1  0.87483669  0.37566326  -0.00132499  1
  V  V69  1  0.12565164  0.62424645  0.50046939  1
  V  V70  1  0.12427710  0.62365758  -0.00001552  1
  V  V71  1  0.87600194  0.74982115  0.62505874  1
  V  V72  1  0.00104744  0.75058351  0.25088050  1
  V  V73  1  -0.00121168  0.00076776  0.50093998  1
  V  V74  1  0.87509923  0.62484502  0.74953441  1
  V  V75  1  0.49936754  0.49948384  -0.00109310  1
  V  V76  1  0.25054640  0.62366465  0.87453749  1
  V  V77  1  0.25230074  0.25048362  0.00088137  1
  V  V78  1  0.75014130  0.00033648  0.24928087  1
  V  V79  1  0.74973682  0.87572747  0.62575521  1
  V  V80  1  0.87523563  0.87521417  0.00018615  1
  V  V81  1  0.24987500  0.62499245  0.37492422  1
  V  V82  1  0.00067350  0.49995420  0.49925994  1
  V  V83  1  0.50030772  0.50043477  0.49925146  1
  V  V84  1  0.50045002  0.62521336  0.62566670  1
  V  V85  1  0.87553126  0.50045814  0.37501409  1
  V  V86  1  0.25073054  0.49981154  0.74998732  1
  V  V87  1  0.87459079  0.50030797  0.87368089  1
  V  V88  1  0.12567630  0.50022221  0.62420711  1
  V  V89  1  0.62574831  0.24932061  0.87472441  1
  V  V90  1  0.62463127  0.37645800  0.24935658  1
  V  V91  1  0.50114126  0.37339908  0.37368670  1
  V  V92  1  0.25135414  0.37456326  0.12489148  1
  V  V93  1  0.24879228  0.87472637  0.12639066  1
  V  V94  1  0.87539364  0.00050292  0.87553526  1
  V  V95  1  0.87581327  0.87605265  0.49989571  1
  Zn  Zn96  1  0.74942049  0.75041194  0.00035753  1
  Zn  Zn97  1  0.50239069  0.24927722  0.24699969  1
  Zn  Zn98  1  0.75015666  0.25292662  0.49735091  1
  Zn  Zn99  1  -0.00028960  0.37541836  0.87425447  1
  Zn  Zn100  1  0.87439849  0.12450185  0.75019757  1
  Zn  Zn101  1  0.62609471  0.24950349  0.37244371  1
  Zn  Zn102  1  0.50054119  0.24830347  0.74898300  1
  Zn  Zn103  1  0.62457376  0.87611891  0.25006655  1
  Zn  Zn104  1  0.49913936  -0.00298279  0.50108094  1
  Zn  Zn105  1  0.37524669  0.87610270  -0.00085807  1
  Zn  Zn106  1  0.37583278  0.87269916  0.50134045  1
  Zn  Zn107  1  0.74908675  0.37639396  0.12406759  1
  Zn  Zn108  1  0.75274897  0.49916299  0.74649131  1
  Zn  Zn109  1  0.37836605  0.24891948  0.12606799  1
  Zn  Zn110  1  0.50051314  0.12724510  0.12684850  1
  Zn  Zn111  1  0.12303292  0.87663180  0.25291470  1
  Zn  Zn112  1  0.00050163  -0.00001813  0.00057642  1
  Zn  Zn113  1  0.37675886  0.74951183  0.62403082  1
  Zn  Zn114  1  0.75134690  0.00130413  0.75026436  1
  Zn  Zn115  1  0.87161360  0.37626653  0.49932620  1
  Zn  Zn116  1  -0.00010772  0.12481922  0.12582400  1
  Zn  Zn117  1  0.12243079  0.00033364  0.62608054  1
  Zn  Zn118  1  0.37574124  -0.00079649  0.87746889  1
  Zn  Zn119  1  0.12356826  0.49949943  0.12411850  1
  Zn  Zn120  1  0.37347530  0.49763897  0.87623672  1
  Zn  Zn121  1  0.00055817  0.62459204  0.62507207  1
  Zn  Zn122  1  0.00131609  0.87579910  0.37448811  1
  Zn  Zn123  1  0.74982783  0.37543526  0.62032493  1
  Zn  Zn124  1  0.24819634  -0.00032621  0.25241202  1
  Zn  Zn125  1  0.37554470  0.37480848  0.50009334  1
  Zn  Zn126  1  0.37670742  0.37418173  0.00091743  1
  Zn  Zn127  1  0.25199135  0.12443574  0.87653007  1
  Zn  Zn128  1  0.18960248  0.18740314  0.18908941  1
  Zn  Zn129  1  0.18682411  0.18679218  0.68652223  1
  Zn  Zn130  1  0.18525561  0.68702629  0.18732626  1
  Zn  Zn131  1  0.18782676  0.68689324  0.68779094  1
  Zn  Zn132  1  0.68716973  0.18938047  0.18687885  1
  Zn  Zn133  1  0.68902929  0.18674188  0.68811701  1
  Zn  Zn134  1  0.68666801  0.68904668  0.18713301  1
  Zn  Zn135  1  0.68864565  0.68743851  0.68769297  1
  Zn  Zn136  1  0.31377299  0.31179557  0.31354264  1
  Zn  Zn137  1  0.31224505  0.31098848  0.81224414  1
  Zn  Zn138  1  0.31057580  0.81278405  0.31178972  1
  Zn  Zn139  1  0.31611450  0.81149450  0.81378628  1
  Zn  Zn140  1  0.81047061  0.31367422  0.31194255  1
  Zn  Zn141  1  0.81347009  0.31190808  0.81166729  1
  Zn  Zn142  1  0.81368079  0.81452577  0.31192090  1
  Zn  Zn143  1  0.81204156  0.81230376  0.81291208  1
  Zn  Zn144  1  0.18753709  0.43646816  0.43760657  1
  Zn  Zn145  1  0.18560577  0.43710455  0.93676654  1
  Zn  Zn146  1  0.18534504  0.93717959  0.43946587  1
  Zn  Zn147  1  0.18813114  0.93721322  0.93874841  1
  Zn  Zn148  1  0.68853210  0.43762009  0.43752707  1
  Zn  Zn149  1  0.68818839  0.43838071  0.93615435  1
  Zn  Zn150  1  0.68703967  0.93875401  0.43721853  1
  Zn  Zn151  1  0.68861262  0.93755887  0.93823933  1
  Zn  Zn152  1  0.31285862  0.06217877  0.06532369  1
  Zn  Zn153  1  0.31040277  0.06153674  0.56379270  1
  Zn  Zn154  1  0.31342631  0.56050292  0.06096430  1
  Zn  Zn155  1  0.31411634  0.56250166  0.56298090  1
  Zn  Zn156  1  0.81290659  0.06299564  0.06185359  1
  Zn  Zn157  1  0.81167111  0.06415327  0.56313089  1
  Zn  Zn158  1  0.81137944  0.56339212  0.06078147  1
  Zn  Zn159  1  0.81252536  0.56196187  0.56281524  1
  Zn  Zn160  1  0.43699383  0.43833080  0.18734998  1
  Zn  Zn161  1  0.43801887  0.43721588  0.68783271  1
  Zn  Zn162  1  0.43626248  0.93885171  0.18875772  1
  Zn  Zn163  1  0.43791380  0.93725737  0.68769072  1
  Zn  Zn164  1  0.93616697  0.43739335  0.18594216  1
  Zn  Zn165  1  0.93934553  0.43661625  0.68684823  1
  Zn  Zn166  1  0.93881917  0.93716260  0.18794641  1
  Zn  Zn167  1  0.93644148  0.93836125  0.68892839  1
  Zn  Zn168  1  0.06062678  0.06314990  0.31254361  1
  Zn  Zn169  1  0.06217012  0.06354815  0.81349021  1
  Zn  Zn170  1  0.06304555  0.56276982  0.31153932  1
  Zn  Zn171  1  0.06151935  0.56188202  0.81209166  1
  Zn  Zn172  1  0.56100796  0.05988666  0.31379742  1
  Zn  Zn173  1  0.56372649  0.06099246  0.81268392  1
  Zn  Zn174  1  0.56238424  0.56348432  0.31198588  1
  Zn  Zn175  1  0.56326381  0.56002157  0.81166882  1
  Zn  Zn176  1  0.43843448  0.18724308  0.43820049  1
  Zn  Zn177  1  0.43833591  0.18667282  0.93657851  1
  Zn  Zn178  1  0.43647133  0.68847410  0.43824592  1
  Zn  Zn179  1  0.43629724  0.68773846  0.93636895  1
  Zn  Zn180  1  0.93621458  0.18798506  0.43807713  1
  Zn  Zn181  1  0.93923550  0.18786966  0.93710999  1
  Zn  Zn182  1  0.93917069  0.68721500  0.43790155  1
  Zn  Zn183  1  0.93594872  0.68804126  0.93727130  1
  Zn  Zn184  1  0.06178504  0.31365610  0.06263556  1
  Zn  Zn185  1  0.06100700  0.31338976  0.56249666  1
  Zn  Zn186  1  0.06183022  0.81218802  0.06252279  1
  Zn  Zn187  1  0.06285239  0.81319945  0.56276327  1
  Zn  Zn188  1  0.56275781  0.31126717  0.06409052  1
  Zn  Zn189  1  0.56037969  0.31043223  0.56170844  1
  Zn  Zn190  1  0.56387480  0.81401664  0.06263076  1
  Zn  Zn191  1  0.56191394  0.81281669  0.56185733  1
  O  O192  1  0.12732139  0.11709400  0.11801981  1
  O  O193  1  0.11797081  0.12418158  0.61795306  1
  O  O194  1  0.11802661  0.62322984  0.11764377  1
  O  O195  1  0.12558093  0.61797837  0.61848647  1
  O  O196  1  0.62485389  0.11806254  0.11802812  1
  O  O197  1  0.62059363  0.11988839  0.61857685  1
  O  O198  1  0.61800124  0.62135648  0.11948807  1
  O  O199  1  0.62001168  0.62009824  0.61947253  1
  O  O200  1  0.38420781  0.38210776  0.37528251  1
  O  O201  1  0.38777339  0.37385374  0.87499035  1
  O  O202  1  0.37749603  0.88360555  0.37519187  1
  O  O203  1  0.38433565  0.87760220  0.87850350  1
  O  O204  1  0.88188373  0.38306511  0.37383357  1
  O  O205  1  0.87636305  0.38175525  0.88051886  1
  O  O206  1  0.87576172  0.88256772  0.38255454  1
  O  O207  1  0.88004860  0.88000877  0.88038543  1
  O  O208  1  0.25682432  0.00537131  0.37527019  1
  O  O209  1  0.25289254  0.00024942  0.86361674  1
  O  O210  1  0.25529314  0.50498560  0.36955084  1
  O  O211  1  0.25028068  0.50544297  0.86800549  1
  O  O212  1  0.75583278  0.00584822  0.36917933  1
  O  O213  1  0.75757707  0.00630520  0.87566695  1
  O  O214  1  0.75504793  0.50820209  0.36905399  1
  O  O215  1  0.75645337  0.50702399  0.87192474  1
  O  O216  1  0.24865150  0.49049372  0.13018988  1
  O  O217  1  0.24527953  0.49396253  0.62979125  1
  O  O218  1  0.24165050  0.99123555  0.12584466  1
  O  O219  1  0.24800435  0.99103218  0.63535951  1
  O  O220  1  0.74283825  0.50171565  0.13123262  1
  O  O221  1  0.74146185  0.49711816  0.62646698  1
  O  O222  1  0.74546810  0.99545168  0.13012081  1
  O  O223  1  0.74388150  0.99303747  0.62625688  1
  O  O224  1  0.00542262  0.37067360  0.25491321  1
  O  O225  1  0.00884101  0.36813879  0.75105382  1
  O  O226  1  0.00224885  0.86619238  0.25249391  1
  O  O227  1  0.00598080  0.86948437  0.75605450  1
  O  O228  1  0.50538904  0.37808978  0.25962138  1
  O  O229  1  0.50918748  0.37310988  0.75840174  1
  O  O230  1  0.49989453  0.86833786  0.25648436  1
  O  O231  1  0.50610835  0.86934131  0.75493967  1
  O  O232  1  0.48881622  0.12565053  0.25182529  1
  O  O233  1  0.49031087  0.12412537  0.74467444  1
  O  O234  1  0.49355379  0.63066534  0.24387406  1
  O  O235  1  0.49643806  0.62897742  0.74527403  1
  O  O236  1  0.99294304  0.13315696  0.24888585  1
  O  O237  1  1.00021102  0.13229009  0.74357861  1
  O  O238  1  0.99404531  0.62972386  0.24408764  1
  O  O239  1  0.99371433  0.63242069  0.74887182  1
  O  O240  1  0.36248957  0.24935276  0.00113124  1
  O  O241  1  0.36715668  0.24989192  0.50618756  1
  O  O242  1  0.36792318  0.75064138  0.00695421  1
  O  O243  1  0.36544766  0.75142504  0.50313437  1
  O  O244  1  0.87082445  0.25557435  0.00397864  1
  O  O245  1  0.87510251  0.25246317  0.51129581  1
  O  O246  1  0.87329378  0.75666964  0.00710532  1
  O  O247  1  0.86982293  0.75518094  0.50458483  1
  O  O248  1  0.12906058  0.24464966  0.49411507  1
  O  O249  1  0.13323386  0.24325535  0.99718389  1
  O  O250  1  0.13044074  0.74379694  0.49498300  1
  O  O251  1  0.13033778  0.74358383  0.99438920  1
  O  O252  1  0.62553589  0.23600383  0.49872853  1
  O  O253  1  0.63119926  0.24485574  0.99435572  1
  O  O254  1  0.63099519  0.74474955  0.49422759  1
  O  O255  1  0.62496730  0.74322945  0.99310787  1
  O  O256  1  0.49520209  0.24570371  0.12788440  1
  O  O257  1  0.49206023  0.24160436  0.62675466  1
  O  O258  1  0.49411326  0.74533856  0.12931392  1
  O  O259  1  0.50052206  0.74304603  0.63193812  1
  O  O260  1  0.99395299  0.24959297  0.13210017  1
  O  O261  1  0.99308756  0.24532576  0.62984300  1
  O  O262  1  0.99431027  0.74395665  0.13004689  1
  O  O263  1  0.99393530  0.74925033  0.63176730  1
  O  O264  1  0.00492783  0.25568149  0.36923646  1
  O  O265  1  0.00774801  0.25146502  0.86842493  1
  O  O266  1  0.00644325  0.75005183  0.36881016  1
  O  O267  1  0.00558373  0.75571989  0.86955690  1
  O  O268  1  0.50102644  0.26362665  0.37467008  1
  O  O269  1  0.50682393  0.25864507  0.87392444  1
  O  O270  1  0.50392127  0.75429763  0.36928008  1
  O  O271  1  0.50626177  0.75484386  0.86958946  1
  O  O272  1  0.24328214  0.13029354  0.49596998  1
  O  O273  1  0.24207001  0.13331555  1.00118703  1
  O  O274  1  0.24518699  0.62916817  0.49425463  1
  O  O275  1  0.24447687  0.62934824  0.99491192  1
  O  O276  1  0.74013769  0.12539211  0.49361298  1
  O  O277  1  0.74474553  0.13099915  0.99419774  1
  O  O278  1  0.74501279  0.63139558  0.49399600  1
  O  O279  1  0.74212300  0.62706792  0.99252791  1
  O  O280  1  0.24921156  0.36675627  0.00805129  1
  O  O281  1  0.25130124  0.36799327  0.50601209  1
  O  O282  1  0.25071082  0.86858307  0.01016326  1
  O  O283  1  0.24915667  0.86976372  0.51132588  1
  O  O284  1  0.75588266  0.36891404  0.00011848  1
  O  O285  1  0.75266856  0.37050604  0.50196874  1
  O  O286  1  0.75692142  0.87336467  0.00730432  1
  O  O287  1  0.75543864  0.86995069  0.50543209  1
  O  O288  1  0.13187580  0.49326059  0.24845372  1
  O  O289  1  0.13094079  0.49503502  0.74430798  1
  O  O290  1  0.12719811  1.00018433  0.23948791  1
  O  O291  1  0.13475388  0.99413049  0.75019907  1
  O  O292  1  0.62981790  0.49760265  0.24405153  1
  O  O293  1  0.62556750  0.48967389  0.74347050  1
  O  O294  1  0.63199210  0.99926834  0.24425826  1
  O  O295  1  0.62697765  0.99241990  0.74342173  1
  O  O296  1  0.37184752  0.00791448  0.26148530  1
  O  O297  1  0.36691884  0.00807270  0.75002021  1
  O  O298  1  0.36904881  0.50667785  0.25516615  1
  O  O299  1  0.36831222  0.50568731  0.75171375  1
  O  O300  1  0.87040827  0.00662480  0.25452537  1
  O  O301  1  0.87233706  0.00229304  0.76037967  1
  O  O302  1  0.86975145  0.50709835  0.25473241  1
  O  O303  1  0.87531074  0.50619717  0.75513213  1
  O  O304  1  0.12001252  0.36918427  0.36893291  1
  O  O305  1  0.12399779  0.36781102  0.86758338  1
  O  O306  1  0.12307656  0.86671904  0.37344212  1
  O  O307  1  0.12064375  0.86872331  0.87142343  1
  O  O308  1  0.61490713  0.37774055  0.36827368  1
  O  O309  1  0.61771986  0.37036815  0.86739592  1
  O  O310  1  0.61822407  0.86914907  0.37381463  1
  O  O311  1  0.62062943  0.86939848  0.86968809  1
  O  O312  1  0.37521937  0.12443662  0.13921300  1
  O  O313  1  0.37886871  0.12798811  0.63242502  1
  O  O314  1  0.37936357  0.63021763  0.12989324  1
  O  O315  1  0.38261103  0.62576702  0.63226229  1
  O  O316  1  0.87693467  0.13186310  0.13086679  1
  O  O317  1  0.88121540  0.13436807  0.62628485  1
  O  O318  1  0.87961455  0.63087423  0.12996872  1
  O  O319  1  0.87646383  0.63243454  0.63083421  1
  O  O320  1  0.25035938  0.25823154  0.11710324  1
  O  O321  1  0.25431703  0.25464549  0.61964575  1
  O  O322  1  0.25325193  0.75650281  0.12010566  1
  O  O323  1  0.25029776  0.75873198  0.62126841  1
  O  O324  1  0.75697249  0.25223753  0.11707089  1
  O  O325  1  0.76161520  0.25046330  0.62369565  1
  O  O326  1  0.75666248  0.75651157  0.12457574  1
  O  O327  1  0.75536732  0.75559816  0.61831965  1
  O  O328  1  0.24364040  0.24535905  0.38103649  1
  O  O329  1  0.24414024  0.24917782  0.88552835  1
  O  O330  1  0.24478477  0.74361293  0.37981608  1
  O  O331  1  0.24466319  0.74444403  0.88002462  1
  O  O332  1  0.74724536  0.24098286  0.37598643  1
  O  O333  1  0.74517418  0.24442096  0.88072453  1
  O  O334  1  0.74503834  0.74579623  0.37992440  1
  O  O335  1  0.74283282  0.74308100  0.87631112  1
  O  O336  1  0.01486184  0.12509679  0.00308455  1
  O  O337  1  0.00465782  0.12026818  0.50518212  1
  O  O338  1  0.00448505  0.62060088  0.00451076  1
  O  O339  1  0.00818280  0.61814986  0.50101327  1
  O  O340  1  0.50654016  0.11510667  -0.00061612  1
  O  O341  1  0.50892733  0.12190287  0.50504597  1
  O  O342  1  0.50479454  0.62014988  0.00471252  1
  O  O343  1  0.50613294  0.62064109  0.50466867  1
  O  O344  1  0.49983743  0.38175724  0.49029146  1
  O  O345  1  0.50133583  0.37972902  0.98998924  1
  O  O346  1  0.49568366  0.87654489  0.49242161  1
  O  O347  1  0.50044370  0.88511895  0.99511173  1
  O  O348  1  1.00009235  0.38242966  0.49141371  1
  O  O349  1  0.99374581  0.38183631  0.99779311  1
  O  O350  1  0.99312187  0.88212732  0.49978950  1
  O  O351  1  0.99426421  0.87575437  0.99314098  1
  O  O352  1  0.49544407  0.49404152  0.37934126  1
  O  O353  1  0.50033458  0.48942434  0.88006665  1
  O  O354  1  0.48888398  0.99284173  0.37669390  1
  O  O355  1  0.50146181  0.99397046  0.88528307  1
  O  O356  1  0.99516252  0.49568304  0.37877918  1
  O  O357  1  0.99274648  0.49947095  0.88152763  1
  O  O358  1  0.99257640  0.99996877  0.38229663  1
  O  O359  1  0.99470837  0.99316126  0.87730398  1
  O  O360  1  0.01269098  0.00177190  0.12235653  1
  O  O361  1  -0.00001447  0.00677335  0.61948799  1
  O  O362  1  0.00012338  0.50711458  0.11797386  1
  O  O363  1  0.00839453  0.50131464  0.61792018  1
  O  O364  1  0.50574561  0.00084454  0.11593058  1
  O  O365  1  0.50654722  0.00541619  0.62292432  1
  O  O366  1  0.50447706  0.50670290  0.11957872  1
  O  O367  1  0.50598101  0.50545308  0.61909512  1
  O  O368  1  0.24552186  0.37861193  0.24354082  1
  O  O369  1  0.24522549  0.37940801  0.74395359  1
  O  O370  1  0.24650021  0.87539337  0.23699799  1
  O  O371  1  0.24624314  0.88042936  0.74494950  1
  O  O372  1  0.74262084  0.38477324  0.24861949  1
  O  O373  1  0.73613140  0.37564843  0.74879511  1
  O  O374  1  0.74967347  0.88283351  0.24342398  1
  O  O375  1  0.74312738  0.87487388  0.74307604  1
  O  O376  1  0.25849297  0.12364298  0.25840448  1
  O  O377  1  0.25755846  0.11575870  0.74882818  1
  O  O378  1  0.25462684  0.61976929  0.25460732  1
  O  O379  1  0.25483045  0.61960805  0.75532774  1
  O  O380  1  0.75551278  0.11953774  0.25466219  1
  O  O381  1  0.75230384  0.12243212  0.75992106  1
  O  O382  1  0.75523255  0.62175941  0.25542813  1
  O  O383  1  0.75685665  0.62349947  0.75595400  1
  O  O384  1  0.36983452  0.11713516  0.37069140  1
  O  O385  1  0.37308169  0.12285150  0.86282111  1
  O  O386  1  0.36962841  0.62010497  0.36843382  1
  O  O387  1  0.36811891  0.62262185  0.86835812  1
  O  O388  1  0.86925965  0.11992931  0.36925145  1
  O  O389  1  0.86980873  0.11830211  0.87600848  1
  O  O390  1  0.86939921  0.62089701  0.36892716  1
  O  O391  1  0.86932446  0.62058444  0.86933031  1
  O  O392  1  0.13579435  0.37570456  0.13100682  1
  O  O393  1  0.13172881  0.37981584  0.63023163  1
  O  O394  1  0.13292272  0.88315537  0.12384826  1
  O  O395  1  0.13504323  0.87576520  0.63281619  1
  O  O396  1  0.62582726  0.38412608  0.13094421  1
  O  O397  1  0.62213906  0.37881387  0.63382640  1
  O  O398  1  0.63231471  0.88209894  0.12711027  1
  O  O399  1  0.63027822  0.87929542  0.62960028  1
  O  O400  1  0.11999328  0.25484135  0.25587924  1
  O  O401  1  0.12154988  0.25469821  0.75470648  1
  O  O402  1  0.11835573  0.74940391  0.25660143  1
  O  O403  1  0.12038437  0.75463620  0.75655722  1
  O  O404  1  0.62272884  0.26000935  0.25203892  1
  O  O405  1  0.62283487  0.25794141  0.75548043  1
  O  O406  1  0.61700170  0.75135806  0.25677573  1
  O  O407  1  0.61924233  0.75494591  0.75543737  1
  O  O408  1  0.37650975  0.23772253  0.25189092  1
  O  O409  1  0.37395930  0.23812188  0.74370125  1
  O  O410  1  0.37918110  0.74398587  0.24390996  1
  O  O411  1  0.38302283  0.74196241  0.74893066  1
  O  O412  1  0.87936280  0.24593977  0.24427268  1
  O  O413  1  0.88198056  0.24855153  0.74138488  1
  O  O414  1  0.88035204  0.74433911  0.24489802  1
  O  O415  1  0.88059444  0.74547829  0.74474652  1
  O  O416  1  0.38235529  0.49932858  0.49283701  1
  O  O417  1  0.38328711  0.49536739  0.99660773  1
  O  O418  1  0.37468091  0.99895246  0.48836582  1
  O  O419  1  0.38637833  1.00040406  0.99939427  1
  O  O420  1  0.88234500  0.50057024  0.49242265  1
  O  O421  1  0.87952525  0.49586767  0.99387684  1
  O  O422  1  0.87914793  0.99590451  0.49500783  1
  O  O423  1  0.87837212  0.99371327  0.99396443  1
  O  O424  1  0.12689490  0.00920499  0.00817327  1
  O  O425  1  0.11746910  0.00738755  0.50246235  1
  O  O426  1  0.11780621  0.50644475  0.00061649  1
  O  O427  1  0.12132149  0.50508324  0.50432451  1
  O  O428  1  0.61790392  0.00517394  0.00534593  1
  O  O429  1  0.62386222  0.01033036  0.50587907  1
  O  O430  1  0.61896903  0.50636417  0.00469147  1
  O  O431  1  0.61950290  0.50715449  0.50438546  1
  O  O432  1  0.36267839  0.37231085  0.12465122  1
  O  O433  1  0.36926409  0.36764736  0.62404968  1
  O  O434  1  0.36462918  0.87003515  0.12396663  1
  O  O435  1  0.36253478  0.87306879  0.62534472  1
  O  O436  1  0.87187694  0.36921510  0.11738839  1
  O  O437  1  0.87418921  0.36434527  0.62381004  1
  O  O438  1  0.87026987  0.87063118  0.11984193  1
  O  O439  1  0.86939820  0.86944705  0.61975898  1
  O  O440  1  0.12942140  0.13091026  0.38036343  1
  O  O441  1  0.12936956  0.13013314  0.88531122  1
  O  O442  1  0.13179856  0.62953386  0.38032626  1
  O  O443  1  0.13075730  0.63054139  0.87987105  1
  O  O444  1  0.62947202  0.12374215  0.38379022  1
  O  O445  1  0.63054649  0.13009699  0.88054496  1
  O  O446  1  0.63011220  0.63142021  0.38030454  1
  O  O447  1  0.62888038  0.62959813  0.87894089  1
