# generated using pymatgen
data_V3Zn3O8
_symmetry_space_group_name_H-M   'P 1'
_cell_length_a   17.09049080
_cell_length_b   17.09006193
_cell_length_c   17.09031010
_cell_angle_alpha   90.00327442
_cell_angle_beta   89.99457256
_cell_angle_gamma   90.01195115
_symmetry_Int_Tables_number   1
_chemical_formula_structural   V3Zn3O8
_chemical_formula_sum   'V96 Zn96 O256'
_cell_volume   4991.69569771
_cell_formula_units_Z   32
loop_
 _symmetry_equiv_pos_site_id
 _symmetry_equiv_pos_as_xyz
  1  'x, y, z'
loop_
 _atom_site_type_symbol
 _atom_site_label
 _atom_site_symmetry_multiplicity
 _atom_site_fract_x
 _atom_site_fract_y
 _atom_site_fract_z
 _atom_site_occupancy
  V  V0  1  0.74796476  0.24774920  0.49945588  1
  V  V1  1  0.50054247  0.75049108  0.24998658  1
  V  V2  1  0.74930435  0.49986239  0.75159295  1
  V  V3  1  0.25038753  0.62578323  0.37483768  1
  V  V4  1  0.37607996  0.62654751  0.24922436  1
  V  V5  1  0.25033598  0.37601581  0.12420101  1
  V  V6  1  0.37443315  0.62548798  0.75021959  1
  V  V7  1  0.37625349  0.75055616  0.12472763  1
  V  V8  1  0.75064611  0.87469395  0.12573879  1
  V  V9  1  0.62586949  0.74992255  0.87638516  1
  V  V10  1  0.37480611  0.24998735  0.62503633  1
  V  V11  1  0.37409310  0.12427529  0.24981635  1
  V  V12  1  0.50007751  0.87527078  0.87548588  1
  V  V13  1  -0.00138409  0.24973794  0.24769963  1
  V  V14  1  0.87534384  -0.00119719  0.87562688  1
  V  V15  1  0.12518537  -0.00093440  0.62385995  1
  V  V16  1  0.87546809  -0.00058589  0.37503383  1
  V  V17  1  0.87527537  0.87399676  0.50095398  1
  V  V18  1  0.25115875  0.75095923  0.00044631  1
  V  V19  1  0.87445630  0.74926001  0.62531438  1
  V  V20  1  0.75031012  0.75023969  0.00066632  1
  V  V21  1  0.37404842  0.50041532  0.87455293  1
  V  V22  1  0.87463665  0.24888816  0.62459675  1
  V  V23  1  0.37425774  0.12561365  0.74912008  1
  V  V24  1  0.50012398  0.12527547  0.12378746  1
  V  V25  1  0.12503598  0.50136623  0.12453632  1
  V  V26  1  0.75372143  0.37291088  0.12414556  1
  V  V27  1  0.25144163  0.75012829  0.49960407  1
  V  V28  1  0.37446108  0.00061460  0.87379955  1
  V  V29  1  0.37474096  0.37536298  0.49996031  1
  V  V30  1  0.00058779  0.12300830  0.62392066  1
  V  V31  1  0.00094398  0.87491000  0.37552574  1
  V  V32  1  0.12458564  0.00048167  0.12509952  1
  V  V33  1  0.12606438  0.87468485  0.74983695  1
  V  V34  1  0.37509970  0.24982742  0.12456210  1
  V  V35  1  -0.00089631  0.49885568  -0.00126103  1
  V  V36  1  -0.00065689  0.87478320  0.87634314  1
  V  V37  1  0.37446783  0.37501466  -0.00049950  1
  V  V38  1  0.12581121  0.24956758  0.37496395  1
  V  V39  1  0.12331819  0.12445983  -0.00032032  1
  V  V40  1  0.12421861  0.37454735  0.74945041  1
  V  V41  1  0.62492519  0.74959999  0.37517771  1
  V  V42  1  0.62421238  0.62528643  0.50021983  1
  V  V43  1  0.49970455  0.25040652  0.25058277  1
  V  V44  1  0.75000544  0.62559190  0.87629734  1
  V  V45  1  0.50101453  0.37435614  0.37467209  1
  V  V46  1  0.37573232  0.00055939  0.37417710  1
  V  V47  1  0.62340013  0.50161144  0.62544826  1
  V  V48  1  0.62324533  0.00188559  0.62340534  1
  V  V49  1  0.87454571  0.74955529  0.12558539  1
  V  V50  1  0.24879734  0.25026012  0.49862571  1
  V  V51  1  0.37517439  0.50019151  0.37506349  1
  V  V52  1  0.49945880  0.74982273  0.75027276  1
  V  V53  1  0.12537711  0.75085192  0.37439066  1
  V  V54  1  0.75022804  -0.00040356  0.75060213  1
  V  V55  1  0.00083171  0.00001435  0.50026029  1
  V  V56  1  0.74979751  -0.00043597  0.24989785  1
  V  V57  1  0.62462253  0.49918828  0.12534687  1
  V  V58  1  0.24958344  0.87584570  0.62457641  1
  V  V59  1  0.87543327  0.37578709  0.49974842  1
  V  V60  1  0.50005291  0.00119432  0.00003180  1
  V  V61  1  0.62467333  0.12576961  -0.00056838  1
  V  V62  1  0.62570335  0.24996037  0.87500611  1
  V  V63  1  0.74961120  0.12534844  0.87554103  1
  V  V64  1  0.00052940  0.62312001  0.62421492  1
  V  V65  1  0.62582347  0.87447886  0.25063024  1
  V  V66  1  0.74886104  0.12470534  0.37555142  1
  V  V67  1  0.24984765  0.50143404  0.24939024  1
  V  V68  1  0.49927176  0.25014892  0.74902439  1
  V  V69  1  0.74929576  0.62485376  0.37594518  1
  V  V70  1  0.24995227  0.62450613  0.87457032  1
  V  V71  1  0.37563374  0.75039185  0.62521837  1
  V  V72  1  0.00003580  0.24978832  0.74964244  1
  V  V73  1  0.12511875  0.62531344  -0.00041675  1
  V  V74  1  0.74968827  0.49895795  0.25047803  1
  V  V75  1  0.24949600  0.24967888  -0.00058399  1
  V  V76  1  0.12469471  0.37562622  0.24971576  1
  V  V77  1  0.87546539  0.62489871  0.25086686  1
  V  V78  1  0.37500953  0.87487549  0.00015173  1
  V  V79  1  0.12500663  0.62433191  0.50033171  1
  V  V80  1  0.24934311  0.37579728  0.62514553  1
  V  V81  1  0.37651619  0.87665000  0.49886647  1
  V  V82  1  0.75124636  0.87394872  0.62550581  1
  V  V83  1  0.87488749  0.12541318  0.24906154  1
  V  V84  1  0.24982862  0.12467876  0.87414356  1
  V  V85  1  0.62524339  0.37596647  0.75079190  1
  V  V86  1  0.12591979  0.87589557  0.24902260  1
  V  V87  1  -0.00054471  0.62563871  0.12554730  1
  V  V88  1  0.87452242  0.49988265  0.37659475  1
  V  V89  1  0.62545524  0.87473211  0.75057225  1
  V  V90  1  0.87610900  0.49886151  0.87617015  1
  V  V91  1  0.87556885  0.12438890  0.74997910  1
  V  V92  1  0.87523840  0.62449988  0.74967493  1
  V  V93  1  0.49960841  0.37513537  0.87520532  1
  V  V94  1  0.12484197  0.75014689  0.87502430  1
  V  V95  1  0.50063182  0.49993506  0.00077558  1
  Zn  Zn96  1  0.00056920  0.74814343  0.75083083  1
  Zn  Zn97  1  -0.00027804  0.74942052  0.25011027  1
  Zn  Zn98  1  0.87402317  0.24763219  0.12224751  1
  Zn  Zn99  1  0.25108431  0.87596793  0.12511554  1
  Zn  Zn100  1  -0.00374830  0.12462511  0.12252207  1
  Zn  Zn101  1  0.50121066  0.62492269  0.12414271  1
  Zn  Zn102  1  0.62128125  0.12471183  0.49900190  1
  Zn  Zn103  1  0.49903178  0.50113475  0.50046010  1
  Zn  Zn104  1  0.87520463  0.87678583  0.00187121  1
  Zn  Zn105  1  0.62414768  0.62509871  0.00055509  1
  Zn  Zn106  1  0.87794705  0.37041186  -0.00198478  1
  Zn  Zn107  1  0.24984010  0.12466229  0.37397415  1
  Zn  Zn108  1  0.25048453  0.00064339  0.74841131  1
  Zn  Zn109  1  0.75316610  0.24965590  0.00009189  1
  Zn  Zn110  1  0.74929225  0.74999032  0.50027343  1
  Zn  Zn111  1  0.49910928  0.12564815  0.62300801  1
  Zn  Zn112  1  0.50011340  0.00234692  0.49956343  1
  Zn  Zn113  1  0.62536295  0.00058606  0.12548530  1
  Zn  Zn114  1  0.49839350  0.62599351  0.62350432  1
  Zn  Zn115  1  -0.00030885  0.37712233  0.37446455  1
  Zn  Zn116  1  0.74949518  0.37397569  0.62626888  1
  Zn  Zn117  1  0.50190573  0.87625824  0.37623039  1
  Zn  Zn118  1  0.24904509  0.50017547  0.74873182  1
  Zn  Zn119  1  -0.00227191  0.00096575  0.00041827  1
  Zn  Zn120  1  0.62690122  0.37203799  0.25206043  1
  Zn  Zn121  1  -0.00051396  0.37309735  0.87580156  1
  Zn  Zn122  1  0.12612852  0.12423020  0.49875718  1
  Zn  Zn123  1  0.12647680  0.50007685  0.62370888  1
  Zn  Zn124  1  0.62338936  0.24772778  0.37535535  1
  Zn  Zn125  1  0.00222209  0.49883969  0.49816164  1
  Zn  Zn126  1  0.25048403  0.00230909  0.24942336  1
  Zn  Zn127  1  0.12285356  0.24951213  0.87482187  1
  Zn  Zn128  1  0.18820118  0.18685792  0.18727498  1
  Zn  Zn129  1  0.18724453  0.18754712  0.68600811  1
  Zn  Zn130  1  0.18866745  0.68957703  0.18682172  1
  Zn  Zn131  1  0.18774826  0.68862536  0.68794332  1
  Zn  Zn132  1  0.68539172  0.18787879  0.18886242  1
  Zn  Zn133  1  0.68788315  0.18728343  0.68805753  1
  Zn  Zn134  1  0.68792441  0.68648820  0.18821227  1
  Zn  Zn135  1  0.68768660  0.68704544  0.68827225  1
  Zn  Zn136  1  0.31278607  0.31281478  0.31161705  1
  Zn  Zn137  1  0.31033387  0.31140771  0.81228872  1
  Zn  Zn138  1  0.31261227  0.81452462  0.31195977  1
  Zn  Zn139  1  0.31171623  0.81288575  0.81248901  1
  Zn  Zn140  1  0.81239812  0.31249430  0.31312667  1
  Zn  Zn141  1  0.81271701  0.31324908  0.81310409  1
  Zn  Zn142  1  0.81198522  0.81121179  0.31257112  1
  Zn  Zn143  1  0.81366068  0.81112290  0.81201447  1
  Zn  Zn144  1  0.18717938  0.43778634  0.43770758  1
  Zn  Zn145  1  0.18605242  0.43744191  0.93520475  1
  Zn  Zn146  1  0.19001462  0.93853184  0.43713415  1
  Zn  Zn147  1  0.18835962  0.93819550  0.93720423  1
  Zn  Zn148  1  0.68721093  0.43707025  0.43929328  1
  Zn  Zn149  1  0.68904148  0.43695298  0.93971240  1
  Zn  Zn150  1  0.68877808  0.93606544  0.43821114  1
  Zn  Zn151  1  0.68787075  0.93780447  0.93971898  1
  Zn  Zn152  1  0.31083075  0.06154439  0.06239131  1
  Zn  Zn153  1  0.31108731  0.06442603  0.56013724  1
  Zn  Zn154  1  0.31352527  0.56416960  0.06212168  1
  Zn  Zn155  1  0.31197403  0.56171814  0.56332711  1
  Zn  Zn156  1  0.81186147  0.06199092  0.06239578  1
  Zn  Zn157  1  0.81231942  0.06120484  0.56261139  1
  Zn  Zn158  1  0.81275100  0.56181971  0.06166124  1
  Zn  Zn159  1  0.80997696  0.56235380  0.56275868  1
  Zn  Zn160  1  0.43773223  0.43733234  0.18847451  1
  Zn  Zn161  1  0.43718980  0.43785896  0.68852112  1
  Zn  Zn162  1  0.43983180  0.93728758  0.18776089  1
  Zn  Zn163  1  0.43766398  0.93748398  0.68772253  1
  Zn  Zn164  1  0.93732390  0.43793355  0.18763608  1
  Zn  Zn165  1  0.93729539  0.43750491  0.68677962  1
  Zn  Zn166  1  0.93854376  0.93743806  0.18775689  1
  Zn  Zn167  1  0.93920071  0.93635611  0.68927467  1
  Zn  Zn168  1  0.06126909  0.06390585  0.31178401  1
  Zn  Zn169  1  0.06301255  0.06052033  0.81141123  1
  Zn  Zn170  1  0.06063588  0.56259266  0.31369588  1
  Zn  Zn171  1  0.06211018  0.56007693  0.81123195  1
  Zn  Zn172  1  0.56264696  0.06308033  0.31248574  1
  Zn  Zn173  1  0.56139279  0.06363347  0.81112304  1
  Zn  Zn174  1  0.56236750  0.56204862  0.31146687  1
  Zn  Zn175  1  0.56140511  0.56447570  0.81325698  1
  Zn  Zn176  1  0.43757426  0.18565167  0.43954562  1
  Zn  Zn177  1  0.43726968  0.18757219  0.93613216  1
  Zn  Zn178  1  0.44034313  0.68787751  0.43746246  1
  Zn  Zn179  1  0.43894143  0.68599654  0.93848529  1
  Zn  Zn180  1  0.93788135  0.18713329  0.43602994  1
  Zn  Zn181  1  0.93712185  0.18933280  0.93652545  1
  Zn  Zn182  1  0.93790607  0.68822549  0.43843483  1
  Zn  Zn183  1  0.93662797  0.68762440  0.93899020  1
  Zn  Zn184  1  0.06280448  0.31315696  0.06236241  1
  Zn  Zn185  1  0.06158084  0.31188574  0.56349648  1
  Zn  Zn186  1  0.06158983  0.81186247  0.06230789  1
  Zn  Zn187  1  0.06221096  0.81055337  0.56255559  1
  Zn  Zn188  1  0.56438442  0.31269525  0.06232890  1
  Zn  Zn189  1  0.56174537  0.31439185  0.56317497  1
  Zn  Zn190  1  0.56346439  0.81307377  0.06379372  1
  Zn  Zn191  1  0.56145088  0.81390014  0.56146318  1
  O  O192  1  0.12490161  0.11715742  0.11651266  1
  O  O193  1  0.11778749  0.11799368  0.62295968  1
  O  O194  1  0.12073208  0.62053589  0.11961263  1
  O  O195  1  0.11661563  0.62591961  0.61980645  1
  O  O196  1  0.61745865  0.12429633  0.11797941  1
  O  O197  1  0.62567065  0.11242232  0.62590310  1
  O  O198  1  0.62538482  0.61034586  0.12419289  1
  O  O199  1  0.62385974  0.61682785  0.62071270  1
  O  O200  1  0.38139444  0.38028498  0.37943285  1
  O  O201  1  0.37951425  0.37958648  0.88033215  1
  O  O202  1  0.37545119  0.88416824  0.37992801  1
  O  O203  1  0.38090839  0.88008361  0.88009745  1
  O  O204  1  0.87477853  0.38053912  0.38461477  1
  O  O205  1  0.87769258  0.38422454  0.87576153  1
  O  O206  1  0.88074881  0.87986360  0.37977444  1
  O  O207  1  0.88417522  0.87953316  0.87445225  1
  O  O208  1  0.26215038  0.00248841  0.37233461  1
  O  O209  1  0.25716036  0.00669231  0.87326427  1
  O  O210  1  0.25517604  0.50566208  0.36837583  1
  O  O211  1  0.25674206  0.50689889  0.87436515  1
  O  O212  1  0.75703499  0.00436809  0.37016089  1
  O  O213  1  0.75465288  0.00474269  0.86902676  1
  O  O214  1  0.75426606  0.50477692  0.37011377  1
  O  O215  1  0.75485107  0.50575934  0.87062689  1
  O  O216  1  0.24478981  0.49592556  0.12949996  1
  O  O217  1  0.24809279  0.49100027  0.62812589  1
  O  O218  1  0.23715049  0.99719883  0.12648294  1
  O  O219  1  0.24329189  0.99300734  0.62421780  1
  O  O220  1  0.74335900  0.49271621  0.12982471  1
  O  O221  1  0.73872683  0.49956093  0.63252588  1
  O  O222  1  0.74873910  0.99302163  0.13283245  1
  O  O223  1  0.74366604  0.99411087  0.63154086  1
  O  O224  1  0.00618122  0.36672365  0.25083706  1
  O  O225  1  0.00880098  0.36853715  0.74748677  1
  O  O226  1  0.01091841  0.87413363  0.25658167  1
  O  O227  1  0.00630440  0.87222415  0.76049408  1
  O  O228  1  0.49825611  0.36914791  0.26004607  1
  O  O229  1  0.50510898  0.36996324  0.75686944  1
  O  O230  1  0.50811725  0.86799960  0.25156943  1
  O  O231  1  0.50538992  0.86949248  0.75678318  1
  O  O232  1  0.49386893  0.13076608  0.24344030  1
  O  O233  1  0.49249654  0.13317509  0.74837786  1
  O  O234  1  0.49309322  0.63151472  0.24834336  1
  O  O235  1  0.49230566  0.63293656  0.74977543  1
  O  O236  1  0.99414310  0.13451346  0.24898567  1
  O  O237  1  0.99462745  0.12879346  0.74381430  1
  O  O238  1  0.99366347  0.62613157  0.24326016  1
  O  O239  1  0.99446611  0.62543784  0.74058385  1
  O  O240  1  0.36983309  0.25562001  0.00517431  1
  O  O241  1  0.36857241  0.25664093  0.50515996  1
  O  O242  1  0.37106468  0.75535017  0.00438748  1
  O  O243  1  0.37013463  0.75545751  0.50449139  1
  O  O244  1  0.87197659  0.25223283  0.00468293  1
  O  O245  1  0.86749932  0.25623360  0.50363688  1
  O  O246  1  0.86794662  0.75167347  0.00773257  1
  O  O247  1  0.87336068  0.75672625  0.50701942  1
  O  O248  1  0.12856916  0.25164245  0.48935791  1
  O  O249  1  0.13090197  0.24002766  1.00089530  1
  O  O250  1  0.13196537  0.74513511  0.49392885  1
  O  O251  1  0.13087987  0.74420907  0.99498836  1
  O  O252  1  0.63820165  0.25022728  0.50107890  1
  O  O253  1  0.62565365  0.24351799  0.99180569  1
  O  O254  1  0.62628929  0.74372769  0.49406724  1
  O  O255  1  0.63156729  0.74887770  0.99375344  1
  O  O256  1  0.49361174  0.24591784  0.12921700  1
  O  O257  1  0.49286500  0.25149788  0.63227062  1
  O  O258  1  0.49421134  0.74782294  0.13132883  1
  O  O259  1  0.49338152  0.75043260  0.63294471  1
  O  O260  1  1.00098454  0.24884873  0.13850462  1
  O  O261  1  0.99335312  0.24253065  0.62922059  1
  O  O262  1  0.99351601  0.74288358  0.12601537  1
  O  O263  1  0.99407875  0.73885149  0.62626209  1
  O  O264  1  0.00819178  0.25189359  0.36504257  1
  O  O265  1  0.00248900  0.25162264  0.86424965  1
  O  O266  1  0.00742512  0.75707003  0.37410544  1
  O  O267  1  0.00597216  0.75801648  0.87476550  1
  O  O268  1  0.49766916  0.25985189  0.37007036  1
  O  O269  1  0.50504094  0.25631272  0.86913855  1
  O  O270  1  0.50740417  0.75187031  0.36727990  1
  O  O271  1  0.50543694  0.75627690  0.87058321  1
  O  O272  1  0.24602258  0.13553101  0.49562184  1
  O  O273  1  0.24223022  0.13008616  0.99520924  1
  O  O274  1  0.24554119  0.63114771  0.49387674  1
  O  O275  1  0.24458555  0.63066676  0.99436816  1
  O  O276  1  0.75196418  0.13425701  0.49481924  1
  O  O277  1  0.74231915  0.12536801  0.99256807  1
  O  O278  1  0.74237977  0.62652330  0.49345638  1
  O  O279  1  0.74836577  0.63169960  0.99354225  1
  O  O280  1  0.25454425  0.37038701  0.00505987  1
  O  O281  1  0.25536058  0.36962543  0.50465624  1
  O  O282  1  0.25707996  0.86819590  -0.00013941  1
  O  O283  1  0.25582151  0.86863132  0.50489897  1
  O  O284  1  0.75247693  0.37321870  0.01155604  1
  O  O285  1  0.75916233  0.36517684  0.50088573  1
  O  O286  1  0.75152966  0.86842902  0.00721714  1
  O  O287  1  0.75847037  0.87344592  0.50766069  1
  O  O288  1  0.13058922  0.49618812  0.24457691  1
  O  O289  1  0.12664454  0.48761881  0.74685217  1
  O  O290  1  0.12494563  0.99319236  0.24283469  1
  O  O291  1  0.12699346  0.99247824  0.74175595  1
  O  O292  1  0.63083643  0.49700336  0.24135291  1
  O  O293  1  0.62894546  0.49626269  0.74437328  1
  O  O294  1  0.63235578  0.99337938  0.24939184  1
  O  O295  1  0.63053472  0.99421064  0.74380382  1
  O  O296  1  0.37447871  0.00506682  0.25714839  1
  O  O297  1  0.37404450  0.00659736  0.75635391  1
  O  O298  1  0.36861306  0.50582612  0.25452968  1
  O  O299  1  0.37375927  0.50646166  0.75759646  1
  O  O300  1  0.87048483  0.00472863  0.25646693  1
  O  O301  1  0.86949106  0.00494189  0.75477831  1
  O  O302  1  0.86936461  0.50564728  0.25630492  1
  O  O303  1  0.86894404  0.50530339  0.75464132  1
  O  O304  1  0.12365389  0.36608970  0.36822876  1
  O  O305  1  0.12359806  0.37167551  0.86276440  1
  O  O306  1  0.12093866  0.87143235  0.36790666  1
  O  O307  1  0.11841351  0.87065245  0.87058420  1
  O  O308  1  0.61262188  0.37374693  0.37527934  1
  O  O309  1  0.61929722  0.37072311  0.87037924  1
  O  O310  1  0.62585775  0.86812392  0.36854343  1
  O  O311  1  0.61997010  0.87028698  0.86971004  1
  O  O312  1  0.38011155  0.13069281  0.12849194  1
  O  O313  1  0.37436960  0.13261380  0.63142442  1
  O  O314  1  0.37628090  0.63176722  0.13191787  1
  O  O315  1  0.37527450  0.63262649  0.63123889  1
  O  O316  1  0.87669182  0.12622875  0.13391197  1
  O  O317  1  0.88058203  0.12820657  0.63084139  1
  O  O318  1  0.87966045  0.62908311  0.13140416  1
  O  O319  1  0.88119241  0.62880274  0.62907464  1
  O  O320  1  0.25538835  0.25652936  0.11930580  1
  O  O321  1  0.25515816  0.25651691  0.61842737  1
  O  O322  1  0.25717599  0.75217674  0.11760294  1
  O  O323  1  0.25588407  0.75600872  0.61871107  1
  O  O324  1  0.74943059  0.26174468  0.12611533  1
  O  O325  1  0.75650531  0.25003616  0.61629889  1
  O  O326  1  0.75514212  0.75441986  0.12095189  1
  O  O327  1  0.75623303  0.75662286  0.62493480  1
  O  O328  1  0.24021756  0.25198849  0.37899407  1
  O  O329  1  0.24790937  0.24272762  0.88266854  1
  O  O330  1  0.24536940  0.74493541  0.38008551  1
  O  O331  1  0.24485032  0.74451203  0.88129203  1
  O  O332  1  0.74984266  0.24407253  0.38456860  1
  O  O333  1  0.74290641  0.24260590  0.87408296  1
  O  O334  1  0.74318386  0.74221828  0.37603086  1
  O  O335  1  0.74528222  0.74551599  0.88009481  1
  O  O336  1  0.01260147  0.12404140  0.00078903  1
  O  O337  1  0.00041068  0.11789566  0.50589932  1
  O  O338  1  0.00638630  0.61967250  0.00589279  1
  O  O339  1  0.00584004  0.62470963  0.50893616  1
  O  O340  1  0.50416117  0.12057754  0.00393869  1
  O  O341  1  0.50404839  0.12142629  0.50588319  1
  O  O342  1  0.50309920  0.61580509  0.00315513  1
  O  O343  1  0.50812187  0.62122600  0.50253189  1
  O  O344  1  0.49310993  0.37588117  0.49042426  1
  O  O345  1  0.49355466  0.37935292  0.99441736  1
  O  O346  1  0.49145035  0.87947890  0.49696816  1
  O  O347  1  0.49511047  0.88072132  0.99416437  1
  O  O348  1  0.98615389  0.37470176  0.49906541  1
  O  O349  1  1.00026710  0.38379701  0.99800060  1
  O  O350  1  0.99508108  0.88023726  0.49510391  1
  O  O351  1  0.99976861  0.87662166  0.98704270  1
  O  O352  1  0.49333343  0.49014377  0.37436094  1
  O  O353  1  0.49446522  0.49391846  0.88027903  1
  O  O354  1  0.48755767  0.99859750  0.37560223  1
  O  O355  1  0.49447691  0.99477259  0.87984807  1
  O  O356  1  0.99087037  0.49736194  0.37806090  1
  O  O357  1  0.99358863  0.49982477  0.88147077  1
  O  O358  1  0.99489917  0.99469605  0.38025815  1
  O  O359  1  0.99461554  0.99002354  0.87462274  1
  O  O360  1  0.01243145  0.00180282  0.12255734  1
  O  O361  1  0.00497027  0.00340633  0.61949181  1
  O  O362  1  0.00625699  0.50618473  0.12015515  1
  O  O363  1  0.00005314  0.51324117  0.62191912  1
  O  O364  1  0.50101475  0.00768220  0.11748901  1
  O  O365  1  0.51272596  0.00009238  0.62604701  1
  O  O366  1  0.50924857  0.49791479  0.12054327  1
  O  O367  1  0.51209621  0.50172111  0.62522684  1
  O  O368  1  0.24520838  0.38152245  0.24343025  1
  O  O369  1  0.24038450  0.37347224  0.74366777  1
  O  O370  1  0.23644438  0.87734789  0.24840557  1
  O  O371  1  0.24404117  0.87627175  0.74260011  1
  O  O372  1  0.74901272  0.38116088  0.24258226  1
  O  O373  1  0.74257542  0.38199006  0.74916195  1
  O  O374  1  0.74563933  0.88014580  0.24541388  1
  O  O375  1  0.74495092  0.88024026  0.74580699  1
  O  O376  1  0.25889819  0.12370447  0.25185656  1
  O  O377  1  0.25611028  0.12443289  0.75603372  1
  O  O378  1  0.25513370  0.62069969  0.25549198  1
  O  O379  1  0.25614162  0.62477899  0.75735631  1
  O  O380  1  0.75516307  0.11986162  0.25585420  1
  O  O381  1  0.75614745  0.11914679  0.75571413  1
  O  O382  1  0.75588502  0.61823797  0.25601198  1
  O  O383  1  0.75552086  0.61946031  0.75661796  1
  O  O384  1  0.37463348  0.11705158  0.36808413  1
  O  O385  1  0.36962557  0.12029464  0.86957304  1
  O  O386  1  0.36921128  0.62045068  0.36947809  1
  O  O387  1  0.36927659  0.62026444  0.87054637  1
  O  O388  1  0.86965915  0.11852907  0.36939681  1
  O  O389  1  0.86986071  0.11866939  0.86826695  1
  O  O390  1  0.86918627  0.62020756  0.37139829  1
  O  O391  1  0.86983394  0.61984843  0.86913494  1
  O  O392  1  0.13161142  0.38191325  0.13000155  1
  O  O393  1  0.13009294  0.37480502  0.63295713  1
  O  O394  1  0.12420533  0.88236087  0.13255308  1
  O  O395  1  0.12965024  0.87863247  0.62936036  1
  O  O396  1  0.63338711  0.38443952  0.12672212  1
  O  O397  1  0.62651160  0.38504202  0.63158938  1
  O  O398  1  0.63275779  0.87651530  0.13266519  1
  O  O399  1  0.63107026  0.88191146  0.63150195  1
  O  O400  1  0.11896847  0.25520528  0.25584416  1
  O  O401  1  0.11853487  0.25840699  0.74892976  1
  O  O402  1  0.12414398  0.75919118  0.25542207  1
  O  O403  1  0.12377560  0.75667500  0.75776417  1
  O  O404  1  0.61495973  0.25276782  0.25418836  1
  O  O405  1  0.61982898  0.25597165  0.75477208  1
  O  O406  1  0.62082914  0.75405778  0.25527385  1
  O  O407  1  0.62019658  0.75583337  0.75617081  1
  O  O408  1  0.37969830  0.24529725  0.24313879  1
  O  O409  1  0.37986114  0.24603644  0.74485859  1
  O  O410  1  0.37965929  0.74605981  0.24506941  1
  O  O411  1  0.37989239  0.74579656  0.74529453  1
  O  O412  1  0.88472746  0.24469898  0.25099813  1
  O  O413  1  0.87921836  0.24382458  0.74382508  1
  O  O414  1  0.87637439  0.74243738  0.24416604  1
  O  O415  1  0.87698545  0.74190412  0.74336290  1
  O  O416  1  0.37581635  0.49361786  0.49283479  1
  O  O417  1  0.37980078  0.49382255  0.99521810  1
  O  O418  1  0.37452308  0.99492620  0.49077589  1
  O  O419  1  0.38032749  0.99528165  0.99396687  1
  O  O420  1  0.87225842  0.48973037  0.49568590  1
  O  O421  1  0.88252655  0.49988733  0.99345178  1
  O  O422  1  0.88082448  0.99351764  0.49480324  1
  O  O423  1  0.87788450  0.99754332  0.99142586  1
  O  O424  1  0.12515849  0.00864209  0.00766340  1
  O  O425  1  0.11819101  0.00016211  0.50510948  1
  O  O426  1  0.12072668  0.50616814  0.00543544  1
  O  O427  1  0.12272024  0.50798429  0.50204117  1
  O  O428  1  0.61729854  0.00743003  0.00039615  1
  O  O429  1  0.62653272  -0.00038205  0.51265350  1
  O  O430  1  0.61920113  0.49941632  0.00948118  1
  O  O431  1  0.62459650  0.50508058  0.51029321  1
  O  O432  1  0.36946501  0.37027135  0.11932188  1
  O  O433  1  0.37008467  0.36979108  0.62019434  1
  O  O434  1  0.37412521  0.86921173  0.11800761  1
  O  O435  1  0.36924575  0.87028710  0.61973807  1
  O  O436  1  0.86379165  0.37501157  0.12448771  1
  O  O437  1  0.87224727  0.36882851  0.61621796  1
  O  O438  1  0.86932685  0.86832708  0.12531447  1
  O  O439  1  0.87133292  0.86991042  0.62127701  1
  O  O440  1  0.12636476  0.13809449  0.37491365  1
  O  O441  1  0.13054304  0.12383123  0.88437383  1
  O  O442  1  0.13094268  0.63084676  0.37922063  1
  O  O443  1  0.12950517  0.62985750  0.88012918  1
  O  O444  1  0.63350495  0.12654302  0.37879691  1
  O  O445  1  0.62966712  0.13034472  0.87859127  1
  O  O446  1  0.63015174  0.62878221  0.37994559  1
  O  O447  1  0.63222570  0.63221739  0.87580832  1
