# generated using pymatgen
data_V3Zn3O8
_symmetry_space_group_name_H-M   'P 1'
_cell_length_a   17.09042889
_cell_length_b   17.09095227
_cell_length_c   17.08909012
_cell_angle_alpha   89.98186968
_cell_angle_beta   90.00334866
_cell_angle_gamma   90.00664317
_symmetry_Int_Tables_number   1
_chemical_formula_structural   V3Zn3O8
_chemical_formula_sum   'V96 Zn96 O256'
_cell_volume   4991.58117011
_cell_formula_units_Z   32
loop_
 _symmetry_equiv_pos_site_id
 _symmetry_equiv_pos_as_xyz
  1  'x, y, z'
loop_
 _atom_site_type_symbol
 _atom_site_label
 _atom_site_symmetry_multiplicity
 _atom_site_fract_x
 _atom_site_fract_y
 _atom_site_fract_z
 _atom_site_occupancy
  V  V0  1  0.25103133  0.50225135  0.24964041  1
  V  V1  1  0.12411044  0.87522868  0.25089454  1
  V  V2  1  0.12532130  0.25092596  0.37495044  1
  V  V3  1  0.62376837  0.62508639  -0.00022103  1
  V  V4  1  0.62392014  0.75026227  0.37523465  1
  V  V5  1  -0.00030161  0.25129362  0.24956418  1
  V  V6  1  0.62550314  0.24832413  0.87489866  1
  V  V7  1  0.12584377  0.37630772  0.24966222  1
  V  V8  1  0.25108257  0.37461250  0.62488786  1
  V  V9  1  0.62619173  0.25017855  0.37435317  1
  V  V10  1  0.12424185  0.12476196  0.50065443  1
  V  V11  1  0.37474192  0.12577490  0.25015377  1
  V  V12  1  0.24922017  0.00019785  0.75013247  1
  V  V13  1  0.24988551  0.12642058  0.37541711  1
  V  V14  1  0.00005103  0.74950679  0.75101757  1
  V  V15  1  0.62446305  0.87445951  0.75045261  1
  V  V16  1  0.49880752  -0.00102540  -0.00002169  1
  V  V17  1  0.12616857  0.62604396  0.50047932  1
  V  V18  1  0.75027294  0.62425578  0.37386479  1
  V  V19  1  0.24970426  0.75078846  0.50104566  1
  V  V20  1  0.37409517  0.87507136  0.50092763  1
  V  V21  1  0.25199881  0.49964228  0.75040847  1
  V  V22  1  0.25052165  0.37529542  0.12470743  1
  V  V23  1  0.37248926  0.87287086  0.00187794  1
  V  V24  1  0.75036582  0.74918208  0.50086325  1
  V  V25  1  0.50013830  0.12457588  0.12499221  1
  V  V26  1  0.74972099  -0.00072296  0.74908941  1
  V  V27  1  0.25110159  0.25116861  0.50005344  1
  V  V28  1  0.87444067  0.62508754  0.24943296  1
  V  V29  1  0.75010255  0.50002694  0.24887768  1
  V  V30  1  0.00082199  0.12414982  0.62428151  1
  V  V31  1  0.37545455  0.37538693  0.50033414  1
  V  V32  1  0.62336458  0.87413787  0.25062217  1
  V  V33  1  0.12560810  0.87538433  0.75028927  1
  V  V34  1  0.12471266  0.12561588  0.00023755  1
  V  V35  1  0.37510244  0.24957617  0.12516129  1
  V  V36  1  0.62474883  -0.00083559  0.12539545  1
  V  V37  1  0.49945075  0.24785799  0.74818904  1
  V  V38  1  0.75003957  0.00013621  0.25020602  1
  V  V39  1  0.87514424  0.25086956  0.12491754  1
  V  V40  1  0.87463983  0.00100176  0.37503478  1
  V  V41  1  0.50026837  0.87470419  0.37517040  1
  V  V42  1  0.87495475  0.87370603  0.50017451  1
  V  V43  1  0.37373134  0.75086023  0.62538787  1
  V  V44  1  0.75059839  0.25044176  0.49951200  1
  V  V45  1  0.87554546  0.74919163  0.62503702  1
  V  V46  1  0.87358452  0.87448466  0.00078612  1
  V  V47  1  0.50054569  0.00044967  0.50010516  1
  V  V48  1  0.00049993  0.49971600  0.50038877  1
  V  V49  1  -0.00001672  0.37528229  0.87458381  1
  V  V50  1  0.62551602  0.12392145  -0.00054134  1
  V  V51  1  0.50121873  0.25110737  0.24977407  1
  V  V52  1  0.12601530  0.50011948  0.62522239  1
  V  V53  1  0.00009428  0.25056149  0.75056307  1
  V  V54  1  0.00174235  0.50224109  0.00094142  1
  V  V55  1  -0.00108472  0.00038965  0.00087054  1
  V  V56  1  0.87404869  0.74998251  0.12547625  1
  V  V57  1  0.37601936  0.37373432  -0.00141709  1
  V  V58  1  0.37484789  0.62520779  0.75046552  1
  V  V59  1  0.75103938  0.49934834  0.75010563  1
  V  V60  1  0.87581412  0.37496354  0.50023016  1
  V  V61  1  0.62574168  -0.00040537  0.62431751  1
  V  V62  1  0.00051965  0.62507674  0.62676360  1
  V  V63  1  -0.00120061  0.74909960  0.24972921  1
  V  V64  1  0.62541431  0.49900749  0.62472180  1
  V  V65  1  0.00026932  0.37605284  0.37556996  1
  V  V66  1  0.37492107  0.00053973  0.37573467  1
  V  V67  1  -0.00125565  0.12635844  0.12575507  1
  V  V68  1  0.87482156  0.37557299  -0.00059333  1
  V  V69  1  0.87443905  0.24998200  0.62437132  1
  V  V70  1  0.74974852  0.62617301  0.87476671  1
  V  V71  1  0.24932278  0.24945691  -0.00031237  1
  V  V72  1  0.74966262  0.12524632  0.87504466  1
  V  V73  1  0.74898766  0.87403730  0.12437694  1
  V  V74  1  0.24874697  0.00098874  0.25081386  1
  V  V75  1  0.50056578  0.49983818  0.49970232  1
  V  V76  1  -0.00083069  0.87418212  0.87526065  1
  V  V77  1  0.87468130  0.00011320  0.87485091  1
  V  V78  1  0.37396416  0.00029363  0.87533724  1
  V  V79  1  0.62515678  0.62419143  0.49943875  1
  V  V80  1  0.12341765  0.00044600  0.12617580  1
  V  V81  1  0.49838161  0.62563734  0.12575736  1
  V  V82  1  0.24951064  0.12485539  0.87524167  1
  V  V83  1  0.50030130  0.37566426  0.87504744  1
  V  V84  1  0.50002463  0.74979435  0.75089085  1
  V  V85  1  0.49988701  0.12539384  0.62448364  1
  V  V86  1  -0.00079951  0.87473539  0.37562169  1
  V  V87  1  0.87545302  0.12480992  0.74967689  1
  V  V88  1  0.12539191  0.37404105  0.75032454  1
  V  V89  1  0.24889138  0.62593894  0.87809805  1
  V  V90  1  0.75010559  0.37537471  0.12376111  1
  V  V91  1  0.12497504  0.75022039  0.37627254  1
  V  V92  1  0.24927360  0.87488544  0.12563272  1
  V  V93  1  0.62607689  0.37455734  0.24836129  1
  V  V94  1  0.37583971  0.50140832  0.37434663  1
  V  V95  1  0.62646935  0.12542155  0.49856658  1
  Zn  Zn96  1  0.87567505  0.50075396  0.87447131  1
  Zn  Zn97  1  0.00195413  0.62496362  0.12458640  1
  Zn  Zn98  1  0.12491171  -0.00004817  0.62275211  1
  Zn  Zn99  1  0.87544589  0.50036625  0.37505686  1
  Zn  Zn100  1  0.24909459  0.87747619  0.62532999  1
  Zn  Zn101  1  0.62399803  0.49886241  0.12378435  1
  Zn  Zn102  1  0.62592659  0.37390757  0.74967307  1
  Zn  Zn103  1  0.25078762  0.62721629  0.37417659  1
  Zn  Zn104  1  0.75065739  0.37439249  0.62564948  1
  Zn  Zn105  1  0.37609939  0.50025402  0.87547229  1
  Zn  Zn106  1  0.49894401  0.62435371  0.62527202  1
  Zn  Zn107  1  0.50168522  0.37529672  0.37374012  1
  Zn  Zn108  1  0.87360671  0.12642119  0.25017813  1
  Zn  Zn109  1  0.00118167  -0.00077870  0.50153408  1
  Zn  Zn110  1  0.37528767  0.24861994  0.62385128  1
  Zn  Zn111  1  0.49677808  0.74919376  0.25086871  1
  Zn  Zn112  1  0.12484612  0.62813997  0.00315691  1
  Zn  Zn113  1  0.74856707  0.75057805  -0.00121384  1
  Zn  Zn114  1  0.75039286  0.25067706  -0.00059839  1
  Zn  Zn115  1  0.12575850  0.50291985  0.12434703  1
  Zn  Zn116  1  0.87657913  0.62487781  0.75106692  1
  Zn  Zn117  1  0.75100871  0.87363992  0.62511672  1
  Zn  Zn118  1  0.12533961  0.24972399  0.87476132  1
  Zn  Zn119  1  0.37246484  0.74898599  0.12920543  1
  Zn  Zn120  1  0.75113619  0.12579493  0.37309406  1
  Zn  Zn121  1  0.24641177  0.74762506  0.00351553  1
  Zn  Zn122  1  0.49909692  0.87514396  0.87669524  1
  Zn  Zn123  1  0.49923709  0.50012547  -0.00030711  1
  Zn  Zn124  1  0.62430082  0.75173661  0.87566503  1
  Zn  Zn125  1  0.37543426  0.62816104  0.24920787  1
  Zn  Zn126  1  0.37310928  0.12325764  0.74793127  1
  Zn  Zn127  1  0.12447849  0.74918387  0.87854360  1
  Zn  Zn128  1  0.18645204  0.18853144  0.18697007  1
  Zn  Zn129  1  0.18695203  0.18733373  0.68694140  1
  Zn  Zn130  1  0.18569256  0.68718441  0.18537957  1
  Zn  Zn131  1  0.18809382  0.68867417  0.68913051  1
  Zn  Zn132  1  0.68994920  0.18736672  0.18736406  1
  Zn  Zn133  1  0.68744060  0.18666993  0.68625603  1
  Zn  Zn134  1  0.68603213  0.68795735  0.18729509  1
  Zn  Zn135  1  0.68764403  0.68584258  0.68670325  1
  Zn  Zn136  1  0.31366923  0.31489961  0.31284898  1
  Zn  Zn137  1  0.31392299  0.31038543  0.81219320  1
  Zn  Zn138  1  0.31241835  0.81167491  0.31271200  1
  Zn  Zn139  1  0.31176788  0.81190589  0.81501812  1
  Zn  Zn140  1  0.81309174  0.31386828  0.31278076  1
  Zn  Zn141  1  0.81315290  0.31342471  0.81310179  1
  Zn  Zn142  1  0.81067653  0.81242016  0.31230503  1
  Zn  Zn143  1  0.81267275  0.81112801  0.81166831  1
  Zn  Zn144  1  0.18817026  0.43836481  0.43713295  1
  Zn  Zn145  1  0.18678274  0.43845918  0.93633937  1
  Zn  Zn146  1  0.18730997  0.93786560  0.43827886  1
  Zn  Zn147  1  0.18682951  0.93826120  0.93727053  1
  Zn  Zn148  1  0.68932696  0.43609998  0.43570989  1
  Zn  Zn149  1  0.68628112  0.43864928  0.93777174  1
  Zn  Zn150  1  0.68912390  0.93624873  0.43778500  1
  Zn  Zn151  1  0.68732315  0.93757624  0.93655955  1
  Zn  Zn152  1  0.31176743  0.06147551  0.06243454  1
  Zn  Zn153  1  0.31180826  0.06308101  0.56474062  1
  Zn  Zn154  1  0.31620578  0.55948343  0.06071439  1
  Zn  Zn155  1  0.31295305  0.56434904  0.56302569  1
  Zn  Zn156  1  0.81202558  0.06323859  0.06301879  1
  Zn  Zn157  1  0.81230810  0.06273597  0.56182904  1
  Zn  Zn158  1  0.81347347  0.56210954  0.06235815  1
  Zn  Zn159  1  0.81364816  0.56279478  0.56270919  1
  Zn  Zn160  1  0.43928421  0.43924313  0.18553011  1
  Zn  Zn161  1  0.43778749  0.43675497  0.68754248  1
  Zn  Zn162  1  0.43707080  0.93728464  0.18824868  1
  Zn  Zn163  1  0.43674517  0.93746577  0.68751707  1
  Zn  Zn164  1  0.93633051  0.43871149  0.18628728  1
  Zn  Zn165  1  0.93683555  0.43734075  0.68697079  1
  Zn  Zn166  1  0.93651143  0.93656853  0.18832917  1
  Zn  Zn167  1  0.93848132  0.93699612  0.68609672  1
  Zn  Zn168  1  0.06045106  0.06389517  0.31345553  1
  Zn  Zn169  1  0.06316906  0.06216015  0.81274912  1
  Zn  Zn170  1  0.06279196  0.56390568  0.31322582  1
  Zn  Zn171  1  0.06459620  0.56142278  0.81422659  1
  Zn  Zn172  1  0.56324264  0.06314690  0.31278024  1
  Zn  Zn173  1  0.56121191  0.06135630  0.81288504  1
  Zn  Zn174  1  0.56333359  0.56160322  0.31056061  1
  Zn  Zn175  1  0.56389361  0.56286044  0.81189525  1
  Zn  Zn176  1  0.43905913  0.18885384  0.43705485  1
  Zn  Zn177  1  0.43699392  0.18647410  0.93648160  1
  Zn  Zn178  1  0.43817648  0.68678313  0.43869448  1
  Zn  Zn179  1  0.43591201  0.68827000  0.93735668  1
  Zn  Zn180  1  0.93825611  0.18748458  0.43765980  1
  Zn  Zn181  1  0.93724834  0.18914684  0.93780246  1
  Zn  Zn182  1  0.93744648  0.68634875  0.43741077  1
  Zn  Zn183  1  0.93525496  0.68773700  0.93746685  1
  Zn  Zn184  1  0.06326874  0.31487219  0.06235032  1
  Zn  Zn185  1  0.06284146  0.31169622  0.56330269  1
  Zn  Zn186  1  0.06232968  0.81058505  0.06249655  1
  Zn  Zn187  1  0.06129330  0.81277681  0.56353359  1
  Zn  Zn188  1  0.56425314  0.31069115  0.06160718  1
  Zn  Zn189  1  0.56306627  0.31409446  0.56095023  1
  Zn  Zn190  1  0.56043379  0.80940080  0.06299183  1
  Zn  Zn191  1  0.56166620  0.81199678  0.56369622  1
  O  O192  1  0.11898257  0.11975078  0.12022676  1
  O  O193  1  0.11807078  0.12510257  0.61803777  1
  O  O194  1  0.12024223  0.62019476  0.12168178  1
  O  O195  1  0.12043493  0.61961330  0.62054512  1
  O  O196  1  0.61951184  0.11886231  0.11993759  1
  O  O197  1  0.61960587  0.11867071  0.61828814  1
  O  O198  1  0.61786108  0.62484343  0.11553377  1
  O  O199  1  0.62424893  0.61397837  0.61854154  1
  O  O200  1  0.37637984  0.38635489  0.38069450  1
  O  O201  1  0.38587780  0.37222792  0.87979470  1
  O  O202  1  0.38006326  0.88214477  0.38113554  1
  O  O203  1  0.37431187  0.88191542  0.88622304  1
  O  O204  1  0.88339947  0.37651485  0.38219407  1
  O  O205  1  0.88185339  0.37707657  0.88125191  1
  O  O206  1  0.87934873  0.88172048  0.37955784  1
  O  O207  1  0.87896418  0.88113776  0.88013851  1
  O  O208  1  0.25531961  0.00667446  0.36979971  1
  O  O209  1  0.25438492  0.00603114  0.86993409  1
  O  O210  1  0.25870420  0.49987176  0.36678249  1
  O  O211  1  0.25235382  0.50748321  0.86768606  1
  O  O212  1  0.75970216  -0.00065714  0.36952545  1
  O  O213  1  0.75544032  0.00544269  0.86875556  1
  O  O214  1  0.75178020  0.50705852  0.36792121  1
  O  O215  1  0.74854965  0.50823909  0.86549436  1
  O  O216  1  0.25241446  0.49310231  0.13527746  1
  O  O217  1  0.24503615  0.49450362  0.63012789  1
  O  O218  1  0.24270432  0.99660355  0.13210165  1
  O  O219  1  0.24662971  0.99778908  0.63424400  1
  O  O220  1  0.74834129  0.49324601  0.13120890  1
  O  O221  1  0.74211646  0.50087659  0.63284047  1
  O  O222  1  0.74399574  0.99400267  0.12981083  1
  O  O223  1  0.74375320  0.99855955  0.63168443  1
  O  O224  1  0.00593331  0.37102404  0.25530666  1
  O  O225  1  0.00518955  0.37044935  0.75423609  1
  O  O226  1  0.00514562  0.86920806  0.25568221  1
  O  O227  1  0.00674356  0.87083495  0.75577548  1
  O  O228  1  0.50690912  0.36805608  0.24918488  1
  O  O229  1  0.50123214  0.36510317  0.75781067  1
  O  O230  1  0.50633969  0.87590034  0.25762929  1
  O  O231  1  0.50788567  0.86738423  0.75052637  1
  O  O232  1  0.49421864  0.12991808  0.24424281  1
  O  O233  1  0.50045222  0.13320959  0.74398758  1
  O  O234  1  0.49994776  0.62536770  0.23866955  1
  O  O235  1  0.49509665  0.63426121  0.74950394  1
  O  O236  1  0.99931781  0.13322356  0.24323574  1
  O  O237  1  0.99417804  0.13029128  0.74586794  1
  O  O238  1  0.99267357  0.63192319  0.25051320  1
  O  O239  1  1.00055341  0.63049203  0.74448558  1
  O  O240  1  0.36944545  0.25328354  0.00633513  1
  O  O241  1  0.36877183  0.25720383  0.49898426  1
  O  O242  1  0.37249042  0.76419393  0.00174953  1
  O  O243  1  0.37019307  0.75538605  0.50481574  1
  O  O244  1  0.87407134  0.25733585  0.00679021  1
  O  O245  1  0.87064490  0.25478088  0.50499320  1
  O  O246  1  0.87254333  0.75763231  0.00685758  1
  O  O247  1  0.86997079  0.75417945  0.50475031  1
  O  O248  1  0.13144601  0.24575993  0.49370014  1
  O  O249  1  0.13169061  0.24359480  0.99988357  1
  O  O250  1  0.12951741  0.74588680  0.49604794  1
  O  O251  1  0.12815801  0.74776977  0.99572030  1
  O  O252  1  0.63035931  0.24550941  0.49457618  1
  O  O253  1  0.62663168  0.24077836  0.99276478  1
  O  O254  1  0.62990403  0.74441296  0.49586991  1
  O  O255  1  0.62682513  0.73910315  0.99645278  1
  O  O256  1  0.49457587  0.24325174  0.12992917  1
  O  O257  1  0.50190490  0.24506536  0.63328170  1
  O  O258  1  0.49723427  0.73884206  0.12765558  1
  O  O259  1  0.49398363  0.74859857  0.63536431  1
  O  O260  1  0.99541906  0.24633619  0.13026619  1
  O  O261  1  0.99397448  0.24454307  0.63101274  1
  O  O262  1  0.99153408  0.75077308  0.13318031  1
  O  O263  1  0.99529534  0.74388507  0.63094002  1
  O  O264  1  0.00627185  0.25598581  0.36979520  1
  O  O265  1  0.00126747  0.25638929  0.86791649  1
  O  O266  1  0.00499249  0.75568225  0.36991038  1
  O  O267  1  -0.00067599  0.75715717  0.86863349  1
  O  O268  1  0.50712664  0.25159812  0.36712915  1
  O  O269  1  0.50495498  0.25464879  0.86698961  1
  O  O270  1  0.50675965  0.75712299  0.37623992  1
  O  O271  1  0.50056393  0.75272074  0.86171513  1
  O  O272  1  0.24547336  0.13124085  0.49379704  1
  O  O273  1  0.24403714  0.12946046  0.99642609  1
  O  O274  1  0.24311273  0.63219254  0.49909460  1
  O  O275  1  0.25143711  0.62355701  0.98937052  1
  O  O276  1  0.74349712  0.13200408  0.49797040  1
  O  O277  1  0.74329028  0.12478189  0.99276224  1
  O  O278  1  0.74478190  0.62930874  0.49398212  1
  O  O279  1  0.74184465  0.62454601  0.99128192  1
  O  O280  1  0.25532221  0.36920006  0.00454049  1
  O  O281  1  0.25484790  0.37074951  0.50524713  1
  O  O282  1  0.25816890  0.87845781  0.00706523  1
  O  O283  1  0.25630195  0.86913663  0.50141074  1
  O  O284  1  0.75624254  0.37469209  0.00504511  1
  O  O285  1  0.75766234  0.36855021  0.50160475  1
  O  O286  1  0.75552235  0.87467353  0.00592535  1
  O  O287  1  0.75636414  0.86653133  0.50185490  1
  O  O288  1  0.13594620  0.49403120  0.25220745  1
  O  O289  1  0.13155308  0.49354130  0.74351662  1
  O  O290  1  0.12897772  0.99557479  0.24629854  1
  O  O291  1  0.13039313  0.99068385  0.75038133  1
  O  O292  1  0.63265042  0.49228924  0.24817851  1
  O  O293  1  0.63272140  0.49974999  0.74068080  1
  O  O294  1  0.62938054  0.99429498  0.24470085  1
  O  O295  1  0.62888850  0.99278312  0.74493033  1
  O  O296  1  0.36901722  0.00629089  0.25592911  1
  O  O297  1  0.36760738  -0.00053596  0.75723283  1
  O  O298  1  0.36709717  0.49853481  0.25842451  1
  O  O299  1  0.36935496  0.50651576  0.75065889  1
  O  O300  1  0.86937187  -0.00115521  0.25994469  1
  O  O301  1  0.86990564  0.00477464  0.75546637  1
  O  O302  1  0.86833419  0.50660500  0.25180833  1
  O  O303  1  0.86324062  0.50278461  0.74997860  1
  O  O304  1  0.12053934  0.36950772  0.37007492  1
  O  O305  1  0.11877187  0.37272172  0.86724354  1
  O  O306  1  0.11918894  0.87037761  0.36992037  1
  O  O307  1  0.11773694  0.87601728  0.86560434  1
  O  O308  1  0.62432946  0.36778388  0.36705332  1
  O  O309  1  0.61541378  0.36760730  0.87446090  1
  O  O310  1  0.61953928  0.87039029  0.37086449  1
  O  O311  1  0.62223504  0.87390750  0.86326053  1
  O  O312  1  0.37979655  0.12944372  0.13071566  1
  O  O313  1  0.38429077  0.12816640  0.62694194  1
  O  O314  1  0.38602156  0.62599284  0.12434993  1
  O  O315  1  0.37664228  0.63265712  0.63224027  1
  O  O316  1  0.88180956  0.13138517  0.12591479  1
  O  O317  1  0.88021969  0.13032659  0.63072799  1
  O  O318  1  0.87579992  0.63272665  0.13184743  1
  O  O319  1  0.88308084  0.63139707  0.62611044  1
  O  O320  1  0.25613521  0.25469639  0.12026540  1
  O  O321  1  0.25165660  0.25668076  0.61800696  1
  O  O322  1  0.25200870  0.76004107  0.12417963  1
  O  O323  1  0.25620382  0.75316689  0.61940366  1
  O  O324  1  0.75709529  0.25667343  0.12288948  1
  O  O325  1  0.75643407  0.25099045  0.61869777  1
  O  O326  1  0.75583907  0.75742836  0.12405161  1
  O  O327  1  0.75680016  0.74932709  0.61849382  1
  O  O328  1  0.24502475  0.24585544  0.37937949  1
  O  O329  1  0.24924294  0.24330287  0.88204353  1
  O  O330  1  0.24255655  0.74956037  0.38247765  1
  O  O331  1  0.24920171  0.73768103  0.87675602  1
  O  O332  1  0.74454773  0.24835256  0.38107372  1
  O  O333  1  0.74384789  0.24237395  0.87480304  1
  O  O334  1  0.74348661  0.74448672  0.38102347  1
  O  O335  1  0.74694887  0.73858635  0.87465587  1
  O  O336  1  0.00453785  0.11954862  0.00567758  1
  O  O337  1  0.00683475  0.12519438  0.50616450  1
  O  O338  1  -0.00109539  0.61316928  -0.00112151  1
  O  O339  1  0.00668093  0.62003921  0.50626620  1
  O  O340  1  0.50488459  0.11916021  0.00600227  1
  O  O341  1  0.50641057  0.11956239  0.50411802  1
  O  O342  1  0.50715832  0.62533922  0.00533552  1
  O  O343  1  0.50763444  0.61778812  0.50245561  1
  O  O344  1  0.49371512  0.38213130  0.49724507  1
  O  O345  1  0.49543361  0.37142100  0.98939828  1
  O  O346  1  0.49483584  0.88125550  0.49492876  1
  O  O347  1  0.49014178  0.88087569  1.00057178  1
  O  O348  1  0.99640381  0.37998321  0.49535397  1
  O  O349  1  0.99526948  0.38206735  0.99466031  1
  O  O350  1  0.99331350  0.87542246  0.49296303  1
  O  O351  1  0.99346423  0.88195504  0.99555890  1
  O  O352  1  0.49156935  0.49842122  0.37980989  1
  O  O353  1  0.50028977  0.48585163  0.87310633  1
  O  O354  1  0.49450143  0.99556247  0.38077080  1
  O  O355  1  0.49281272  0.99882664  0.88247502  1
  O  O356  1  1.00017155  0.49351724  0.38266598  1
  O  O357  1  0.99835801  0.49353603  0.88236627  1
  O  O358  1  0.98981618  0.99354688  0.37496753  1
  O  O359  1  0.99318147  0.99531706  0.88090680  1
  O  O360  1  0.00414326  0.00530712  0.12071396  1
  O  O361  1  0.00155968  0.00909703  0.62252170  1
  O  O362  1  0.00144331  0.50015117  0.11368468  1
  O  O363  1  0.00691512  0.50496665  0.62042807  1
  O  O364  1  0.50533490  0.00568751  0.12061188  1
  O  O365  1  0.50596274  0.00484117  0.61909998  1
  O  O366  1  0.50328474  0.51060848  0.12117704  1
  O  O367  1  0.50975261  0.50115826  0.62012553  1
  O  O368  1  0.24622995  0.38259018  0.24516986  1
  O  O369  1  0.24615364  0.37892983  0.74491722  1
  O  O370  1  0.24350059  0.88270311  0.24655499  1
  O  O371  1  0.24032628  0.88055226  0.75193661  1
  O  O372  1  0.74566682  0.37991174  0.24361539  1
  O  O373  1  0.74701243  0.38614087  0.74886058  1
  O  O374  1  0.74289625  0.88036765  0.24423642  1
  O  O375  1  0.74087359  0.88028449  0.74883587  1
  O  O376  1  0.25473166  0.12097210  0.25549783  1
  O  O377  1  0.24994263  0.11872072  0.75690078  1
  O  O378  1  0.25164053  0.61246867  0.25173004  1
  O  O379  1  0.25511046  0.61980066  0.75713914  1
  O  O380  1  0.75298918  0.11590100  0.25201616  1
  O  O381  1  0.75560966  0.11882012  0.75508210  1
  O  O382  1  0.75426301  0.62026424  0.25477433  1
  O  O383  1  0.74877767  0.61648931  0.75816564  1
  O  O384  1  0.36979463  0.12027333  0.36965644  1
  O  O385  1  0.36746139  0.11762635  0.87430997  1
  O  O386  1  0.37342048  0.61196431  0.37470032  1
  O  O387  1  0.36690318  0.62332243  0.86875483  1
  O  O388  1  0.87479548  0.11305725  0.37331361  1
  O  O389  1  0.87029765  0.11937213  0.86960428  1
  O  O390  1  0.86772997  0.62439685  0.36823351  1
  O  O391  1  0.86191747  0.62216990  0.87307616  1
  O  O392  1  0.13331890  0.37705042  0.13237936  1
  O  O393  1  0.13100892  0.38073563  0.63013218  1
  O  O394  1  0.12850748  0.88208030  0.13183997  1
  O  O395  1  0.12455375  0.87677320  0.63856565  1
  O  O396  1  0.63188805  0.37482926  0.13001286  1
  O  O397  1  0.62788926  0.38794418  0.62570940  1
  O  O398  1  0.62868106  0.88036979  0.12971384  1
  O  O399  1  0.62594883  0.88097992  0.63442089  1
  O  O400  1  0.12038157  0.25634624  0.25553484  1
  O  O401  1  0.11784680  0.25677076  0.75068724  1
  O  O402  1  0.11931179  0.75648039  0.25649304  1
  O  O403  1  0.11920501  0.76000743  0.75267971  1
  O  O404  1  0.62046088  0.25431069  0.25412682  1
  O  O405  1  0.61500941  0.25011664  0.75515444  1
  O  O406  1  0.62338743  0.75724228  0.25805042  1
  O  O407  1  0.61656424  0.75724394  0.74766594  1
  O  O408  1  0.37987665  0.24507370  0.24490459  1
  O  O409  1  0.38852391  0.24667728  0.74799835  1
  O  O410  1  0.37843157  0.74617174  0.24867199  1
  O  O411  1  0.38255140  0.74709795  0.74556075  1
  O  O412  1  0.88267833  0.25016040  0.24367456  1
  O  O413  1  0.87987362  0.24398531  0.74450782  1
  O  O414  1  0.87918630  0.74563975  0.24554087  1
  O  O415  1  0.88213818  0.74866108  0.74307644  1
  O  O416  1  0.37919165  0.49587307  0.49294523  1
  O  O417  1  0.37971827  0.48816751  0.99507939  1
  O  O418  1  0.38040556  0.99586811  0.49461879  1
  O  O419  1  0.37928589  0.99252378  0.99654625  1
  O  O420  1  0.88293038  0.49384308  0.49962096  1
  O  O421  1  0.88421423  0.49333697  0.99838032  1
  O  O422  1  0.87511872  0.99358379  0.48983091  1
  O  O423  1  0.87981742  0.99491935  0.99481937  1
  O  O424  1  0.11822701  0.00516062  0.00683885  1
  O  O425  1  0.12234416  0.00859353  0.50061701  1
  O  O426  1  0.11322153  0.49983712  0.00113265  1
  O  O427  1  0.12085701  0.50526477  0.50608890  1
  O  O428  1  0.61902837  0.00401469  0.00583616  1
  O  O429  1  0.62000292  0.00425741  0.50419808  1
  O  O430  1  0.62157693  0.51286296  0.00076493  1
  O  O431  1  0.62170489  0.50404562  0.50626378  1
  O  O432  1  0.37058076  0.36798875  0.11942635  1
  O  O433  1  0.36865166  0.37349079  0.61801347  1
  O  O434  1  0.36820775  0.87830860  0.11652194  1
  O  O435  1  0.37394399  0.86906067  0.61768795  1
  O  O436  1  0.86962185  0.36936899  0.11922382  1
  O  O437  1  0.87461173  0.36729558  0.61823126  1
  O  O438  1  0.86852907  0.87081846  0.12011451  1
  O  O439  1  0.87419520  0.86756597  0.61843349  1
  O  O440  1  0.13054686  0.13181313  0.37923299  1
  O  O441  1  0.13075102  0.12586035  0.88324009  1
  O  O442  1  0.12637458  0.63278258  0.38268525  1
  O  O443  1  0.13773488  0.62560324  0.87594283  1
  O  O444  1  0.62661841  0.13129790  0.38140934  1
  O  O445  1  0.63018219  0.12798400  0.87999433  1
  O  O446  1  0.63043809  0.63025703  0.38011353  1
  O  O447  1  0.63219289  0.62639379  0.88202663  1
