# generated using pymatgen
data_V3Zn3O8
_symmetry_space_group_name_H-M   'P 1'
_cell_length_a   17.08861701
_cell_length_b   17.08664315
_cell_length_c   17.08638723
_cell_angle_alpha   89.99686342
_cell_angle_beta   90.00729378
_cell_angle_gamma   89.99449401
_symmetry_Int_Tables_number   1
_chemical_formula_structural   V3Zn3O8
_chemical_formula_sum   'V96 Zn96 O256'
_cell_volume   4989.00459926
_cell_formula_units_Z   32
loop_
 _symmetry_equiv_pos_site_id
 _symmetry_equiv_pos_as_xyz
  1  'x, y, z'
loop_
 _atom_site_type_symbol
 _atom_site_label
 _atom_site_symmetry_multiplicity
 _atom_site_fract_x
 _atom_site_fract_y
 _atom_site_fract_z
 _atom_site_occupancy
  V  V0  1  0.37418457  0.87427703  0.50135477  1
  V  V1  1  0.12481654  0.75145173  0.37484043  1
  V  V2  1  0.25016764  0.74962699  0.50133643  1
  V  V3  1  0.37529949  0.00085927  0.37506664  1
  V  V4  1  0.37544409  0.37570500  0.00019985  1
  V  V5  1  0.75004066  -0.00025775  0.24951189  1
  V  V6  1  0.00073614  0.25003306  0.24910342  1
  V  V7  1  0.12626801  -0.00095225  0.12601051  1
  V  V8  1  0.74945574  0.50049621  0.74960886  1
  V  V9  1  0.37354588  0.62499447  0.25140642  1
  V  V10  1  0.37480673  0.50034795  0.87639806  1
  V  V11  1  0.50192022  0.25080541  0.75102825  1
  V  V12  1  0.49983237  0.62527584  0.12600948  1
  V  V13  1  0.49924393  0.62493215  0.62622335  1
  V  V14  1  0.87541807  0.37468554  -0.00031754  1
  V  V15  1  0.49915586  0.74985834  0.25114355  1
  V  V16  1  -0.00229350  0.87542026  0.87632812  1
  V  V17  1  0.37585628  0.25066936  0.62448486  1
  V  V18  1  0.12521541  0.37535611  0.24879654  1
  V  V19  1  0.62510560  0.37473286  0.24971111  1
  V  V20  1  0.87476873  -0.00079702  0.37525154  1
  V  V21  1  0.75202834  0.12452342  0.87351067  1
  V  V22  1  0.87250817  0.62279356  0.25098766  1
  V  V23  1  0.25028062  0.12558667  0.37477246  1
  V  V24  1  0.62476452  0.12439925  0.50037147  1
  V  V25  1  0.87566174  0.12463876  0.24966469  1
  V  V26  1  -0.00203791  0.49965086  0.49807372  1
  V  V27  1  0.62487454  0.25048215  0.87458895  1
  V  V28  1  0.87510881  0.62465160  0.75003464  1
  V  V29  1  0.00002686  0.00051530  0.49967895  1
  V  V30  1  0.87541405  0.74972311  0.62459544  1
  V  V31  1  0.87523586  0.24931737  0.12439951  1
  V  V32  1  0.62497093  0.62577740  0.00083454  1
  V  V33  1  0.50088158  0.00029883  0.00046762  1
  V  V34  1  -0.00080645  0.62414442  0.62499948  1
  V  V35  1  0.00060106  -0.00021765  -0.00073318  1
  V  V36  1  0.37493311  0.75122149  0.12525444  1
  V  V37  1  0.75048157  0.87426207  0.62491537  1
  V  V38  1  0.12518524  0.12641145  0.49877011  1
  V  V39  1  0.12489650  0.74850017  0.87578979  1
  V  V40  1  0.62532355  0.12455539  -0.00007955  1
  V  V41  1  0.62545150  0.62546856  0.50070941  1
  V  V42  1  0.87457836  0.12435173  0.74944434  1
  V  V43  1  0.49948381  0.37551407  0.37640273  1
  V  V44  1  -0.00019847  0.37373909  0.87383339  1
  V  V45  1  0.62469869  0.24952188  0.37486529  1
  V  V46  1  0.49960589  -0.00018430  0.50047193  1
  V  V47  1  0.37570161  0.12498548  0.25035969  1
  V  V48  1  0.87449343  0.25131781  0.62273645  1
  V  V49  1  0.00052021  0.62453655  0.12277222  1
  V  V50  1  0.87470089  0.75071104  0.12391744  1
  V  V51  1  -0.00041421  0.37615587  0.37396857  1
  V  V52  1  0.12599674  0.87619333  0.74874330  1
  V  V53  1  0.24978841  0.37561413  0.12463862  1
  V  V54  1  0.62478410  0.49927169  0.12644875  1
  V  V55  1  0.37402289  0.00142866  0.87417821  1
  V  V56  1  0.25045643  0.24878642  -0.00138812  1
  V  V57  1  0.62630305  0.74833663  0.37615488  1
  V  V58  1  0.74967449  0.12427771  0.37501136  1
  V  V59  1  0.74959611  0.37549145  0.62507905  1
  V  V60  1  0.00093043  0.12463964  0.12407501  1
  V  V61  1  0.37598679  0.87560823  0.00022038  1
  V  V62  1  0.12672469  0.12579303  -0.00138758  1
  V  V63  1  0.12583529  0.24982628  0.37431057  1
  V  V64  1  0.12441755  0.50116664  0.12347530  1
  V  V65  1  0.25052692  0.37461400  0.62387877  1
  V  V66  1  0.37462537  0.12411251  0.75022933  1
  V  V67  1  0.50047852  0.87450707  0.87448490  1
  V  V68  1  0.75019051  0.25048964  0.50005895  1
  V  V69  1  0.62485540  0.87339857  0.75098207  1
  V  V70  1  0.00062501  0.25098464  0.74834747  1
  V  V71  1  0.62559465  -0.00103851  0.62529940  1
  V  V72  1  0.74919575  0.37465578  0.12563763  1
  V  V73  1  0.49830237  0.50051971  0.00073241  1
  V  V74  1  0.62564196  -0.00001408  0.12455236  1
  V  V75  1  0.50006342  0.12532339  0.62506900  1
  V  V76  1  0.12423674  0.62505213  0.50054662  1
  V  V77  1  0.37449110  0.62529259  0.75055922  1
  V  V78  1  0.49962135  0.24948429  0.24979456  1
  V  V79  1  0.62527307  0.50069228  0.62624462  1
  V  V80  1  0.12552341  0.87622748  0.25048200  1
  V  V81  1  0.24968472  0.50113285  0.25044194  1
  V  V82  1  0.49997066  0.87444275  0.37552999  1
  V  V83  1  0.00053043  0.87490302  0.37485556  1
  V  V84  1  0.74981161  0.24948982  -0.00040190  1
  V  V85  1  -0.00022220  0.12645823  0.62410166  1
  V  V86  1  0.12516012  0.00021972  0.62516803  1
  V  V87  1  0.74930122  0.62556131  0.87696960  1
  V  V88  1  0.87465019  0.87439052  0.50081674  1
  V  V89  1  0.24909385  0.49894310  0.75021844  1
  V  V90  1  0.37405905  0.74955624  0.62577596  1
  V  V91  1  0.49944672  0.49861067  0.50042527  1
  V  V92  1  0.37579918  0.24947223  0.12527434  1
  V  V93  1  0.75043899  0.87499791  0.12394993  1
  V  V94  1  0.24950622  0.75044005  0.00058591  1
  V  V95  1  0.24954225  0.62458267  0.37499675  1
  Zn  Zn96  1  0.75336024  -0.00120480  0.75127860  1
  Zn  Zn97  1  0.74931726  0.49896717  0.25266235  1
  Zn  Zn98  1  0.87428102  0.87687693  -0.00103972  1
  Zn  Zn99  1  0.12445973  0.62344079  -0.00097310  1
  Zn  Zn100  1  0.12807970  0.24850263  0.87172601  1
  Zn  Zn101  1  0.37424058  0.49886472  0.37668923  1
  Zn  Zn102  1  0.24881468  0.12541460  0.87265533  1
  Zn  Zn103  1  0.12427595  0.37345280  0.74958934  1
  Zn  Zn104  1  0.00074997  0.74671736  0.75037786  1
  Zn  Zn105  1  0.87595908  0.50069526  0.87695843  1
  Zn  Zn106  1  0.75091507  0.74849606  0.49886836  1
  Zn  Zn107  1  0.50200553  0.37562775  0.87506099  1
  Zn  Zn108  1  0.87350698  0.37606364  0.49653229  1
  Zn  Zn109  1  0.62462232  0.87454737  0.25064476  1
  Zn  Zn110  1  0.50031721  0.12414928  0.12504013  1
  Zn  Zn111  1  0.25006671  0.00244819  0.74968970  1
  Zn  Zn112  1  0.25137469  0.25166253  0.49925011  1
  Zn  Zn113  1  0.37438552  0.37519252  0.49788825  1
  Zn  Zn114  1  0.25175345  -0.00064188  0.24896468  1
  Zn  Zn115  1  0.62293779  0.75053073  0.87760582  1
  Zn  Zn116  1  0.00106963  0.49838142  -0.00205689  1
  Zn  Zn117  1  0.24826870  0.62327452  0.87544338  1
  Zn  Zn118  1  0.62447937  0.37619086  0.75264277  1
  Zn  Zn119  1  0.87480214  0.00022597  0.87460589  1
  Zn  Zn120  1  0.49795710  0.74954606  0.75181011  1
  Zn  Zn121  1  0.75117350  0.62240293  0.37617344  1
  Zn  Zn122  1  0.12316370  0.49838391  0.62614283  1
  Zn  Zn123  1  0.25087325  0.87687352  0.12775996  1
  Zn  Zn124  1  0.87178138  0.49829030  0.37265683  1
  Zn  Zn125  1  0.74827552  0.75104005  -0.00056198  1
  Zn  Zn126  1  0.25028365  0.87644714  0.62543986  1
  Zn  Zn127  1  0.00070492  0.75080709  0.24997963  1
  Zn  Zn128  1  0.18932722  0.18642559  0.18679350  1
  Zn  Zn129  1  0.18790308  0.18852768  0.68772708  1
  Zn  Zn130  1  0.18655520  0.68947551  0.18804518  1
  Zn  Zn131  1  0.18739762  0.68600364  0.68674532  1
  Zn  Zn132  1  0.68713905  0.18709301  0.18696254  1
  Zn  Zn133  1  0.68809127  0.18807495  0.68846449  1
  Zn  Zn134  1  0.68758028  0.68728646  0.18886647  1
  Zn  Zn135  1  0.68824048  0.68904920  0.68766737  1
  Zn  Zn136  1  0.31319671  0.31308918  0.31247598  1
  Zn  Zn137  1  0.31525304  0.31219109  0.81339551  1
  Zn  Zn138  1  0.31105369  0.81325724  0.31368305  1
  Zn  Zn139  1  0.31180549  0.81383790  0.81314873  1
  Zn  Zn140  1  0.81284039  0.31247789  0.31234512  1
  Zn  Zn141  1  0.81296055  0.31216058  0.81104558  1
  Zn  Zn142  1  0.81261134  0.81133439  0.31075190  1
  Zn  Zn143  1  0.81176924  0.80903008  0.80988073  1
  Zn  Zn144  1  0.18555717  0.43847808  0.43771885  1
  Zn  Zn145  1  0.18535053  0.43535678  0.93727795  1
  Zn  Zn146  1  0.18917652  0.93850732  0.43759732  1
  Zn  Zn147  1  0.18876881  0.93884700  0.93749355  1
  Zn  Zn148  1  0.68783607  0.43930645  0.43704072  1
  Zn  Zn149  1  0.68663743  0.43836556  0.93836638  1
  Zn  Zn150  1  0.68757978  0.93569674  0.43855943  1
  Zn  Zn151  1  0.68862236  0.93951144  0.93651572  1
  Zn  Zn152  1  0.31200696  0.06283913  0.06296527  1
  Zn  Zn153  1  0.31012502  0.06305763  0.56300218  1
  Zn  Zn154  1  0.31146785  0.56471947  0.06324763  1
  Zn  Zn155  1  0.31402048  0.56126279  0.56250701  1
  Zn  Zn156  1  0.81429647  0.06133382  0.05980449  1
  Zn  Zn157  1  0.81154453  0.06153962  0.56381850  1
  Zn  Zn158  1  0.81220144  0.55923901  0.06206953  1
  Zn  Zn159  1  0.81146278  0.56391597  0.56155219  1
  Zn  Zn160  1  0.43690383  0.43744686  0.18903161  1
  Zn  Zn161  1  0.43748841  0.43619664  0.68886237  1
  Zn  Zn162  1  0.43870552  0.93697297  0.18802907  1
  Zn  Zn163  1  0.43773701  0.93724809  0.68817461  1
  Zn  Zn164  1  0.93738194  0.43844911  0.18610725  1
  Zn  Zn165  1  0.93415679  0.43837029  0.68689393  1
  Zn  Zn166  1  0.93932031  0.93773193  0.18797598  1
  Zn  Zn167  1  0.93867435  0.93797993  0.68852999  1
  Zn  Zn168  1  0.06345500  0.06186754  0.31187421  1
  Zn  Zn169  1  0.06215734  0.06312683  0.81272106  1
  Zn  Zn170  1  0.06138735  0.56376363  0.31096133  1
  Zn  Zn171  1  0.06198302  0.55987828  0.81201937  1
  Zn  Zn172  1  0.56222398  0.06185820  0.31112315  1
  Zn  Zn173  1  0.56281462  0.06193628  0.81267935  1
  Zn  Zn174  1  0.56165719  0.56153599  0.31339245  1
  Zn  Zn175  1  0.56210526  0.56289803  0.81326095  1
  Zn  Zn176  1  0.43623080  0.18930171  0.43860777  1
  Zn  Zn177  1  0.43825220  0.18686966  0.93673756  1
  Zn  Zn178  1  0.43757387  0.68568558  0.43884126  1
  Zn  Zn179  1  0.43724095  0.68763958  0.93599397  1
  Zn  Zn180  1  0.93762447  0.18838651  0.43679640  1
  Zn  Zn181  1  0.93845730  0.18790004  0.93595034  1
  Zn  Zn182  1  0.93828881  0.68836349  0.43711589  1
  Zn  Zn183  1  0.93538360  0.68868813  0.93885412  1
  Zn  Zn184  1  0.06390581  0.31136222  0.06014563  1
  Zn  Zn185  1  0.06429827  0.31421441  0.56137682  1
  Zn  Zn186  1  0.06236373  0.81335170  0.06342260  1
  Zn  Zn187  1  0.06110650  0.81133000  0.56256180  1
  Zn  Zn188  1  0.56150549  0.31249509  0.06213767  1
  Zn  Zn189  1  0.56381625  0.31413419  0.56371934  1
  Zn  Zn190  1  0.56340119  0.81221921  0.06221825  1
  Zn  Zn191  1  0.56065565  0.81112101  0.56365513  1
  O  O192  1  0.11921866  0.11973268  0.11997763  1
  O  O193  1  0.11850173  0.12076484  0.61865800  1
  O  O194  1  0.11480977  0.62164582  0.12542356  1
  O  O195  1  0.11808480  0.62284357  0.61786155  1
  O  O196  1  0.62528043  0.11801438  0.11784667  1
  O  O197  1  0.62005717  0.11929488  0.61954130  1
  O  O198  1  0.61890436  0.61984419  0.12166433  1
  O  O199  1  0.61949261  0.62101438  0.62071421  1
  O  O200  1  0.38342444  0.37753629  0.37631105  1
  O  O201  1  0.37762660  0.38262744  0.88326603  1
  O  O202  1  0.38089917  0.87968335  0.38153948  1
  O  O203  1  0.38067422  0.88083601  0.88032091  1
  O  O204  1  0.88421919  0.37632923  0.37574016  1
  O  O205  1  0.88349430  0.37441919  0.88074422  1
  O  O206  1  0.87980000  0.88003746  0.37974347  1
  O  O207  1  0.88753796  0.87245726  0.87461350  1
  O  O208  1  0.25816379  0.00743269  0.37447795  1
  O  O209  1  0.25910569  0.00203667  0.87257887  1
  O  O210  1  0.24914104  0.50693851  0.36795008  1
  O  O211  1  0.25474955  0.49957923  0.86601104  1
  O  O212  1  0.75519757  0.00466272  0.37022909  1
  O  O213  1  0.75401755  0.00853130  0.87254300  1
  O  O214  1  0.75370618  0.50402836  0.37067057  1
  O  O215  1  0.75026423  0.51104087  0.87007737  1
  O  O216  1  0.24432097  0.49571009  0.13059304  1
  O  O217  1  0.25120506  0.49194200  0.63428200  1
  O  O218  1  0.24198156  0.99702256  0.12715750  1
  O  O219  1  0.24050096  0.99667811  0.62720814  1
  O  O220  1  0.74207825  0.49176026  0.12677408  1
  O  O221  1  0.74475134  0.49594908  0.62975227  1
  O  O222  1  0.74727133  0.99275576  0.12946368  1
  O  O223  1  0.74277896  0.99272050  0.62634602  1
  O  O224  1  0.00591674  0.36938130  0.25301416  1
  O  O225  1  -0.00156023  0.37008613  0.75727669  1
  O  O226  1  0.00676461  0.87420780  0.25776441  1
  O  O227  1  0.00997683  0.87243885  0.75903524  1
  O  O228  1  0.50578425  0.36888726  0.25532240  1
  O  O229  1  0.50285043  0.36672463  0.75308100  1
  O  O230  1  0.50132693  0.86755358  0.25764502  1
  O  O231  1  0.50908776  0.87452714  0.75545338  1
  O  O232  1  0.49404506  0.13205533  0.24917203  1
  O  O233  1  0.49553106  0.12982177  0.74328172  1
  O  O234  1  0.49352917  0.63006323  0.24506611  1
  O  O235  1  0.49244985  0.62599249  0.74392494  1
  O  O236  1  0.99500325  0.13016892  0.24432472  1
  O  O237  1  0.99486582  0.13074019  0.74276759  1
  O  O238  1  0.99173378  0.62710587  0.23873154  1
  O  O239  1  0.99352994  0.62409085  0.74357615  1
  O  O240  1  0.37094306  0.25533950  0.00595190  1
  O  O241  1  0.37247764  0.25309526  0.50910252  1
  O  O242  1  0.36795204  0.75514502  0.00474702  1
  O  O243  1  0.36970739  0.75427995  0.50530616  1
  O  O244  1  0.86919565  0.25388868  0.00621223  1
  O  O245  1  0.86790267  0.25033187  0.50492108  1
  O  O246  1  0.87150371  0.75243957  0.01364288  1
  O  O247  1  0.87452340  0.75730842  0.50584684  1
  O  O248  1  0.12541631  0.24365504  0.49182476  1
  O  O249  1  0.13298460  0.24290295  0.99970752  1
  O  O250  1  0.13009608  0.74487785  0.49465046  1
  O  O251  1  0.13289858  0.75146362  0.99198493  1
  O  O252  1  0.63021618  0.24317479  0.49456759  1
  O  O253  1  0.63071042  0.24430000  0.99575451  1
  O  O254  1  0.62335269  0.74482089  0.49076331  1
  O  O255  1  0.62817423  0.74114000  0.99931341  1
  O  O256  1  0.49357624  0.24882945  0.13187063  1
  O  O257  1  0.49663761  0.24408997  0.63020800  1
  O  O258  1  0.49468062  0.74485674  0.13105670  1
  O  O259  1  0.49180668  0.74229352  0.62658024  1
  O  O260  1  0.99505838  0.24430758  0.12996884  1
  O  O261  1  0.99458010  0.24568725  0.62779599  1
  O  O262  1  0.99160833  0.74272794  0.12600076  1
  O  O263  1  0.99348144  0.74214254  0.62612057  1
  O  O264  1  0.00569485  0.25478973  0.36787279  1
  O  O265  1  -0.00040392  0.25906051  0.86709755  1
  O  O266  1  0.00740877  0.75761732  0.37389894  1
  O  O267  1  0.00898266  0.75803544  0.87647484  1
  O  O268  1  0.50625101  0.25462474  0.36994209  1
  O  O269  1  0.50743724  0.25040707  0.86899834  1
  O  O270  1  0.50687743  0.75428206  0.37130639  1
  O  O271  1  0.50186741  0.75859271  0.87270983  1
  O  O272  1  0.24238765  0.12762659  0.49306599  1
  O  O273  1  0.24418731  0.13192463  0.99936953  1
  O  O274  1  0.24427579  0.62918755  0.49524690  1
  O  O275  1  0.24818842  0.63859554  0.99822178  1
  O  O276  1  0.74413558  0.12924649  0.49425504  1
  O  O277  1  0.74567841  0.13078226  0.99468615  1
  O  O278  1  0.74113077  0.62862823  0.49747116  1
  O  O279  1  0.74439791  0.62405991  0.99222111  1
  O  O280  1  0.25554782  0.36980508  0.00644759  1
  O  O281  1  0.25084317  0.37574140  0.51109796  1
  O  O282  1  0.25599558  0.86454134  0.00082140  1
  O  O283  1  0.25656798  0.86759660  0.50074499  1
  O  O284  1  0.75494200  0.36842937  0.00590588  1
  O  O285  1  0.75047455  0.36795844  0.50590918  1
  O  O286  1  0.75258228  0.87440886  0.01199411  1
  O  O287  1  0.75731188  0.87342610  0.50662402  1
  O  O288  1  0.12996608  0.49491251  0.24368511  1
  O  O289  1  0.13768523  0.49768264  0.74849046  1
  O  O290  1  0.12624513  0.99382240  0.24397259  1
  O  O291  1  0.12368012  0.99116043  0.74402937  1
  O  O292  1  0.62411929  0.49261057  0.24301844  1
  O  O293  1  0.63173172  0.50047366  0.74340347  1
  O  O294  1  0.63255848  0.99827044  0.24410403  1
  O  O295  1  0.62574069  0.98882113  0.74394669  1
  O  O296  1  0.37606319  0.00626482  0.25753479  1
  O  O297  1  0.37503422  0.00602562  0.75597373  1
  O  O298  1  0.36744646  0.50752519  0.25065838  1
  O  O299  1  0.36702124  0.50476383  0.75573685  1
  O  O300  1  0.87023036  0.00584498  0.25547010  1
  O  O301  1  0.87442363  0.00874224  0.75176916  1
  O  O302  1  0.87379984  0.51097389  0.24894394  1
  O  O303  1  0.86643350  0.50787956  0.75162524  1
  O  O304  1  0.11971410  0.36974857  0.36764066  1
  O  O305  1  0.11236704  0.37133729  0.87293051  1
  O  O306  1  0.11966358  0.87143936  0.37109761  1
  O  O307  1  0.11750039  0.86814184  0.86869965  1
  O  O308  1  0.61993132  0.36794140  0.36947820  1
  O  O309  1  0.62360925  0.36656244  0.87439118  1
  O  O310  1  0.61863473  0.86544249  0.37507427  1
  O  O311  1  0.62080924  0.87503427  0.86656288  1
  O  O312  1  0.37700780  0.13173638  0.13186544  1
  O  O313  1  0.38135518  0.13006556  0.62938092  1
  O  O314  1  0.38031834  0.63185021  0.13131072  1
  O  O315  1  0.37977820  0.62989295  0.63071728  1
  O  O316  1  0.88079662  0.12985841  0.13011890  1
  O  O317  1  0.88059827  0.13085510  0.62834394  1
  O  O318  1  0.88034053  0.63140424  0.13060258  1
  O  O319  1  0.87951395  0.63034875  0.62974615  1
  O  O320  1  0.25608301  0.25657524  0.12006476  1
  O  O321  1  0.25616776  0.25996281  0.62490746  1
  O  O322  1  0.25541153  0.75177170  0.11611479  1
  O  O323  1  0.25568495  0.75122283  0.61813234  1
  O  O324  1  0.75564344  0.25423199  0.11937280  1
  O  O325  1  0.75443429  0.25464591  0.61884476  1
  O  O326  1  0.75743340  0.75874317  0.12638264  1
  O  O327  1  0.75719211  0.75692132  0.62282141  1
  O  O328  1  0.24297352  0.24465622  0.37544980  1
  O  O329  1  0.24940372  0.24874981  0.88364688  1
  O  O330  1  0.24439086  0.74403525  0.38173528  1
  O  O331  1  0.24070618  0.75035737  0.88339454  1
  O  O332  1  0.74442313  0.24334152  0.37934009  1
  O  O333  1  0.74535906  0.24450117  0.88078605  1
  O  O334  1  0.73736527  0.74905729  0.37529673  1
  O  O335  1  0.74825279  0.73727287  0.87706174  1
  O  O336  1  0.00572781  0.12074238  0.00550604  1
  O  O337  1  0.00502864  0.11990567  0.50408985  1
  O  O338  1  -0.00055971  0.62377439  0.01251573  1
  O  O339  1  0.00455514  0.61779802  0.50385854  1
  O  O340  1  0.50756826  0.11801212  0.00155372  1
  O  O341  1  0.50584664  0.11959459  0.50512922  1
  O  O342  1  0.50382694  0.62039533  0.00713054  1
  O  O343  1  0.50528167  0.61854653  0.50677505  1
  O  O344  1  0.50069895  0.38117227  0.49405889  1
  O  O345  1  0.49267570  0.38300890  1.00084568  1
  O  O346  1  0.49390919  0.88062853  0.49555583  1
  O  O347  1  0.49548044  0.88028595  0.99466933  1
  O  O348  1  1.00040118  0.38460424  0.49335811  1
  O  O349  1  0.99362810  0.37217074  0.99074950  1
  O  O350  1  0.99452825  0.88161276  0.49480377  1
  O  O351  1  1.00049559  0.87996770  0.99038230  1
  O  O352  1  0.50021076  0.49287035  0.38227814  1
  O  O353  1  0.49315765  0.50030478  0.88348882  1
  O  O354  1  0.49567080  0.99469723  0.38130133  1
  O  O355  1  0.49467032  0.99418170  0.88137304  1
  O  O356  1  0.99988673  0.49512467  0.38235911  1
  O  O357  1  0.99757283  0.48807000  0.87630598  1
  O  O358  1  0.99396107  0.99560548  0.38047474  1
  O  O359  1  1.00080083  0.98924344  0.88038877  1
  O  O360  1  0.00591562  0.00579727  0.11975929  1
  O  O361  1  0.00509460  0.00640685  0.61838628  1
  O  O362  1  0.00611434  0.50874023  0.12378299  1
  O  O363  1  0.00044709  0.50479644  0.61512920  1
  O  O364  1  0.50786297  0.00005660  0.11837197  1
  O  O365  1  0.50550486  0.00563068  0.61890449  1
  O  O366  1  0.50423608  0.50630744  0.12066763  1
  O  O367  1  0.50542183  0.50543041  0.62107897  1
  O  O368  1  0.24421339  0.38067287  0.24395051  1
  O  O369  1  0.25155912  0.38346007  0.74215640  1
  O  O370  1  0.24144034  0.87782736  0.24911792  1
  O  O371  1  0.23566442  0.87697445  0.74954880  1
  O  O372  1  0.74272035  0.37307347  0.24285221  1
  O  O373  1  0.74905898  0.38227407  0.74347140  1
  O  O374  1  0.74979614  0.88127733  0.23983734  1
  O  O375  1  0.74129078  0.87574294  0.74436969  1
  O  O376  1  0.25755366  0.12376374  0.25709427  1
  O  O377  1  0.25914346  0.12374440  0.75102124  1
  O  O378  1  0.25394606  0.62094585  0.25493240  1
  O  O379  1  0.25527302  0.61404108  0.75036963  1
  O  O380  1  0.75607717  0.11994790  0.25534443  1
  O  O381  1  0.75687792  0.12438849  0.75546827  1
  O  O382  1  0.76128484  0.62328632  0.24986636  1
  O  O383  1  0.75423570  0.62079366  0.75787157  1
  O  O384  1  0.37068633  0.12061116  0.37053824  1
  O  O385  1  0.37571393  0.11816290  0.86765200  1
  O  O386  1  0.36753407  0.62449547  0.36859401  1
  O  O387  1  0.37143387  0.61839412  0.86916232  1
  O  O388  1  0.86970345  0.11927757  0.36950383  1
  O  O389  1  0.86970905  0.12584595  0.86719530  1
  O  O390  1  0.87592517  0.62707606  0.36147691  1
  O  O391  1  0.86649582  0.62442839  0.87063960  1
  O  O392  1  0.13009367  0.38009442  0.12990022  1
  O  O393  1  0.13684896  0.37728174  0.62776675  1
  O  O394  1  0.12451881  0.88116736  0.13255587  1
  O  O395  1  0.12260273  0.87970742  0.63453838  1
  O  O396  1  0.62964634  0.37902490  0.13014494  1
  O  O397  1  0.63232284  0.38277917  0.62746707  1
  O  O398  1  0.63520238  0.88005792  0.12672616  1
  O  O399  1  0.62882093  0.87909169  0.63155116  1
  O  O400  1  0.11957457  0.25537348  0.25362802  1
  O  O401  1  0.11561714  0.25225263  0.75097940  1
  O  O402  1  0.12345826  0.75759881  0.25728131  1
  O  O403  1  0.12436536  0.75734895  0.75939046  1
  O  O404  1  0.61985549  0.25404693  0.25540471  1
  O  O405  1  0.61913839  0.25011551  0.75692433  1
  O  O406  1  0.61762767  0.75009349  0.25971373  1
  O  O407  1  0.62250901  0.76322309  0.75069900  1
  O  O408  1  0.38056795  0.24516604  0.24461731  1
  O  O409  1  0.38243969  0.24411959  0.74419981  1
  O  O410  1  0.37934906  0.74502255  0.24560734  1
  O  O411  1  0.37337572  0.74389717  0.74405032  1
  O  O412  1  0.88076105  0.24353244  0.24419950  1
  O  O413  1  0.88047862  0.24421531  0.74138572  1
  O  O414  1  0.87690128  0.74226983  0.23914580  1
  O  O415  1  0.87838087  0.74224792  0.74256464  1
  O  O416  1  0.38435530  0.49780084  0.49774034  1
  O  O417  1  0.37847416  0.49602730  0.99690678  1
  O  O418  1  0.38103023  0.99508825  0.49532328  1
  O  O419  1  0.38113858  0.99464006  0.99548207  1
  O  O420  1  0.88778364  0.50093805  0.49695183  1
  O  O421  1  0.87826594  0.48950526  0.99867862  1
  O  O422  1  0.88042643  0.99511393  0.49463973  1
  O  O423  1  0.88524604  0.99682203  0.99679387  1
  O  O424  1  0.11968864  0.00491699  0.00578867  1
  O  O425  1  0.11854954  0.00590515  0.50430364  1
  O  O426  1  0.12313481  0.50377556  0.00756342  1
  O  O427  1  0.11372816  0.50676892  0.50068759  1
  O  O428  1  0.62053409  0.00525839  0.00510159  1
  O  O429  1  0.61931151  0.00474661  0.50484002  1
  O  O430  1  0.61822588  0.50577161  0.00725897  1
  O  O431  1  0.61931378  0.50620462  0.50695958  1
  O  O432  1  0.36867294  0.37004125  0.12053981  1
  O  O433  1  0.36594637  0.36954479  0.62457616  1
  O  O434  1  0.37483772  0.86841690  0.11825399  1
  O  O435  1  0.37396757  0.86868523  0.61880159  1
  O  O436  1  0.87016009  0.36763070  0.12071950  1
  O  O437  1  0.86752468  0.36841220  0.62098741  1
  O  O438  1  0.86842950  0.86701761  0.12650412  1
  O  O439  1  0.87151495  0.87038734  0.62054745  1
  O  O440  1  0.12947030  0.13031168  0.37893504  1
  O  O441  1  0.12640989  0.12698750  0.88339795  1
  O  O442  1  0.12957096  0.63171111  0.37971982  1
  O  O443  1  0.12419102  0.63752768  0.87635690  1
  O  O444  1  0.63032804  0.12937968  0.38042320  1
  O  O445  1  0.63156027  0.12999190  0.88058953  1
  O  O446  1  0.62261173  0.63505194  0.38060903  1
  O  O447  1  0.63342787  0.62614796  0.88117963  1
