# generated using pymatgen
data_V3Zn3O8
_symmetry_space_group_name_H-M   'P 1'
_cell_length_a   17.08678255
_cell_length_b   17.08807497
_cell_length_c   17.08798143
_cell_angle_alpha   89.98909084
_cell_angle_beta   89.99358631
_cell_angle_gamma   89.99505173
_symmetry_Int_Tables_number   1
_chemical_formula_structural   V3Zn3O8
_chemical_formula_sum   'V96 Zn96 O256'
_cell_volume   4989.35245631
_cell_formula_units_Z   32
loop_
 _symmetry_equiv_pos_site_id
 _symmetry_equiv_pos_as_xyz
  1  'x, y, z'
loop_
 _atom_site_type_symbol
 _atom_site_label
 _atom_site_symmetry_multiplicity
 _atom_site_fract_x
 _atom_site_fract_y
 _atom_site_fract_z
 _atom_site_occupancy
  V  V0  1  0.37628740  0.24990803  0.12428461  1
  V  V1  1  0.00043420  0.74935166  0.24963612  1
  V  V2  1  0.62464734  0.62605367  0.50111536  1
  V  V3  1  0.62267405  0.37429599  0.74967326  1
  V  V4  1  0.00127526  0.00047804  0.49842696  1
  V  V5  1  0.87410459  0.37429557  0.50029035  1
  V  V6  1  0.24960356  -0.00056915  0.75138406  1
  V  V7  1  -0.00131415  0.49985332  0.50009993  1
  V  V8  1  0.49835443  0.74918331  0.75093072  1
  V  V9  1  0.87388726  0.75206026  0.62407321  1
  V  V10  1  0.37673664  0.12315763  0.24897022  1
  V  V11  1  0.00048827  0.37548138  0.37507832  1
  V  V12  1  0.62441356  0.62443397  0.00089927  1
  V  V13  1  0.62410416  0.75048419  0.87520113  1
  V  V14  1  0.00066692  0.00046080  -0.00065323  1
  V  V15  1  0.87605749  0.00001599  0.37307332  1
  V  V16  1  0.87387012  0.12490771  0.74837848  1
  V  V17  1  0.87471337  0.62433049  0.25063938  1
  V  V18  1  0.62693396  0.37594109  0.25108112  1
  V  V19  1  0.75056721  0.37516743  0.12538753  1
  V  V20  1  0.12668189  0.37547424  0.25059190  1
  V  V21  1  0.74955369  0.37455401  0.62400994  1
  V  V22  1  0.12554854  0.74938475  0.37501610  1
  V  V23  1  0.87537841  0.87488058  -0.00183739  1
  V  V24  1  0.74991861  0.12602085  0.37486287  1
  V  V25  1  -0.00157928  0.24960860  0.74949231  1
  V  V26  1  0.24870378  0.50090735  0.75158474  1
  V  V27  1  0.12630935  0.25007161  0.37481859  1
  V  V28  1  0.49785393  0.12499837  0.62581453  1
  V  V29  1  0.25151757  0.12408414  0.37364832  1
  V  V30  1  0.50106385  0.25002800  0.25027091  1
  V  V31  1  0.87429848  0.24953480  0.62417722  1
  V  V32  1  0.12457372  0.62504287  0.49940414  1
  V  V33  1  0.74916009  0.62535374  0.87455334  1
  V  V34  1  0.12474381  0.24981505  0.87627626  1
  V  V35  1  0.37634392  0.37566054  -0.00048620  1
  V  V36  1  0.50075946  0.00040918  0.00076564  1
  V  V37  1  0.37342319  -0.00052439  0.87569631  1
  V  V38  1  0.24956293  0.37242890  0.62357149  1
  V  V39  1  0.62412258  0.87594861  0.74978028  1
  V  V40  1  0.00022552  0.75080233  0.75027206  1
  V  V41  1  0.75035598  0.62585699  0.37576648  1
  V  V42  1  0.87436015  0.87460511  0.49990757  1
  V  V43  1  0.74820145  0.49999815  0.74976648  1
  V  V44  1  0.00084837  0.62427060  0.12441231  1
  V  V45  1  0.50033886  0.49947414  0.00063654  1
  V  V46  1  0.62504589  -0.00010583  0.62626157  1
  V  V47  1  0.00046643  0.50079217  0.00059608  1
  V  V48  1  0.12477367  0.00037224  0.62406147  1
  V  V49  1  0.87419629  0.62599423  0.74938804  1
  V  V50  1  0.50053238  0.37524707  0.37780816  1
  V  V51  1  0.24988391  0.74788649  0.00086629  1
  V  V52  1  0.87391808  0.37454343  -0.00018547  1
  V  V53  1  0.87589163  0.74934084  0.12407932  1
  V  V54  1  0.87447871  0.00042164  0.87303344  1
  V  V55  1  0.37609455  0.87406259  0.00204836  1
  V  V56  1  0.37740129  0.62587610  0.25142869  1
  V  V57  1  0.75010633  0.25010768  -0.00126854  1
  V  V58  1  0.49950775  0.87464108  0.87574796  1
  V  V59  1  0.87450499  0.50093207  0.37486078  1
  V  V60  1  0.12598347  0.87554671  0.24962024  1
  V  V61  1  0.12431160  0.87424785  0.75006077  1
  V  V62  1  0.12535202  0.12465519  0.49868144  1
  V  V63  1  0.49793991  0.25130477  0.75031786  1
  V  V64  1  0.37742829  0.75026847  0.12703993  1
  V  V65  1  0.12572422  0.50126535  0.12492600  1
  V  V66  1  0.12499117  -0.00033912  0.12396738  1
  V  V67  1  0.49912607  0.62419739  0.62561690  1
  V  V68  1  0.74997842  0.75014139  -0.00075948  1
  V  V69  1  0.37332029  0.74937012  0.62554178  1
  V  V70  1  -0.00139939  0.62528521  0.62520119  1
  V  V71  1  0.24994438  0.62463225  0.37576730  1
  V  V72  1  0.25173570  0.49968060  0.25061198  1
  V  V73  1  0.87396909  0.49987274  0.87460154  1
  V  V74  1  0.75019354  0.12507961  0.87371743  1
  V  V75  1  0.49828792  0.00041602  0.49851287  1
  V  V76  1  0.62342165  0.50121315  0.62524462  1
  V  V77  1  0.62565644  0.75034052  0.37629904  1
  V  V78  1  0.12264295  0.49968885  0.62576770  1
  V  V79  1  0.37300014  0.12470997  0.75110269  1
  V  V80  1  0.62653588  0.87459132  0.25095413  1
  V  V81  1  0.37614636  0.49884534  0.37599987  1
  V  V82  1  0.62477095  0.12480339  0.00023130  1
  V  V83  1  0.50127982  0.75019163  0.25160772  1
  V  V84  1  0.75091154  0.87583877  0.12485452  1
  V  V85  1  0.37472416  0.87483742  0.50037931  1
  V  V86  1  0.75181898  -0.00087254  0.24920001  1
  V  V87  1  0.25151524  0.37521533  0.12552390  1
  V  V88  1  0.37230312  0.62332989  0.75134825  1
  V  V89  1  0.00025683  0.87438332  0.87341292  1
  V  V90  1  -0.00077544  0.24884044  0.24712819  1
  V  V91  1  0.12296102  0.37523411  0.75016729  1
  V  V92  1  0.24941443  0.24992951  -0.00131135  1
  V  V93  1  -0.00171585  0.37514144  0.87498988  1
  V  V94  1  0.00062379  0.87519262  0.37413210  1
  V  V95  1  0.24980587  0.87422269  0.62494755  1
  Zn  Zn96  1  0.49800889  0.49958488  0.50152461  1
  Zn  Zn97  1  0.62676532  0.24956797  0.37817234  1
  Zn  Zn98  1  0.37570567  -0.00261525  0.37223547  1
  Zn  Zn99  1  0.75025322  -0.00049710  0.74850099  1
  Zn  Zn100  1  0.37317586  0.24957386  0.62292837  1
  Zn  Zn101  1  0.25173884  0.24900623  0.50116477  1
  Zn  Zn102  1  0.12608749  0.62531049  -0.00144286  1
  Zn  Zn103  1  0.24726099  0.12407319  0.87644380  1
  Zn  Zn104  1  0.12455575  0.12525016  -0.00069501  1
  Zn  Zn105  1  0.74857689  0.75296907  0.50207143  1
  Zn  Zn106  1  0.24786902  0.62383272  0.87579135  1
  Zn  Zn107  1  0.25177202  0.87498932  0.12746926  1
  Zn  Zn108  1  0.50337015  0.62448265  0.12706640  1
  Zn  Zn109  1  0.74998376  0.87560641  0.62494860  1
  Zn  Zn110  1  0.62598089  0.00035150  0.12615985  1
  Zn  Zn111  1  0.12554285  0.74779669  0.87606602  1
  Zn  Zn112  1  0.37440052  0.37277342  0.50055074  1
  Zn  Zn113  1  0.62390434  0.25131875  0.87440049  1
  Zn  Zn114  1  0.49886652  0.37514031  0.87488312  1
  Zn  Zn115  1  0.87545617  0.12523744  0.24618244  1
  Zn  Zn116  1  0.75051743  0.50082859  0.24945160  1
  Zn  Zn117  1  0.62438848  0.12733537  0.49930266  1
  Zn  Zn118  1  0.50195155  0.12409436  0.12524972  1
  Zn  Zn119  1  0.37255973  0.50011198  0.87609672  1
  Zn  Zn120  1  0.62598675  0.50204455  0.12568883  1
  Zn  Zn121  1  -0.00063401  0.12534980  0.62304663  1
  Zn  Zn122  1  0.74869237  0.24886610  0.49930047  1
  Zn  Zn123  1  0.87761201  0.24784379  0.12341888  1
  Zn  Zn124  1  0.25010275  0.74954254  0.49979060  1
  Zn  Zn125  1  0.25174280  -0.00188813  0.24738255  1
  Zn  Zn126  1  -0.00106217  0.12588202  0.12264569  1
  Zn  Zn127  1  0.49964513  0.87540776  0.37517421  1
  Zn  Zn128  1  0.18752736  0.18595167  0.18558574  1
  Zn  Zn129  1  0.18544149  0.18613092  0.68948555  1
  Zn  Zn130  1  0.18928338  0.68759961  0.18727020  1
  Zn  Zn131  1  0.18691111  0.68745745  0.68708448  1
  Zn  Zn132  1  0.68882424  0.18852363  0.18781972  1
  Zn  Zn133  1  0.68633262  0.18758017  0.68655023  1
  Zn  Zn134  1  0.68797130  0.68801076  0.18773218  1
  Zn  Zn135  1  0.68728606  0.68956790  0.68657470  1
  Zn  Zn136  1  0.31489782  0.31051984  0.31239345  1
  Zn  Zn137  1  0.31248266  0.31441386  0.81380526  1
  Zn  Zn138  1  0.31246633  0.81336048  0.31368963  1
  Zn  Zn139  1  0.31147292  0.81178926  0.81465299  1
  Zn  Zn140  1  0.81427238  0.31167599  0.31314135  1
  Zn  Zn141  1  0.81038726  0.31122980  0.81166915  1
  Zn  Zn142  1  0.81208966  0.81158877  0.31328468  1
  Zn  Zn143  1  0.81089545  0.81429176  0.81024088  1
  Zn  Zn144  1  0.18727035  0.43846373  0.43865763  1
  Zn  Zn145  1  0.18744389  0.43724249  0.93766407  1
  Zn  Zn146  1  0.18930063  0.93833728  0.43676191  1
  Zn  Zn147  1  0.18803732  0.93307488  0.93859605  1
  Zn  Zn148  1  0.68780949  0.44057460  0.43910492  1
  Zn  Zn149  1  0.68428158  0.43648839  0.93609844  1
  Zn  Zn150  1  0.68821860  0.93808447  0.43770975  1
  Zn  Zn151  1  0.68800341  0.93914883  0.93649846  1
  Zn  Zn152  1  0.31027895  0.06345112  0.06177906  1
  Zn  Zn153  1  0.31216192  0.06219182  0.56329939  1
  Zn  Zn154  1  0.31583919  0.56429804  0.06495116  1
  Zn  Zn155  1  0.31206367  0.55955991  0.56213047  1
  Zn  Zn156  1  0.81480349  0.06410309  0.06330561  1
  Zn  Zn157  1  0.81264048  0.06205330  0.56064702  1
  Zn  Zn158  1  0.81249939  0.56155408  0.06245743  1
  Zn  Zn159  1  0.81048431  0.56368176  0.56182138  1
  Zn  Zn160  1  0.43939779  0.43802788  0.18735381  1
  Zn  Zn161  1  0.43454268  0.43801727  0.68727226  1
  Zn  Zn162  1  0.44167938  0.93713292  0.18577773  1
  Zn  Zn163  1  0.43674887  0.93749250  0.68763659  1
  Zn  Zn164  1  0.93758599  0.43726786  0.18761217  1
  Zn  Zn165  1  0.93535428  0.43706575  0.68768619  1
  Zn  Zn166  1  0.93843467  0.93731011  0.18671428  1
  Zn  Zn167  1  0.93833005  0.93864667  0.68573070  1
  Zn  Zn168  1  0.06393341  0.06324322  0.31043724  1
  Zn  Zn169  1  0.06171671  0.06392091  0.81240220  1
  Zn  Zn170  1  0.06259660  0.56209632  0.31195706  1
  Zn  Zn171  1  0.06369639  0.56472719  0.81478290  1
  Zn  Zn172  1  0.56530170  0.06132242  0.31233937  1
  Zn  Zn173  1  0.56060310  0.06359687  0.81342893  1
  Zn  Zn174  1  0.56379228  0.56199182  0.31411603  1
  Zn  Zn175  1  0.56014227  0.56198153  0.81444526  1
  Zn  Zn176  1  0.43611736  0.18990944  0.43893526  1
  Zn  Zn177  1  0.43683373  0.18669298  0.93590268  1
  Zn  Zn178  1  0.43859224  0.68807322  0.43861892  1
  Zn  Zn179  1  0.43558773  0.68457430  0.93780916  1
  Zn  Zn180  1  0.93669319  0.18731303  0.43547880  1
  Zn  Zn181  1  0.93760491  0.18591815  0.93771726  1
  Zn  Zn182  1  0.93713924  0.68861699  0.43811791  1
  Zn  Zn183  1  0.93827629  0.68724351  0.93661985  1
  Zn  Zn184  1  0.06453973  0.31532822  0.06213032  1
  Zn  Zn185  1  0.06227593  0.31043539  0.56152548  1
  Zn  Zn186  1  0.06361564  0.81375188  0.06211833  1
  Zn  Zn187  1  0.06200346  0.81254939  0.56185535  1
  Zn  Zn188  1  0.56318433  0.31183727  0.06401991  1
  Zn  Zn189  1  0.56465548  0.30997626  0.56213248  1
  Zn  Zn190  1  0.56324399  0.81250586  0.06500852  1
  Zn  Zn191  1  0.56070473  0.81271037  0.56317225  1
  O  O192  1  0.12219375  0.11272573  0.12321141  1
  O  O193  1  0.12392891  0.11799692  0.61746945  1
  O  O194  1  0.11825111  0.61828956  0.12524050  1
  O  O195  1  0.11766523  0.61935584  0.61974985  1
  O  O196  1  0.62620618  0.12412675  0.11213262  1
  O  O197  1  0.61691539  0.11431055  0.62510429  1
  O  O198  1  0.62501824  0.62269010  0.11700214  1
  O  O199  1  0.61891194  0.62064745  0.62200668  1
  O  O200  1  0.38553448  0.37998305  0.37276040  1
  O  O201  1  0.37761392  0.37856471  0.88448988  1
  O  O202  1  0.37735180  0.87816188  0.38420268  1
  O  O203  1  0.38142854  0.87984651  0.88126245  1
  O  O204  1  0.88075447  0.38122336  0.38052483  1
  O  O205  1  0.87846747  0.38123426  0.87927899  1
  O  O206  1  0.88190817  0.87950022  0.37925186  1
  O  O207  1  0.87988802  0.88014678  0.87879720  1
  O  O208  1  0.25168666  0.01323178  0.37120036  1
  O  O209  1  0.25599450  -0.00186040  0.86910073  1
  O  O210  1  0.25502542  0.50443390  0.36903643  1
  O  O211  1  0.25047637  0.50125372  0.86642004  1
  O  O212  1  0.75637711  0.00641414  0.36889773  1
  O  O213  1  0.75715313  0.00685606  0.87256454  1
  O  O214  1  0.75759067  0.50741818  0.37345962  1
  O  O215  1  0.75435689  0.50561644  0.86956638  1
  O  O216  1  0.24650611  0.49468711  0.13167342  1
  O  O217  1  0.24143217  0.49185243  0.63059277  1
  O  O218  1  0.23851518  0.99678399  0.12538519  1
  O  O219  1  0.24424030  0.99372454  0.63130310  1
  O  O220  1  0.74896456  0.48690536  0.12604543  1
  O  O221  1  0.74405519  0.49551143  0.63152385  1
  O  O222  1  0.75106257  0.99242395  0.13075068  1
  O  O223  1  0.73621805  0.99961823  0.62546436  1
  O  O224  1  0.00699051  0.36949007  0.25563968  1
  O  O225  1  0.00306534  0.37041844  0.75547407  1
  O  O226  1  0.00528321  0.86801516  0.25545562  1
  O  O227  1  0.00503877  0.87012019  0.75407412  1
  O  O228  1  0.50821745  0.37097102  0.25711188  1
  O  O229  1  0.50357720  0.36642873  0.74858706  1
  O  O230  1  0.50827703  0.86891357  0.25250723  1
  O  O231  1  0.50360426  0.86872465  0.75634437  1
  O  O232  1  0.49228728  0.13052548  0.25050399  1
  O  O233  1  0.49352835  0.13225664  0.74571481  1
  O  O234  1  0.49509061  0.63106182  0.25074851  1
  O  O235  1  0.49366105  0.63019219  0.74520545  1
  O  O236  1  1.00088365  0.13866486  0.24977791  1
  O  O237  1  0.99220273  0.13234309  0.74786013  1
  O  O238  1  0.99464546  0.63010710  0.24462501  1
  O  O239  1  0.99316217  0.62981256  0.74438061  1
  O  O240  1  0.37091013  0.25545283  0.00518160  1
  O  O241  1  0.36952902  0.25481365  0.50507368  1
  O  O242  1  0.37025235  0.75441496  0.00651999  1
  O  O243  1  0.37389542  0.75671298  0.50786194  1
  O  O244  1  0.86882702  0.25797334  -0.00029791  1
  O  O245  1  0.87493218  0.25751876  0.50586637  1
  O  O246  1  0.86961752  0.75489569  0.00422656  1
  O  O247  1  0.87571702  0.75700817  0.50652115  1
  O  O248  1  0.12639669  0.24297407  0.49184606  1
  O  O249  1  0.13125875  0.25174417  0.99393661  1
  O  O250  1  0.12501082  0.74259595  0.49313225  1
  O  O251  1  0.13716270  0.74951623  1.00157853  1
  O  O252  1  0.63029375  0.24492094  0.49628935  1
  O  O253  1  0.63021678  0.24078516  0.99817854  1
  O  O254  1  0.62504797  0.74417340  0.49514613  1
  O  O255  1  0.63053278  0.74544616  0.99388267  1
  O  O256  1  0.49389006  0.24800510  0.13239074  1
  O  O257  1  0.49834895  0.24437075  0.63543576  1
  O  O258  1  0.49496605  0.74828671  0.13348236  1
  O  O259  1  0.49349064  0.74428541  0.63238047  1
  O  O260  1  1.00202526  0.25249393  0.13602525  1
  O  O261  1  0.99281031  0.24933334  0.63168350  1
  O  O262  1  0.99466982  0.74489276  0.12979032  1
  O  O263  1  0.99423542  0.74431009  0.63046144  1
  O  O264  1  0.00626407  0.25665090  0.36709171  1
  O  O265  1  0.00343283  0.25714124  0.86953010  1
  O  O266  1  0.00568102  0.75487166  0.36886059  1
  O  O267  1  -0.00079158  0.75701273  0.86770792  1
  O  O268  1  0.50142917  0.26014700  0.36825228  1
  O  O269  1  0.50093036  0.25077026  0.86138111  1
  O  O270  1  0.50777474  0.75137225  0.36924494  1
  O  O271  1  0.50469333  0.75479241  0.87043854  1
  O  O272  1  0.24491892  0.12477639  0.48979540  1
  O  O273  1  0.24710977  0.13472539  0.99721429  1
  O  O274  1  0.24212581  0.62441686  0.49379148  1
  O  O275  1  0.25103649  0.63617416  1.00126195  1
  O  O276  1  0.74913947  0.12383497  0.48667816  1
  O  O277  1  0.74342700  0.12968135  0.99421325  1
  O  O278  1  0.74289858  0.62800143  0.49388895  1
  O  O279  1  0.74588985  0.63034324  0.99359665  1
  O  O280  1  0.25602131  0.37061470  0.00724771  1
  O  O281  1  0.24717641  0.37367938  0.51209563  1
  O  O282  1  0.25844564  0.86453318  0.00291138  1
  O  O283  1  0.25693625  0.87457586  0.50690533  1
  O  O284  1  0.75315702  0.37074733  0.00657613  1
  O  O285  1  0.75704568  0.37549660  0.50657925  1
  O  O286  1  0.75575304  0.86911130  0.00348568  1
  O  O287  1  0.75907167  0.87404617  0.50237701  1
  O  O288  1  0.13163477  0.49471020  0.24558974  1
  O  O289  1  0.12713280  0.49434015  0.74407591  1
  O  O290  1  0.12431886  0.99370502  0.24016431  1
  O  O291  1  0.12920686  0.99392953  0.74438737  1
  O  O292  1  0.62706978  0.48726188  0.24826437  1
  O  O293  1  0.62927978  0.49569843  0.74525864  1
  O  O294  1  0.63344750  0.99243075  0.24824782  1
  O  O295  1  0.62165991  0.99494684  0.74069619  1
  O  O296  1  0.37574688  0.01147299  0.24989447  1
  O  O297  1  0.36953117  0.00371682  0.75600074  1
  O  O298  1  0.37061750  0.50513625  0.25576656  1
  O  O299  1  0.36665507  0.50644865  0.75032561  1
  O  O300  1  0.87015903  -0.00075595  0.25654459  1
  O  O301  1  0.87429496  0.00653405  0.75497401  1
  O  O302  1  0.87550213  0.50652658  0.25735328  1
  O  O303  1  0.86819335  0.50587640  0.75484115  1
  O  O304  1  0.12034921  0.37084853  0.36964140  1
  O  O305  1  0.11722507  0.37054249  0.86935060  1
  O  O306  1  0.11972170  0.86989335  0.37012061  1
  O  O307  1  0.11767360  0.87223237  0.86744715  1
  O  O308  1  0.61832499  0.37595780  0.36680774  1
  O  O309  1  0.62119193  0.37156625  0.86517728  1
  O  O310  1  0.62488277  0.86843890  0.36882704  1
  O  O311  1  0.61885020  0.86967402  0.87069756  1
  O  O312  1  0.37536112  0.13092054  0.13452356  1
  O  O313  1  0.38017775  0.12507707  0.63360147  1
  O  O314  1  0.37880757  0.63216111  0.13519778  1
  O  O315  1  0.37919481  0.62940483  0.63062841  1
  O  O316  1  0.88050473  0.13023549  0.12881509  1
  O  O317  1  0.87590813  0.13109200  0.62992690  1
  O  O318  1  0.88021950  0.62986801  0.13004506  1
  O  O319  1  0.87977835  0.63014848  0.63029439  1
  O  O320  1  0.25553441  0.25665104  0.12020712  1
  O  O321  1  0.24710168  0.26191807  0.62651771  1
  O  O322  1  0.25810158  0.75160368  0.11807937  1
  O  O323  1  0.25556652  0.75639269  0.62331633  1
  O  O324  1  0.75184845  0.26164790  0.11923865  1
  O  O325  1  0.75653258  0.25705254  0.62417809  1
  O  O326  1  0.75720470  0.75523309  0.11858714  1
  O  O327  1  0.75824734  0.75343392  0.62360259  1
  O  O328  1  0.24472860  0.23954031  0.37360974  1
  O  O329  1  0.24206480  0.25130659  0.88126407  1
  O  O330  1  0.24274994  0.74206070  0.37636825  1
  O  O331  1  0.24964767  0.74880326  0.88809873  1
  O  O332  1  0.75123752  0.23863233  0.37540872  1
  O  O333  1  0.74769535  0.24309427  0.88103470  1
  O  O334  1  0.74374483  0.74303111  0.37713029  1
  O  O335  1  0.74445355  0.74484574  0.87968631  1
  O  O336  1  0.00294162  0.11566481  0.00086200  1
  O  O337  1  0.00728331  0.11787196  0.49797761  1
  O  O338  1  -0.00093801  0.61821763  0.00713086  1
  O  O339  1  0.00436511  0.61893876  0.50541229  1
  O  O340  1  0.50914432  0.12023199  -0.00058620  1
  O  O341  1  0.49915973  0.11550059  0.50625470  1
  O  O342  1  0.50583037  0.61665742  0.00161460  1
  O  O343  1  0.50624949  0.62336354  0.50819842  1
  O  O344  1  0.50093106  0.37612059  0.48774068  1
  O  O345  1  0.49558932  0.38256070  1.00055551  1
  O  O346  1  0.49265267  0.88468461  0.50122919  1
  O  O347  1  0.49620794  0.87940833  0.99452587  1
  O  O348  1  0.99487324  0.38093024  0.49452467  1
  O  O349  1  0.99389077  0.38134578  0.99439255  1
  O  O350  1  0.99579738  0.88078656  0.49255724  1
  O  O351  1  0.99355124  0.87911883  0.99333997  1
  O  O352  1  0.49487051  0.48994995  0.37497719  1
  O  O353  1  0.49753164  0.49822241  0.88846387  1
  O  O354  1  0.49961219  0.99963494  0.38783840  1
  O  O355  1  0.49345203  0.99354630  0.88054827  1
  O  O356  1  0.99507211  0.49499063  0.38053730  1
  O  O357  1  0.99312604  0.49464271  0.87958360  1
  O  O358  1  0.99651277  0.99429424  0.37838793  1
  O  O359  1  0.99413482  0.99348654  0.87904934  1
  O  O360  1  0.00906509  -0.00167924  0.11801250  1
  O  O361  1  0.00736468  0.00144157  0.61634111  1
  O  O362  1  0.00544325  0.50441023  0.12030331  1
  O  O363  1  0.00295047  0.50524848  0.62017834  1
  O  O364  1  0.50535511  0.00361284  0.11590160  1
  O  O365  1  0.50577779  0.00459055  0.61861633  1
  O  O366  1  0.50339403  0.50118965  0.11357571  1
  O  O367  1  0.50588435  0.50625580  0.62520832  1
  O  O368  1  0.24649117  0.37983143  0.24555443  1
  O  O369  1  0.24211313  0.38055492  0.74243640  1
  O  O370  1  0.24183601  0.87774814  0.24860382  1
  O  O371  1  0.24473197  0.87974578  0.74462803  1
  O  O372  1  0.74349783  0.37493985  0.24312579  1
  O  O373  1  0.74410376  0.38101181  0.74407670  1
  O  O374  1  0.74677019  0.87902483  0.24437691  1
  O  O375  1  0.73990453  0.87892233  0.74724554  1
  O  O376  1  0.25960822  0.12493137  0.25681421  1
  O  O377  1  0.25501635  0.11688896  0.75209797  1
  O  O378  1  0.25638678  0.61887519  0.25632972  1
  O  O379  1  0.25491812  0.61805755  0.74847059  1
  O  O380  1  0.75182903  0.11891027  0.25764192  1
  O  O381  1  0.75587623  0.12401634  0.75593470  1
  O  O382  1  0.75714671  0.62347824  0.25619828  1
  O  O383  1  0.75430755  0.62021685  0.75555209  1
  O  O384  1  0.36779422  0.12555532  0.36516767  1
  O  O385  1  0.37241980  0.11660037  0.86870214  1
  O  O386  1  0.36987588  0.61958650  0.37088921  1
  O  O387  1  0.37120631  0.62209849  0.86569104  1
  O  O388  1  0.86719840  0.11810791  0.37108708  1
  O  O389  1  0.86951199  0.11971747  0.86860351  1
  O  O390  1  0.87118352  0.62067899  0.37028908  1
  O  O391  1  0.86893419  0.61976433  0.86894835  1
  O  O392  1  0.13227304  0.38209659  0.13155724  1
  O  O393  1  0.12899934  0.38041664  0.63043316  1
  O  O394  1  0.12508365  0.88367080  0.13177957  1
  O  O395  1  0.12980499  0.88049459  0.62959394  1
  O  O396  1  0.63430635  0.37522875  0.13414245  1
  O  O397  1  0.62983437  0.38153687  0.63054638  1
  O  O398  1  0.63446773  0.87501698  0.13178074  1
  O  O399  1  0.62204931  0.88501769  0.63143747  1
  O  O400  1  0.11917632  0.25631173  0.25478426  1
  O  O401  1  0.11775778  0.25624163  0.75564078  1
  O  O402  1  0.11919299  0.75440713  0.25500023  1
  O  O403  1  0.11749912  0.75689726  0.74903509  1
  O  O404  1  0.62042817  0.26152483  0.25198056  1
  O  O405  1  0.61397681  0.25528823  0.74893752  1
  O  O406  1  0.62114518  0.75484169  0.25642678  1
  O  O407  1  0.61768958  0.75470558  0.75585298  1
  O  O408  1  0.38084211  0.24187082  0.24423774  1
  O  O409  1  0.38250144  0.24497972  0.74861206  1
  O  O410  1  0.38132488  0.74514741  0.24725735  1
  O  O411  1  0.37934953  0.74475563  0.74497893  1
  O  O412  1  0.88946496  0.25209692  0.24886781  1
  O  O413  1  0.87955524  0.24547526  0.74422463  1
  O  O414  1  0.88129069  0.74446746  0.24414635  1
  O  O415  1  0.88043707  0.74500140  0.74477384  1
  O  O416  1  0.37752291  0.49478134  0.49164580  1
  O  O417  1  0.38411120  0.49431689  1.00204618  1
  O  O418  1  0.38458219  0.99393507  0.50155897  1
  O  O419  1  0.38009277  0.99448994  0.99582291  1
  O  O420  1  0.88056328  0.49514015  0.49532238  1
  O  O421  1  0.87987784  0.49456100  0.99345524  1
  O  O422  1  0.88204343  0.99441225  0.49318120  1
  O  O423  1  0.88016650  0.99346991  0.99313560  1
  O  O424  1  0.11926870  -0.00307169  0.00828934  1
  O  O425  1  0.12034106  0.00498882  0.50404345  1
  O  O426  1  0.11834659  0.49988973  0.00812492  1
  O  O427  1  0.11724213  0.50533976  0.50538178  1
  O  O428  1  0.62025373  0.00923290  -0.00031841  1
  O  O429  1  0.61449611  -0.00029370  0.50950088  1
  O  O430  1  0.61693821  0.50560467  0.00049565  1
  O  O431  1  0.62279948  0.50789198  0.50811651  1
  O  O432  1  0.37012389  0.36924668  0.12124291  1
  O  O433  1  0.36043396  0.37475541  0.62466601  1
  O  O434  1  0.37548286  0.86818693  0.11933381  1
  O  O435  1  0.36935087  0.86931086  0.62068319  1
  O  O436  1  0.86618862  0.37437178  0.11891535  1
  O  O437  1  0.86878672  0.37046452  0.62010633  1
  O  O438  1  0.87099561  0.86826113  0.11813447  1
  O  O439  1  0.87557667  0.86995281  0.61783845  1
  O  O440  1  0.13412754  0.12954718  0.37773024  1
  O  O441  1  0.12637389  0.13428461  0.87668968  1
  O  O442  1  0.12955742  0.62904646  0.37962102  1
  O  O443  1  0.12839051  0.63016349  0.88049122  1
  O  O444  1  0.63768432  0.12559988  0.37530293  1
  O  O445  1  0.63008512  0.12545529  0.88478837  1
  O  O446  1  0.63059608  0.63001824  0.38097646  1
  O  O447  1  0.63037591  0.63135978  0.87975471  1
