# generated using pymatgen
data_V3Zn3O8
_symmetry_space_group_name_H-M   'P 1'
_cell_length_a   17.09176976
_cell_length_b   17.09329364
_cell_length_c   17.09208831
_cell_angle_alpha   89.99317593
_cell_angle_beta   89.99708398
_cell_angle_gamma   89.99037194
_symmetry_Int_Tables_number   1
_chemical_formula_structural   V3Zn3O8
_chemical_formula_sum   'V96 Zn96 O256'
_cell_volume   4993.53278471
_cell_formula_units_Z   32
loop_
 _symmetry_equiv_pos_site_id
 _symmetry_equiv_pos_as_xyz
  1  'x, y, z'
loop_
 _atom_site_type_symbol
 _atom_site_label
 _atom_site_symmetry_multiplicity
 _atom_site_fract_x
 _atom_site_fract_y
 _atom_site_fract_z
 _atom_site_occupancy
  V  V0  1  0.87539100  0.74964930  0.62385656  1
  V  V1  1  0.37509942  0.75026536  0.12612841  1
  V  V2  1  0.12456979  0.00081806  0.62571959  1
  V  V3  1  0.37472453  0.37416981  0.00030085  1
  V  V4  1  0.50047811  0.62486005  0.62416155  1
  V  V5  1  0.12446896  0.37491622  0.75038744  1
  V  V6  1  0.75110199  0.62458744  0.87366981  1
  V  V7  1  0.12482038  0.50098757  0.62439763  1
  V  V8  1  0.37460286  0.12579029  0.75109459  1
  V  V9  1  0.24903233  0.75051401  0.49976461  1
  V  V10  1  0.62571100  0.37452721  0.74980558  1
  V  V11  1  0.74903504  0.87469388  0.12548232  1
  V  V12  1  0.00049880  0.37605306  0.37447970  1
  V  V13  1  0.50069896  0.87278073  0.37272839  1
  V  V14  1  0.25091991  0.75134731  -0.00058223  1
  V  V15  1  0.62701492  0.24912805  0.87679318  1
  V  V16  1  0.62360591  -0.00048900  0.62527477  1
  V  V17  1  0.25090214  0.50026641  0.25011652  1
  V  V18  1  0.12587006  -0.00018898  0.12690118  1
  V  V19  1  0.12588456  0.12772390  -0.00150698  1
  V  V20  1  0.74944311  0.37447644  0.12554334  1
  V  V21  1  0.37714109  0.37567394  0.50016261  1
  V  V22  1  0.00025658  0.00125325  0.50125532  1
  V  V23  1  0.49986031  0.24960911  0.75016181  1
  V  V24  1  0.49931042  0.00078263  0.50115612  1
  V  V25  1  0.62592842  0.62483307  0.49679433  1
  V  V26  1  0.50063575  0.24914046  0.25046753  1
  V  V27  1  0.87483590  0.24972788  0.62542564  1
  V  V28  1  0.74957531  0.24922416  0.00000822  1
  V  V29  1  0.87629884  0.37619728  0.00027299  1
  V  V30  1  0.62476652  0.87408395  0.74907317  1
  V  V31  1  -0.00073774  -0.00072620  0.00048968  1
  V  V32  1  0.25112014  0.62474686  0.87407327  1
  V  V33  1  0.74951880  0.12402452  0.37626103  1
  V  V34  1  -0.00030156  0.12511038  0.62555933  1
  V  V35  1  0.00108907  0.87519067  0.37431878  1
  V  V36  1  0.25011111  0.37585365  0.62484310  1
  V  V37  1  0.37419508  0.00105706  0.87500246  1
  V  V38  1  0.50081460  0.50001901  -0.00132282  1
  V  V39  1  0.00126652  0.75040353  0.24923672  1
  V  V40  1  0.62475700  0.74928624  0.87334410  1
  V  V41  1  0.87499805  0.87473192  0.49977274  1
  V  V42  1  0.75048978  0.37321282  0.62479154  1
  V  V43  1  -0.00029224  0.50003090  0.49900159  1
  V  V44  1  -0.00029576  0.49965741  -0.00012685  1
  V  V45  1  0.49955479  0.12448371  0.62627449  1
  V  V46  1  0.62513059  0.37314631  0.25066165  1
  V  V47  1  0.12548652  0.62611780  0.49912164  1
  V  V48  1  0.12620058  0.62485097  -0.00025115  1
  V  V49  1  0.37549308  0.50043827  0.37422797  1
  V  V50  1  0.75167600  0.00134777  0.75278017  1
  V  V51  1  0.49943029  0.62463019  0.12569477  1
  V  V52  1  0.74981809  0.87474038  0.62453423  1
  V  V53  1  0.24961606  0.12689814  0.37526861  1
  V  V54  1  0.87530255  0.87477860  -0.00041360  1
  V  V55  1  0.24872072  0.00092175  0.24963156  1
  V  V56  1  0.87401672  0.50133310  0.37442060  1
  V  V57  1  0.87616860  0.74914639  0.12470369  1
  V  V58  1  0.62520107  0.49944505  0.62369366  1
  V  V59  1  0.00095073  0.75031266  0.75030990  1
  V  V60  1  0.00066720  0.62602318  0.12498919  1
  V  V61  1  0.12472225  0.37537943  0.24985495  1
  V  V62  1  0.74910805  0.50131104  0.24953288  1
  V  V63  1  0.50061336  0.37514094  0.87487878  1
  V  V64  1  0.62482447  0.62443430  -0.00125744  1
  V  V65  1  0.12541216  0.75068023  0.37464372  1
  V  V66  1  0.50105064  0.12414017  0.12480245  1
  V  V67  1  0.62557981  0.24826725  0.37531290  1
  V  V68  1  -0.00058885  0.25105792  0.25149408  1
  V  V69  1  0.49901737  0.87499074  0.87507391  1
  V  V70  1  0.00081997  0.25064497  0.75204516  1
  V  V71  1  0.74954055  0.74947306  0.49814155  1
  V  V72  1  0.24828174  0.25015499  0.49947881  1
  V  V73  1  0.87409686  0.24998863  0.12569391  1
  V  V74  1  0.37534749  0.50008632  0.87302205  1
  V  V75  1  0.12573773  0.50012702  0.12495937  1
  V  V76  1  0.74895728  -0.00261844  0.24939528  1
  V  V77  1  0.49977102  0.74962687  0.74851303  1
  V  V78  1  0.87498927  0.62437870  0.74961130  1
  V  V79  1  0.00095592  0.87452528  0.87443750  1
  V  V80  1  0.37402846  0.87586624  0.50032598  1
  V  V81  1  0.87522079  -0.00015401  0.37581443  1
  V  V82  1  0.37525211  0.12650653  0.25013393  1
  V  V83  1  0.24921774  0.87658307  0.62580252  1
  V  V84  1  0.75138461  0.50014095  0.74959621  1
  V  V85  1  0.24956927  0.00120637  0.75068629  1
  V  V86  1  0.87464787  0.12480844  0.25093760  1
  V  V87  1  0.74985434  0.24875519  0.50091503  1
  V  V88  1  0.25135341  0.37438158  0.12327870  1
  V  V89  1  0.75023218  0.74962269  -0.00043335  1
  V  V90  1  0.37499791  0.74988062  0.62490706  1
  V  V91  1  -0.00101281  0.12456112  0.12585040  1
  V  V92  1  0.37409742  0.00111242  0.37564648  1
  V  V93  1  -0.00016240  0.62532725  0.62473959  1
  V  V94  1  0.50032159  -0.00047414  0.00072002  1
  V  V95  1  0.25048506  0.50059243  0.74959271  1
  Zn  Zn96  1  0.62598956  0.74959672  0.37149626  1
  Zn  Zn97  1  0.12407679  0.12639304  0.49877678  1
  Zn  Zn98  1  0.50175826  0.49864752  0.49853032  1
  Zn  Zn99  1  0.25069387  0.62675541  0.37341929  1
  Zn  Zn100  1  0.12711321  0.74982509  0.87315498  1
  Zn  Zn101  1  0.62756703  0.12374244  0.00009104  1
  Zn  Zn102  1  0.37509589  0.62484912  0.74831947  1
  Zn  Zn103  1  0.62393830  0.87201454  0.24820074  1
  Zn  Zn104  1  0.50129706  0.37341542  0.37486081  1
  Zn  Zn105  1  0.12715784  0.87501032  0.24890871  1
  Zn  Zn106  1  0.37533966  0.25030031  0.62664951  1
  Zn  Zn107  1  0.25183382  0.24985824  -0.00158644  1
  Zn  Zn108  1  0.12583186  0.87451112  0.75082060  1
  Zn  Zn109  1  0.62426722  0.12431358  0.50084362  1
  Zn  Zn110  1  0.87693127  0.49909696  0.87488088  1
  Zn  Zn111  1  0.62460915  -0.00338183  0.12650079  1
  Zn  Zn112  1  0.24878529  0.12735489  0.87473837  1
  Zn  Zn113  1  0.87398446  0.62634847  0.24887981  1
  Zn  Zn114  1  0.74884754  0.62793073  0.37159916  1
  Zn  Zn115  1  0.12405056  0.25052113  0.37447266  1
  Zn  Zn116  1  0.87410678  0.00258164  0.87601145  1
  Zn  Zn117  1  0.87471942  0.12543340  0.75365013  1
  Zn  Zn118  1  0.50085509  0.74871991  0.25103511  1
  Zn  Zn119  1  0.37356534  0.87606837  0.00028386  1
  Zn  Zn120  1  0.62449342  0.49926674  0.12465343  1
  Zn  Zn121  1  0.37437236  0.25094666  0.12375124  1
  Zn  Zn122  1  0.87533976  0.37479567  0.50048199  1
  Zn  Zn123  1  0.00035345  0.37644189  0.87611770  1
  Zn  Zn124  1  0.37476934  0.62556996  0.25251315  1
  Zn  Zn125  1  0.25010186  0.87611471  0.12595048  1
  Zn  Zn126  1  0.12637225  0.25265864  0.87652659  1
  Zn  Zn127  1  0.75115260  0.12418614  0.87829761  1
  Zn  Zn128  1  0.18744262  0.18974245  0.18578069  1
  Zn  Zn129  1  0.18669248  0.18697406  0.68603190  1
  Zn  Zn130  1  0.18825743  0.68597984  0.18887703  1
  Zn  Zn131  1  0.18698268  0.68846404  0.68815346  1
  Zn  Zn132  1  0.68681258  0.18531780  0.18774008  1
  Zn  Zn133  1  0.68603955  0.18578047  0.68831265  1
  Zn  Zn134  1  0.68450685  0.68958164  0.18759743  1
  Zn  Zn135  1  0.68767849  0.68683892  0.68527448  1
  Zn  Zn136  1  0.31314772  0.31298474  0.31185656  1
  Zn  Zn137  1  0.31078489  0.31050831  0.81534059  1
  Zn  Zn138  1  0.31243859  0.81397778  0.31111432  1
  Zn  Zn139  1  0.31429060  0.81421473  0.81180087  1
  Zn  Zn140  1  0.81220153  0.31322183  0.31409589  1
  Zn  Zn141  1  0.81452548  0.31312989  0.81467182  1
  Zn  Zn142  1  0.81329935  0.81196744  0.31179377  1
  Zn  Zn143  1  0.81421463  0.81276345  0.81233818  1
  Zn  Zn144  1  0.18817047  0.43812426  0.43605047  1
  Zn  Zn145  1  0.18715203  0.43653369  0.93619923  1
  Zn  Zn146  1  0.18618139  0.93860304  0.43795260  1
  Zn  Zn147  1  0.18671563  0.93903940  0.93822070  1
  Zn  Zn148  1  0.68840255  0.43505084  0.43726057  1
  Zn  Zn149  1  0.68872989  0.43754703  0.93716508  1
  Zn  Zn150  1  0.68569924  0.93771114  0.43770571  1
  Zn  Zn151  1  0.68507860  0.93571346  0.93778602  1
  Zn  Zn152  1  0.31241858  0.06375942  0.06328391  1
  Zn  Zn153  1  0.31309294  0.06383494  0.56434487  1
  Zn  Zn154  1  0.31351849  0.56181018  0.06109796  1
  Zn  Zn155  1  0.31203124  0.56380650  0.56140299  1
  Zn  Zn156  1  0.81245941  0.06148334  0.06291548  1
  Zn  Zn157  1  0.81324510  0.06385453  0.56502403  1
  Zn  Zn158  1  0.81352099  0.56264368  0.06287232  1
  Zn  Zn159  1  0.81158998  0.56216034  0.56166336  1
  Zn  Zn160  1  0.43804651  0.43677177  0.18749633  1
  Zn  Zn161  1  0.43837758  0.43797058  0.68642301  1
  Zn  Zn162  1  0.43387509  0.93766910  0.18798097  1
  Zn  Zn163  1  0.43597115  0.93799880  0.68862443  1
  Zn  Zn164  1  0.93727711  0.43806921  0.18680212  1
  Zn  Zn165  1  0.93686792  0.43634476  0.68671198  1
  Zn  Zn166  1  0.93707637  0.93623291  0.18785105  1
  Zn  Zn167  1  0.93687138  0.93694269  0.68772507  1
  Zn  Zn168  1  0.06420187  0.06443310  0.31396207  1
  Zn  Zn169  1  0.06232257  0.06203360  0.81274945  1
  Zn  Zn170  1  0.06309857  0.56441706  0.31161999  1
  Zn  Zn171  1  0.06346909  0.56239791  0.81428338  1
  Zn  Zn172  1  0.56417532  0.06021972  0.31219075  1
  Zn  Zn173  1  0.56378662  0.06384849  0.81432602  1
  Zn  Zn174  1  0.56053687  0.56019750  0.31207445  1
  Zn  Zn175  1  0.56330017  0.56249713  0.81032319  1
  Zn  Zn176  1  0.43766333  0.18777125  0.43789232  1
  Zn  Zn177  1  0.43744286  0.18765057  0.93744299  1
  Zn  Zn178  1  0.43738019  0.68711475  0.43976370  1
  Zn  Zn179  1  0.43644443  0.68668658  0.93700665  1
  Zn  Zn180  1  0.93620993  0.18810343  0.43882174  1
  Zn  Zn181  1  0.93547497  0.18635508  0.93594284  1
  Zn  Zn182  1  0.93792537  0.68692018  0.43580309  1
  Zn  Zn183  1  0.93794109  0.68716286  0.93682649  1
  Zn  Zn184  1  0.06159845  0.31284427  0.06482689  1
  Zn  Zn185  1  0.06161995  0.31385692  0.56343841  1
  Zn  Zn186  1  0.06520842  0.81371005  0.06270035  1
  Zn  Zn187  1  0.06324987  0.81445558  0.56243290  1
  Zn  Zn188  1  0.56312230  0.31208091  0.06351929  1
  Zn  Zn189  1  0.56324651  0.30985615  0.56284690  1
  Zn  Zn190  1  0.56322203  0.81252431  0.06157640  1
  Zn  Zn191  1  0.56229517  0.81202019  0.56024749  1
  O  O192  1  0.11783646  0.11999576  0.11829846  1
  O  O193  1  0.11781687  0.11844611  0.62138818  1
  O  O194  1  0.12053660  0.61916777  0.11906653  1
  O  O195  1  0.11892911  0.62032930  0.61909083  1
  O  O196  1  0.61160256  0.12072536  0.12463800  1
  O  O197  1  0.61695389  0.11709671  0.62463582  1
  O  O198  1  0.61438021  0.62485604  0.11736053  1
  O  O199  1  0.62121573  0.61965048  0.61587189  1
  O  O200  1  0.37545284  0.38318529  0.38419360  1
  O  O201  1  0.38164972  0.38137578  0.87952438  1
  O  O202  1  0.38130040  0.88155439  0.38120368  1
  O  O203  1  0.38257279  0.88252804  0.87674386  1
  O  O204  1  0.88064643  0.38673174  0.37541340  1
  O  O205  1  0.87840389  0.37852886  0.88471967  1
  O  O206  1  0.88118616  0.88053936  0.38114231  1
  O  O207  1  0.88540778  0.87484923  0.88123471  1
  O  O208  1  0.25528445  0.00670843  0.37123575  1
  O  O209  1  0.25619454  0.00189679  0.86922126  1
  O  O210  1  0.25970517  0.50075600  0.36938383  1
  O  O211  1  0.25587900  0.50502990  0.86895191  1
  O  O212  1  0.75656738  0.00366367  0.37112463  1
  O  O213  1  0.74952521  -0.00293426  0.86386323  1
  O  O214  1  0.75817350  0.49914896  0.36608628  1
  O  O215  1  0.75131083  0.50718402  0.86720070  1
  O  O216  1  0.24508313  0.49505610  0.12971118  1
  O  O217  1  0.24407108  0.49579666  0.62921003  1
  O  O218  1  0.24457780  1.00054139  0.13201246  1
  O  O219  1  0.24513004  0.99551816  0.63010368  1
  O  O220  1  0.74967899  0.49429901  0.13498150  1
  O  O221  1  0.74497849  0.49403838  0.63016318  1
  O  O222  1  0.74968572  0.99255150  0.13114346  1
  O  O223  1  0.74436816  0.99350036  0.63237387  1
  O  O224  1  0.00489372  0.37083239  0.25424062  1
  O  O225  1  0.00603975  0.36632532  0.74804049  1
  O  O226  1  0.00144595  0.86850069  0.25717370  1
  O  O227  1  -0.00083997  0.86939066  0.75902016  1
  O  O228  1  0.50734806  0.36734698  0.24996264  1
  O  O229  1  0.50625573  0.37032288  0.75504780  1
  O  O230  1  0.49765538  0.87558651  0.26253969  1
  O  O231  1  0.50572320  0.86969795  0.75461236  1
  O  O232  1  0.49518970  0.12761158  0.24307853  1
  O  O233  1  0.49493718  0.12985047  0.74585539  1
  O  O234  1  0.49759152  0.62471056  0.23717716  1
  O  O235  1  0.50041709  0.63218814  0.74210898  1
  O  O236  1  0.99364734  0.13055159  0.24597876  1
  O  O237  1  1.00006194  0.13459246  0.74391152  1
  O  O238  1  0.99924520  0.63186263  0.24192251  1
  O  O239  1  0.99516469  0.62980654  0.74381334  1
  O  O240  1  0.37510773  0.25936335  0.00209716  1
  O  O241  1  0.36602803  0.25978459  0.50021880  1
  O  O242  1  0.36612831  0.74931120  0.00759564  1
  O  O243  1  0.36880661  0.75621667  0.50601248  1
  O  O244  1  0.87048102  0.25567867  0.00732772  1
  O  O245  1  0.86793700  0.25229714  0.50708928  1
  O  O246  1  0.86940323  0.75478159  0.00495234  1
  O  O247  1  0.87051802  0.75468226  0.50483898  1
  O  O248  1  0.13800266  0.25220691  0.49865762  1
  O  O249  1  0.12236801  0.23795510  1.00120017  1
  O  O250  1  0.12929753  0.74560482  0.49501533  1
  O  O251  1  0.13670923  0.74354831  1.00074419  1
  O  O252  1  0.63174300  0.24705216  0.49381563  1
  O  O253  1  0.63176021  0.25040883  0.99407898  1
  O  O254  1  0.63082448  0.74002715  0.49941730  1
  O  O255  1  0.63043030  0.74414535  0.99235018  1
  O  O256  1  0.49973228  0.23963125  0.13135761  1
  O  O257  1  0.49869769  0.24343420  0.63259913  1
  O  O258  1  0.49089140  0.74091911  0.12118844  1
  O  O259  1  0.49490011  0.74574366  0.62909088  1
  O  O260  1  0.99292877  0.24460117  0.13236989  1
  O  O261  1  0.99539420  0.24580097  0.63203244  1
  O  O262  1  0.99615818  0.74568849  0.12884578  1
  O  O263  1  0.99439366  0.74511530  0.62896680  1
  O  O264  1  -0.00083697  0.25765557  0.36927025  1
  O  O265  1  0.00151367  0.25142844  0.86205710  1
  O  O266  1  0.00502029  0.75538569  0.37000770  1
  O  O267  1  0.00120749  0.75848992  0.86995544  1
  O  O268  1  0.50709183  0.24943811  0.36824872  1
  O  O269  1  0.50642669  0.25658304  0.86970744  1
  O  O270  1  0.49734326  0.76185572  0.37512965  1
  O  O271  1  0.50499667  0.75422983  0.86925332  1
  O  O272  1  0.25211976  0.13607196  0.49543271  1
  O  O273  1  0.23733852  0.12558067  1.00051522  1
  O  O274  1  0.24257986  0.63285921  0.49927893  1
  O  O275  1  0.24614512  0.63196680  0.99445422  1
  O  O276  1  0.74879242  0.13019917  0.49415593  1
  O  O277  1  0.74732985  0.13312313  1.00106780  1
  O  O278  1  0.74040649  0.63015964  0.49952721  1
  O  O279  1  0.74488143  0.63013309  0.99448638  1
  O  O280  1  0.25669640  0.37626966  0.00627947  1
  O  O281  1  0.25761069  0.36904722  0.50397789  1
  O  O282  1  0.25149123  0.86341320  0.00154158  1
  O  O283  1  0.25537146  0.87085028  0.50577900  1
  O  O284  1  0.75559256  0.37041783  0.00686174  1
  O  O285  1  0.75143729  0.36722316  0.50732777  1
  O  O286  1  0.75499329  0.86835493  0.00396052  1
  O  O287  1  0.75550421  0.87036028  0.50539646  1
  O  O288  1  0.13013002  0.49505288  0.24420784  1
  O  O289  1  0.13031931  0.49588451  0.74304557  1
  O  O290  1  0.13101684  1.00142121  0.24408163  1
  O  O291  1  0.13123924  0.99822083  0.74357902  1
  O  O292  1  0.63495221  0.49338645  0.25008795  1
  O  O293  1  0.63155471  0.49424368  0.74366998  1
  O  O294  1  0.63396499  0.99451636  0.24847312  1
  O  O295  1  0.63151822  0.99280777  0.74543920  1
  O  O296  1  0.36879991  0.00744235  0.25617914  1
  O  O297  1  0.36983674  0.00599766  0.75561594  1
  O  O298  1  0.37009143  0.49858682  0.25988506  1
  O  O299  1  0.36863327  0.50084569  0.75515710  1
  O  O300  1  0.87022580  0.00550501  0.25640372  1
  O  O301  1  0.86198554  -0.00128643  0.75038899  1
  O  O302  1  0.86608842  0.50036982  0.25712779  1
  O  O303  1  0.86903067  0.50714327  0.74942525  1
  O  O304  1  0.11820033  0.37565349  0.36737240  1
  O  O305  1  0.12109640  0.37389070  0.86568448  1
  O  O306  1  0.11775524  0.86871270  0.37471399  1
  O  O307  1  0.11213676  0.87299265  0.87537684  1
  O  O308  1  0.62416840  0.36677286  0.36872685  1
  O  O309  1  0.61984805  0.37017957  0.86900608  1
  O  O310  1  0.61109000  0.87370864  0.37659866  1
  O  O311  1  0.61854781  0.86762792  0.86880399  1
  O  O312  1  0.38614840  0.12602253  0.13101149  1
  O  O313  1  0.38223589  0.12640242  0.63325703  1
  O  O314  1  0.38471610  0.63227609  0.12301972  1
  O  O315  1  0.38203740  0.63175504  0.62431173  1
  O  O316  1  0.87998892  0.13050662  0.13168092  1
  O  O317  1  0.88181837  0.13179073  0.62951934  1
  O  O318  1  0.88257225  0.63202206  0.12536941  1
  O  O319  1  0.88045541  0.63022851  0.62911187  1
  O  O320  1  0.25307859  0.25913340  0.12152133  1
  O  O321  1  0.25222936  0.25684405  0.61561291  1
  O  O322  1  0.25914508  0.74707890  0.11593219  1
  O  O323  1  0.25480811  0.75629761  0.61964502  1
  O  O324  1  0.75519937  0.25490505  0.12147532  1
  O  O325  1  0.75413193  0.25378205  0.62146576  1
  O  O326  1  0.75591243  0.75374356  0.11824463  1
  O  O327  1  0.75585435  0.75553269  0.61917193  1
  O  O328  1  0.24981821  0.24613885  0.38388723  1
  O  O329  1  0.24397391  0.24516559  0.87988642  1
  O  O330  1  0.24467483  0.74999004  0.38217633  1
  O  O331  1  0.25194012  0.74500999  0.88416280  1
  O  O332  1  0.74607045  0.24363659  0.38018239  1
  O  O333  1  0.74386698  0.25084711  0.88208685  1
  O  O334  1  0.74888537  0.74738523  0.38273056  1
  O  O335  1  0.74445902  0.74501115  0.87913975  1
  O  O336  1  0.00534300  0.11943995  0.00664799  1
  O  O337  1  0.00016199  0.11899005  0.50681560  1
  O  O338  1  0.00625579  0.62097640  0.00578426  1
  O  O339  1  0.00521927  0.61981469  0.50566655  1
  O  O340  1  0.50019790  0.11648607  0.00856879  1
  O  O341  1  0.49963732  0.11814142  0.50727816  1
  O  O342  1  0.50507045  0.61989431  0.00567556  1
  O  O343  1  0.51038448  0.62357311  0.50602836  1
  O  O344  1  0.48819130  0.37463796  0.49935416  1
  O  O345  1  0.49616345  0.38101324  0.99436827  1
  O  O346  1  0.49311108  0.88073859  0.49335835  1
  O  O347  1  0.49836595  0.88333714  0.99385588  1
  O  O348  1  0.99866821  0.38297257  0.49361503  1
  O  O349  1  0.99416915  0.38181872  1.00198406  1
  O  O350  1  0.99349834  0.88082305  0.49492991  1
  O  O351  1  0.99540120  0.87853318  0.99292046  1
  O  O352  1  0.48893348  0.49513579  0.37738507  1
  O  O353  1  0.49615036  0.49483314  0.87848559  1
  O  O354  1  0.49329331  0.99352280  0.38085474  1
  O  O355  1  0.49536356  0.99523849  0.88213165  1
  O  O356  1  0.99226997  0.49632250  0.37821684  1
  O  O357  1  0.99768817  0.49936180  0.88424533  1
  O  O358  1  0.99422153  0.99590009  0.38062631  1
  O  O359  1  0.99840192  0.98947259  0.88057098  1
  O  O360  1  0.00429738  0.00564000  0.12063348  1
  O  O361  1  0.00382871  0.00457031  0.62082988  1
  O  O362  1  0.00637859  0.50582384  0.12049085  1
  O  O363  1  0.00496258  0.50583473  0.61915996  1
  O  O364  1  0.49842930  0.00637288  0.11736253  1
  O  O365  1  0.50428520  0.00372092  0.62098541  1
  O  O366  1  0.50038815  0.50963004  0.11825067  1
  O  O367  1  0.50785408  0.50587505  0.62259329  1
  O  O368  1  0.24470354  0.38067403  0.24413683  1
  O  O369  1  0.24504939  0.38069767  0.74388433  1
  O  O370  1  0.24829325  0.88536229  0.24787273  1
  O  O371  1  0.24951618  0.88235490  0.74333126  1
  O  O372  1  0.74551211  0.38203486  0.24525703  1
  O  O373  1  0.74472827  0.37987600  0.74466008  1
  O  O374  1  0.75167400  0.88060079  0.24284529  1
  O  O375  1  0.74449757  0.88036304  0.74409283  1
  O  O376  1  0.25556847  0.12173413  0.25514876  1
  O  O377  1  0.25627029  0.11866927  0.74991904  1
  O  O378  1  0.25384295  0.61556645  0.25253997  1
  O  O379  1  0.25128401  0.61854211  0.75536182  1
  O  O380  1  0.75625310  0.11880143  0.25583207  1
  O  O381  1  0.74956040  0.11140126  0.75072799  1
  O  O382  1  0.75027889  0.61324615  0.25005826  1
  O  O383  1  0.75510096  0.62040272  0.75347746  1
  O  O384  1  0.36967293  0.11982248  0.36992732  1
  O  O385  1  0.37486330  0.11788993  0.86848150  1
  O  O386  1  0.37411078  0.61279168  0.37611070  1
  O  O387  1  0.36943990  0.61761924  0.87238744  1
  O  O388  1  0.86955596  0.11902006  0.36993164  1
  O  O389  1  0.86951536  0.11994192  0.87085374  1
  O  O390  1  0.87355130  0.61235251  0.37225617  1
  O  O391  1  0.86808125  0.62461970  0.86758887  1
  O  O392  1  0.13026959  0.38180645  0.13052019  1
  O  O393  1  0.13068372  0.38252980  0.62966991  1
  O  O394  1  0.12806509  0.88465627  0.12714473  1
  O  O395  1  0.13163335  0.88255758  0.62614983  1
  O  O396  1  0.63180628  0.37685396  0.13234076  1
  O  O397  1  0.63040796  0.37928368  0.63052753  1
  O  O398  1  0.63355635  0.87561736  0.12603467  1
  O  O399  1  0.62991627  0.87914932  0.62974244  1
  O  O400  1  0.11713827  0.25751420  0.25054869  1
  O  O401  1  0.11509220  0.25608182  0.74740639  1
  O  O402  1  0.11961790  0.75160238  0.25623397  1
  O  O403  1  0.11698909  0.75352579  0.75245620  1
  O  O404  1  0.62107101  0.25371469  0.25604329  1
  O  O405  1  0.61993076  0.25613296  0.75570197  1
  O  O406  1  0.61875701  0.75370442  0.25454015  1
  O  O407  1  0.62029853  0.75484702  0.75368414  1
  O  O408  1  0.38235056  0.24368571  0.24906144  1
  O  O409  1  0.38234266  0.24487848  0.74959804  1
  O  O410  1  0.37650225  0.74646267  0.23832037  1
  O  O411  1  0.38205498  0.74883970  0.74241569  1
  O  O412  1  0.87920111  0.24468997  0.24554983  1
  O  O413  1  0.88498810  0.25103812  0.74366322  1
  O  O414  1  0.88236226  0.74788580  0.24282215  1
  O  O415  1  0.88006043  0.74413019  0.74279543  1
  O  O416  1  0.37398378  0.49077648  0.49228632  1
  O  O417  1  0.38159770  0.49473195  0.99254589  1
  O  O418  1  0.37917088  0.99506083  0.49526449  1
  O  O419  1  0.38506473  0.99970095  0.99515082  1
  O  O420  1  0.88006693  0.49942112  0.49058672  1
  O  O421  1  0.88170633  0.49386475  1.00105188  1
  O  O422  1  0.87991007  0.99405874  0.49581484  1
  O  O423  1  0.88184443  0.99182004  1.00011326  1
  O  O424  1  0.11872163  0.00828206  0.00668369  1
  O  O425  1  0.11753777  0.00195270  0.50716189  1
  O  O426  1  0.12063873  0.50546388  0.00645106  1
  O  O427  1  0.11995863  0.50560525  0.50477949  1
  O  O428  1  0.61126471  0.00087131  0.00104068  1
  O  O429  1  0.61770493  0.00075383  0.50795348  1
  O  O430  1  0.61914135  0.50661233  0.00092369  1
  O  O431  1  0.62577596  0.50780488  0.50495750  1
  O  O432  1  0.36936070  0.37571750  0.11791498  1
  O  O433  1  0.36902041  0.37576578  0.61500961  1
  O  O434  1  0.37345349  0.86260274  0.12167640  1
  O  O435  1  0.36959359  0.87032208  0.61937507  1
  O  O436  1  0.86918979  0.36880943  0.12111935  1
  O  O437  1  0.86770284  0.36842202  0.62310930  1
  O  O438  1  0.87026838  0.86812664  0.11850219  1
  O  O439  1  0.86992671  0.86879403  0.61878935  1
  O  O440  1  0.13323034  0.13010933  0.37921300  1
  O  O441  1  0.12350739  0.12510613  0.88847197  1
  O  O442  1  0.12576841  0.63206528  0.38232094  1
  O  O443  1  0.13302446  0.62712378  0.88232841  1
  O  O444  1  0.63243273  0.13002833  0.37661900  1
  O  O445  1  0.62821126  0.13409693  0.87830875  1
  O  O446  1  0.62463737  0.62433547  0.38652765  1
  O  O447  1  0.63078544  0.63071568  0.87853282  1
