# generated using pymatgen
data_V3Zn3O8
_symmetry_space_group_name_H-M   'P 1'
_cell_length_a   17.09115233
_cell_length_b   17.09146054
_cell_length_c   17.08967204
_cell_angle_alpha   90.01064498
_cell_angle_beta   89.99399115
_cell_angle_gamma   90.00588978
_symmetry_Int_Tables_number   1
_chemical_formula_structural   V3Zn3O8
_chemical_formula_sum   'V96 Zn96 O256'
_cell_volume   4992.11105274
_cell_formula_units_Z   32
loop_
 _symmetry_equiv_pos_site_id
 _symmetry_equiv_pos_as_xyz
  1  'x, y, z'
loop_
 _atom_site_type_symbol
 _atom_site_label
 _atom_site_symmetry_multiplicity
 _atom_site_fract_x
 _atom_site_fract_y
 _atom_site_fract_z
 _atom_site_occupancy
  V  V0  1  0.37328688  0.50082154  0.87434992  1
  V  V1  1  0.12412244  0.87516052  0.75073627  1
  V  V2  1  -0.00018292  0.00019595  0.50024229  1
  V  V3  1  0.87668351  0.24959722  0.62542624  1
  V  V4  1  0.12546237  0.74971075  0.87438531  1
  V  V5  1  0.87496635  -0.00031602  0.37531578  1
  V  V6  1  0.37552446  0.62551508  0.24965626  1
  V  V7  1  0.87508202  0.87492404  -0.00117497  1
  V  V8  1  0.12542412  0.75028392  0.37486480  1
  V  V9  1  0.87494488  0.62499836  0.74963153  1
  V  V10  1  -0.00089353  0.00039663  0.00006780  1
  V  V11  1  0.37456776  0.87433201  0.00019228  1
  V  V12  1  0.49984473  0.87385728  0.87387679  1
  V  V13  1  0.12564709  0.87450224  0.24941609  1
  V  V14  1  0.25012685  0.24889694  0.00235103  1
  V  V15  1  0.24971198  0.74941788  -0.00120825  1
  V  V16  1  0.25014271  0.37572486  0.62451825  1
  V  V17  1  0.75036422  0.24938477  0.00086590  1
  V  V18  1  0.62541736  0.12365107  -0.00019829  1
  V  V19  1  0.74902365  0.74790512  -0.00198263  1
  V  V20  1  0.62467075  0.37514586  0.74971144  1
  V  V21  1  0.49988246  -0.00119403  0.00094724  1
  V  V22  1  0.74960385  0.87442225  0.12478224  1
  V  V23  1  0.12462755  0.12551049  0.50089807  1
  V  V24  1  -0.00030212  0.87540128  0.37560736  1
  V  V25  1  0.87502720  0.24938283  0.12534131  1
  V  V26  1  0.87331002  0.50075395  0.87363673  1
  V  V27  1  0.75018036  -0.00144421  0.24983314  1
  V  V28  1  0.50145949  0.87440647  0.37410667  1
  V  V29  1  0.24934727  0.87497056  0.12571058  1
  V  V30  1  0.37593968  0.74920540  0.12528747  1
  V  V31  1  0.62466380  0.12652198  0.50007988  1
  V  V32  1  0.74975324  -0.00012269  0.74950590  1
  V  V33  1  0.49955292  0.12721462  0.62625995  1
  V  V34  1  0.87547147  0.50001103  0.37439645  1
  V  V35  1  0.37473098  0.37273938  0.00164992  1
  V  V36  1  0.24949280  0.12487045  0.87569841  1
  V  V37  1  0.87524337  0.62472811  0.24887441  1
  V  V38  1  0.62559654  0.62435609  -0.00147295  1
  V  V39  1  0.37480051  0.24842648  0.12591387  1
  V  V40  1  0.87517276  0.37542743  -0.00083923  1
  V  V41  1  -0.00013062  0.24963849  0.24990794  1
  V  V42  1  0.62589822  0.25133578  0.37460235  1
  V  V43  1  0.24989061  0.49883825  0.24900062  1
  V  V44  1  0.25137359  0.12467336  0.37527330  1
  V  V45  1  0.74974122  0.12461497  0.87498388  1
  V  V46  1  0.00020055  0.62484510  0.12349706  1
  V  V47  1  0.00010346  0.62626829  0.62513140  1
  V  V48  1  0.50013555  0.12378268  0.12596921  1
  V  V49  1  0.49977243  0.62433547  0.12628249  1
  V  V50  1  0.49894651  0.00081322  0.49847251  1
  V  V51  1  0.49970397  0.62694261  0.62557313  1
  V  V52  1  0.62337756  0.87363385  0.75059366  1
  V  V53  1  0.25101758  0.62563921  0.37447262  1
  V  V54  1  0.75056498  0.62562542  0.37532787  1
  V  V55  1  -0.00009160  0.49957147  -0.00069359  1
  V  V56  1  0.24903046  0.00097777  0.75003404  1
  V  V57  1  0.75125679  0.75119198  0.49923987  1
  V  V58  1  0.87482518  0.74949727  0.12318240  1
  V  V59  1  0.12438946  0.25041723  0.37516919  1
  V  V60  1  0.87430165  0.12625189  0.74931999  1
  V  V61  1  -0.00039802  0.12501096  0.12505747  1
  V  V62  1  0.25000701  0.75104719  0.50058756  1
  V  V63  1  0.37433672  -0.00028067  0.87575320  1
  V  V64  1  0.12515213  0.50038421  0.62538406  1
  V  V65  1  0.00045635  0.50102130  0.49896849  1
  V  V66  1  0.50030622  0.49826776  0.00148802  1
  V  V67  1  0.12403380  0.12472544  0.00060152  1
  V  V68  1  0.62474029  0.24939435  0.87552233  1
  V  V69  1  0.12619596  0.62529220  -0.00194874  1
  V  V70  1  0.87466619  -0.00003507  0.87517659  1
  V  V71  1  0.12522357  0.62552086  0.50000382  1
  V  V72  1  0.25075915  0.87570161  0.62471152  1
  V  V73  1  0.12441067  0.00165383  0.62535810  1
  V  V74  1  0.74956511  0.37686282  0.62489594  1
  V  V75  1  0.49968740  0.24971082  0.25121683  1
  V  V76  1  0.37468267  0.37570320  0.49990282  1
  V  V77  1  0.74908037  0.37491581  0.12567231  1
  V  V78  1  0.62577801  -0.00202594  0.12524257  1
  V  V79  1  0.12439211  0.25084345  0.87506240  1
  V  V80  1  0.00067480  0.37464561  0.37381023  1
  V  V81  1  0.87501912  0.37532554  0.50018313  1
  V  V82  1  0.00028984  0.74977442  0.24948079  1
  V  V83  1  0.00048564  0.75008701  0.74983690  1
  V  V84  1  0.37531150  0.12605664  0.75014812  1
  V  V85  1  0.12572823  0.49970299  0.12434145  1
  V  V86  1  0.50004290  0.50044065  0.49881950  1
  V  V87  1  0.62596005  0.62534946  0.49931891  1
  V  V88  1  0.75073146  0.87575652  0.62414183  1
  V  V89  1  0.24940588  -0.00073767  0.25082873  1
  V  V90  1  0.62513661  0.49875530  0.12545369  1
  V  V91  1  0.74966370  0.49989825  0.24938193  1
  V  V92  1  0.37577439  0.75116979  0.62532119  1
  V  V93  1  0.50013412  0.37273008  0.87578427  1
  V  V94  1  0.75066102  0.12406870  0.37457268  1
  V  V95  1  0.12382206  0.37506458  0.75093161  1
  Zn  Zn96  1  0.12394935  -0.00076299  0.12473691  1
  Zn  Zn97  1  0.62440912  0.37633328  0.25155814  1
  Zn  Zn98  1  0.37476193  0.87744492  0.49947287  1
  Zn  Zn99  1  0.49983387  0.37526656  0.37563418  1
  Zn  Zn100  1  0.50175678  0.74983268  0.25136459  1
  Zn  Zn101  1  0.62556032  0.00232917  0.62499611  1
  Zn  Zn102  1  0.62426685  0.87160796  0.24864365  1
  Zn  Zn103  1  0.25033693  0.25047530  0.49941459  1
  Zn  Zn104  1  0.37511899  -0.00043882  0.37372002  1
  Zn  Zn105  1  0.62582936  0.75062542  0.37086968  1
  Zn  Zn106  1  0.62529688  0.50123232  0.62589199  1
  Zn  Zn107  1  0.37411489  0.12357012  0.25112157  1
  Zn  Zn108  1  0.74615259  0.62616500  0.87079904  1
  Zn  Zn109  1  0.75061698  0.24974424  0.49808020  1
  Zn  Zn110  1  0.87615231  0.87523304  0.50106080  1
  Zn  Zn111  1  0.37577028  0.50038342  0.37325946  1
  Zn  Zn112  1  0.12532454  0.37457825  0.24882126  1
  Zn  Zn113  1  -0.00039408  0.87523632  0.87474120  1
  Zn  Zn114  1  0.37362953  0.62429190  0.75085103  1
  Zn  Zn115  1  0.37404184  0.25149224  0.62716355  1
  Zn  Zn116  1  0.00011039  0.24833554  0.75162128  1
  Zn  Zn117  1  0.49775804  0.24953504  0.75101645  1
  Zn  Zn118  1  0.74848067  0.50330684  0.74947733  1
  Zn  Zn119  1  0.00033332  0.12509032  0.62618687  1
  Zn  Zn120  1  0.25012069  0.50249392  0.75160937  1
  Zn  Zn121  1  0.87597431  0.74988756  0.62605414  1
  Zn  Zn122  1  0.62338067  0.74662533  0.87408313  1
  Zn  Zn123  1  -0.00073767  0.37354186  0.87460961  1
  Zn  Zn124  1  0.87555241  0.12400531  0.24995897  1
  Zn  Zn125  1  0.25145620  0.62539077  0.87218675  1
  Zn  Zn126  1  0.24863179  0.37240352  0.12679180  1
  Zn  Zn127  1  0.49921103  0.74864286  0.75167894  1
  Zn  Zn128  1  0.18525596  0.18634731  0.18878258  1
  Zn  Zn129  1  0.18853117  0.18942774  0.68719686  1
  Zn  Zn130  1  0.18822915  0.68676516  0.18601954  1
  Zn  Zn131  1  0.18951262  0.68627279  0.68998944  1
  Zn  Zn132  1  0.68759273  0.18514432  0.18894482  1
  Zn  Zn133  1  0.68780055  0.18979651  0.68716681  1
  Zn  Zn134  1  0.68578050  0.68780656  0.18690294  1
  Zn  Zn135  1  0.68796242  0.68883920  0.68640103  1
  Zn  Zn136  1  0.31346290  0.31251390  0.31432792  1
  Zn  Zn137  1  0.31150632  0.31207380  0.81288504  1
  Zn  Zn138  1  0.31604724  0.81359792  0.31317439  1
  Zn  Zn139  1  0.31184483  0.81237460  0.81116002  1
  Zn  Zn140  1  0.81322624  0.31256151  0.31060606  1
  Zn  Zn141  1  0.81110825  0.31330997  0.81182332  1
  Zn  Zn142  1  0.81370596  0.81407567  0.31177154  1
  Zn  Zn143  1  0.81234094  0.81065257  0.81358409  1
  Zn  Zn144  1  0.18718918  0.43834736  0.43568058  1
  Zn  Zn145  1  0.18913928  0.43565561  0.93925298  1
  Zn  Zn146  1  0.18638126  0.93824771  0.43823860  1
  Zn  Zn147  1  0.18583965  0.93709859  0.93786366  1
  Zn  Zn148  1  0.68734143  0.43768008  0.43811998  1
  Zn  Zn149  1  0.68871187  0.43757235  0.93751275  1
  Zn  Zn150  1  0.68500747  0.93876626  0.43672346  1
  Zn  Zn151  1  0.68777305  0.93544816  0.93713699  1
  Zn  Zn152  1  0.31199891  0.06179514  0.06474084  1
  Zn  Zn153  1  0.31326414  0.06340502  0.56212812  1
  Zn  Zn154  1  0.31243786  0.56271847  0.06201638  1
  Zn  Zn155  1  0.31280236  0.56257885  0.56253725  1
  Zn  Zn156  1  0.81340537  0.06211097  0.06331562  1
  Zn  Zn157  1  0.81214938  0.06278948  0.56054305  1
  Zn  Zn158  1  0.81112205  0.56263891  0.06103667  1
  Zn  Zn159  1  0.81384826  0.56282218  0.56329800  1
  Zn  Zn160  1  0.43643883  0.43554439  0.18778339  1
  Zn  Zn161  1  0.43858843  0.43837065  0.68809810  1
  Zn  Zn162  1  0.43527422  0.93759936  0.19018291  1
  Zn  Zn163  1  0.43707438  0.93970604  0.68684098  1
  Zn  Zn164  1  0.93774843  0.43643290  0.18689902  1
  Zn  Zn165  1  0.93909292  0.43849757  0.68799813  1
  Zn  Zn166  1  0.93665014  0.93789491  0.18747111  1
  Zn  Zn167  1  0.93752947  0.93764002  0.68788602  1
  Zn  Zn168  1  0.06341560  0.06243000  0.31205712  1
  Zn  Zn169  1  0.06005942  0.06386820  0.81257859  1
  Zn  Zn170  1  0.06388958  0.56293876  0.31165520  1
  Zn  Zn171  1  0.06147751  0.56258918  0.81284627  1
  Zn  Zn172  1  0.56526641  0.06195678  0.31189557  1
  Zn  Zn173  1  0.56218774  0.06000407  0.81217588  1
  Zn  Zn174  1  0.56375269  0.56378670  0.31322313  1
  Zn  Zn175  1  0.55983116  0.56048521  0.81286372  1
  Zn  Zn176  1  0.43616435  0.18962475  0.43906700  1
  Zn  Zn177  1  0.43761186  0.18657377  0.93853388  1
  Zn  Zn178  1  0.43632947  0.68944179  0.43736685  1
  Zn  Zn179  1  0.43956211  0.68702303  0.93856745  1
  Zn  Zn180  1  0.93763625  0.18636600  0.43778780  1
  Zn  Zn181  1  0.93834858  0.18814229  0.93669249  1
  Zn  Zn182  1  0.93651882  0.68829628  0.43767276  1
  Zn  Zn183  1  0.93793124  0.68698455  0.93498517  1
  Zn  Zn184  1  0.06262412  0.31377195  0.06358637  1
  Zn  Zn185  1  0.06204944  0.31217651  0.56122587  1
  Zn  Zn186  1  0.06219293  0.81308642  0.06109836  1
  Zn  Zn187  1  0.06340248  0.81368622  0.56360492  1
  Zn  Zn188  1  0.56279368  0.31172402  0.06368516  1
  Zn  Zn189  1  0.56193795  0.31157943  0.56260621  1
  Zn  Zn190  1  0.56292552  0.81032165  0.06203915  1
  Zn  Zn191  1  0.56511462  0.81326161  0.56021283  1
  O  O192  1  0.11771091  0.12345670  0.11775474  1
  O  O193  1  0.12498810  0.11963193  0.61970305  1
  O  O194  1  0.11915374  0.62030261  0.11827256  1
  O  O195  1  0.12034404  0.62007585  0.61928216  1
  O  O196  1  0.62002791  0.11871511  0.11865198  1
  O  O197  1  0.61653125  0.12564328  0.62013283  1
  O  O198  1  0.61953601  0.61716508  0.11907965  1
  O  O199  1  0.61535315  0.62482647  0.61871635  1
  O  O200  1  0.37718857  0.37839444  0.38715549  1
  O  O201  1  0.38030945  0.38025495  0.88164096  1
  O  O202  1  0.38632869  0.87768319  0.37974894  1
  O  O203  1  0.37916579  0.88079406  0.87992994  1
  O  O204  1  0.87987207  0.38070502  0.38048547  1
  O  O205  1  0.87517630  0.38339266  0.88006708  1
  O  O206  1  0.88252618  0.88119493  0.37700518  1
  O  O207  1  0.87514403  0.88242103  0.88101014  1
  O  O208  1  0.24965749  0.00904240  0.37076960  1
  O  O209  1  0.25491993  0.00542036  0.87021833  1
  O  O210  1  0.24969528  0.50743518  0.36515269  1
  O  O211  1  0.26321698  0.49960006  0.87671412  1
  O  O212  1  0.75441608  0.00421583  0.37018547  1
  O  O213  1  0.75485543  0.00555614  0.86992332  1
  O  O214  1  0.75617782  0.50542197  0.37043710  1
  O  O215  1  0.76253267  0.50099523  0.87364713  1
  O  O216  1  0.24494060  0.50054335  0.13445561  1
  O  O217  1  0.24410186  0.49020366  0.62529206  1
  O  O218  1  0.24769156  0.99271676  0.13168462  1
  O  O219  1  0.24514682  0.99574556  0.63064950  1
  O  O220  1  0.74525641  0.49477424  0.12975368  1
  O  O221  1  0.74864111  0.48770859  0.62599726  1
  O  O222  1  0.74568613  0.99409547  0.12882007  1
  O  O223  1  0.74798132  0.99178288  0.62984698  1
  O  O224  1  0.00064082  0.36892977  0.25675307  1
  O  O225  1  0.01345373  0.37323591  0.74948596  1
  O  O226  1  0.00520319  0.86853915  0.25481592  1
  O  O227  1  0.00658235  0.86896500  0.75082409  1
  O  O228  1  0.50175074  0.36256466  0.25277566  1
  O  O229  1  0.50932750  0.37253799  0.75481211  1
  O  O230  1  0.50077401  0.87469632  0.26132442  1
  O  O231  1  0.50896418  0.87687634  0.75356809  1
  O  O232  1  0.49985075  0.13431044  0.24512840  1
  O  O233  1  0.49511248  0.12358696  0.74163079  1
  O  O234  1  0.49294752  0.62392619  0.24395558  1
  O  O235  1  0.49872429  0.62604554  0.73650813  1
  O  O236  1  0.99900519  0.13134333  0.24360704  1
  O  O237  1  0.99053564  0.12789909  0.74618000  1
  O  O238  1  0.99500040  0.63021651  0.24397515  1
  O  O239  1  0.99601189  0.63049765  0.74361740  1
  O  O240  1  0.37004635  0.25297397  0.00569012  1
  O  O241  1  0.37384287  0.26377883  0.50382256  1
  O  O242  1  0.36977836  0.75555544  0.00519320  1
  O  O243  1  0.36860520  0.75166351  0.51102837  1
  O  O244  1  0.86901322  0.25529388  0.00483857  1
  O  O245  1  0.87364966  0.25667573  0.50846874  1
  O  O246  1  0.87073447  0.75421282  0.00456742  1
  O  O247  1  0.86342441  0.75200131  0.50274942  1
  O  O248  1  0.12614308  0.24415665  0.49316543  1
  O  O249  1  0.13024275  0.24465332  0.99524105  1
  O  O250  1  0.13031392  0.74468355  0.49460901  1
  O  O251  1  0.12994553  0.74514914  0.99447943  1
  O  O252  1  0.62462871  0.24534357  0.48930526  1
  O  O253  1  0.63079897  0.24352285  0.99547758  1
  O  O254  1  0.63751077  0.74466378  0.49826535  1
  O  O255  1  0.63113941  0.74215300  0.99916214  1
  O  O256  1  0.49660494  0.24381128  0.13284342  1
  O  O257  1  0.49828397  0.23757696  0.62620441  1
  O  O258  1  0.49262193  0.74233103  0.12486370  1
  O  O259  1  0.49266001  0.74264374  0.62178843  1
  O  O260  1  0.99428808  0.24503253  0.12943953  1
  O  O261  1  0.98693013  0.25044684  0.62633494  1
  O  O262  1  0.99463234  0.74435479  0.12964746  1
  O  O263  1  0.99940479  0.74403098  0.63080427  1
  O  O264  1  0.00410916  0.25512133  0.37001033  1
  O  O265  1  0.00784248  0.25387931  0.87249136  1
  O  O266  1  0.00536408  0.75423082  0.36923412  1
  O  O267  1  0.00738862  0.75157730  0.86791273  1
  O  O268  1  0.50874695  0.24889253  0.36787224  1
  O  O269  1  0.50738563  0.25486646  0.87539524  1
  O  O270  1  0.50255958  0.76125409  0.37705333  1
  O  O271  1  0.50098904  0.75812829  0.87146323  1
  O  O272  1  0.24413206  0.12613402  0.49166784  1
  O  O273  1  0.24463601  0.12894140  0.99487946  1
  O  O274  1  0.24424781  0.63038019  0.49507377  1
  O  O275  1  0.24371807  0.63197542  0.99846825  1
  O  O276  1  0.74226563  0.12709740  0.49318338  1
  O  O277  1  0.74461233  0.12962095  0.99475360  1
  O  O278  1  0.74690524  0.63193655  0.49623030  1
  O  O279  1  0.74297149  0.63035136  0.99880029  1
  O  O280  1  0.25680824  0.36607440  0.00307474  1
  O  O281  1  0.25788100  0.37765877  0.50772848  1
  O  O282  1  0.25537304  0.86984986  0.00534805  1
  O  O283  1  0.25067377  0.86937955  0.50680320  1
  O  O284  1  0.75511086  0.36867022  0.00586734  1
  O  O285  1  0.75586121  0.37396303  0.50902977  1
  O  O286  1  0.75580817  0.86910865  0.00536909  1
  O  O287  1  0.74848892  0.86860435  0.50781087  1
  O  O288  1  0.13479888  0.50154421  0.24372260  1
  O  O289  1  0.12560683  0.49092841  0.74442900  1
  O  O290  1  0.13111978  0.99163877  0.24863727  1
  O  O291  1  0.13038331  0.99608239  0.74588181  1
  O  O292  1  0.63173219  0.49890217  0.24406693  1
  O  O293  1  0.62565145  0.48675594  0.74825986  1
  O  O294  1  0.63217271  0.99775609  0.24193455  1
  O  O295  1  0.63125957  0.98969619  0.74870210  1
  O  O296  1  0.36553090  0.00416505  0.25351976  1
  O  O297  1  0.36842416  0.00560265  0.75610007  1
  O  O298  1  0.36588057  0.50578699  0.25009587  1
  O  O299  1  0.37556432  0.49870424  0.76325036  1
  O  O300  1  0.86859618  0.00093118  0.25712319  1
  O  O301  1  0.86841110  0.00571226  0.75502397  1
  O  O302  1  0.87018036  0.50574465  0.25456946  1
  O  O303  1  0.87592438  0.50496226  0.75878934  1
  O  O304  1  0.11779934  0.36941833  0.37399348  1
  O  O305  1  0.12602322  0.37041878  0.86578880  1
  O  O306  1  0.11972307  0.86870427  0.36944477  1
  O  O307  1  0.12360569  0.86864577  0.86802158  1
  O  O308  1  0.62309868  0.36386096  0.37427422  1
  O  O309  1  0.62114337  0.36985292  0.86862121  1
  O  O310  1  0.61362119  0.87425198  0.37320909  1
  O  O311  1  0.61889904  0.87497344  0.86556209  1
  O  O312  1  0.38291172  0.13084500  0.12623686  1
  O  O313  1  0.38311831  0.12659250  0.63087000  1
  O  O314  1  0.38061800  0.62957337  0.12927189  1
  O  O315  1  0.38377881  0.63338697  0.62346129  1
  O  O316  1  0.88115513  0.13235677  0.12548005  1
  O  O317  1  0.87240616  0.13531327  0.62970680  1
  O  O318  1  0.88066442  0.62955639  0.12922555  1
  O  O319  1  0.88305609  0.62512997  0.63126389  1
  O  O320  1  0.25662149  0.24852137  0.12038175  1
  O  O321  1  0.25106921  0.26432305  0.62152354  1
  O  O322  1  0.25568478  0.75511773  0.11903419  1
  O  O323  1  0.25692683  0.75514074  0.62014892  1
  O  O324  1  0.75413687  0.25399975  0.12011996  1
  O  O325  1  0.75886992  0.26035692  0.62319796  1
  O  O326  1  0.75657343  0.75407419  0.11871271  1
  O  O327  1  0.75125648  0.75882883  0.61612558  1
  O  O328  1  0.24365259  0.24117037  0.37585644  1
  O  O329  1  0.24463102  0.24362113  0.88200021  1
  O  O330  1  0.24474630  0.74572311  0.38037691  1
  O  O331  1  0.24446803  0.74944873  0.88149742  1
  O  O332  1  0.74107587  0.24483255  0.37418091  1
  O  O333  1  0.74475983  0.24444241  0.88119106  1
  O  O334  1  0.75155215  0.74474466  0.38378020  1
  O  O335  1  0.74625074  0.74710890  0.88297333  1
  O  O336  1  0.00448962  0.12022724  0.00507679  1
  O  O337  1  0.00705805  0.11800530  0.50190428  1
  O  O338  1  0.00562270  0.61961591  0.00498366  1
  O  O339  1  0.00565823  0.62056543  0.50406453  1
  O  O340  1  0.50611298  0.11820758  0.00543441  1
  O  O341  1  0.50361460  0.11950572  0.50657907  1
  O  O342  1  0.50537069  0.61737398  0.00698025  1
  O  O343  1  0.50392283  0.61880410  0.50656233  1
  O  O344  1  0.49217863  0.38451890  0.50343789  1
  O  O345  1  0.49511085  0.37872088  0.99553085  1
  O  O346  1  0.50157997  0.88565194  0.49421358  1
  O  O347  1  0.49402341  0.88025084  0.99487546  1
  O  O348  1  0.99451982  0.38203992  0.49432078  1
  O  O349  1  0.99259315  0.38223059  0.99921765  1
  O  O350  1  0.99994655  0.88095757  0.49359205  1
  O  O351  1  0.99254926  0.88139343  0.99860141  1
  O  O352  1  0.49881991  0.49892160  0.38756229  1
  O  O353  1  0.49222338  0.49197933  0.88196478  1
  O  O354  1  0.49995343  0.99517276  0.38318489  1
  O  O355  1  0.49358971  0.99466629  0.88148709  1
  O  O356  1  0.99500160  0.49602064  0.37929085  1
  O  O357  1  0.98959763  0.49797037  0.88086171  1
  O  O358  1  0.99596494  0.99447014  0.37996440  1
  O  O359  1  0.99188595  0.99959598  0.88172533  1
  O  O360  1  0.00016206  0.00644799  0.11822045  1
  O  O361  1  0.00654249  0.00087986  0.61888657  1
  O  O362  1  0.00447823  0.50625259  0.11956564  1
  O  O363  1  0.00573163  0.50555762  0.61804538  1
  O  O364  1  0.50480385  0.00388308  0.11992060  1
  O  O365  1  0.50138278  0.01049198  0.61685861  1
  O  O366  1  0.50488253  0.50366257  0.12036939  1
  O  O367  1  0.49962287  0.51003860  0.61532205  1
  O  O368  1  0.24965057  0.38727221  0.24986291  1
  O  O369  1  0.24111391  0.37705623  0.74151055  1
  O  O370  1  0.24495971  0.87885937  0.24591129  1
  O  O371  1  0.24442737  0.88178298  0.74431001  1
  O  O372  1  0.74933906  0.38250739  0.24338009  1
  O  O373  1  0.74133570  0.37639916  0.74140631  1
  O  O374  1  0.74948742  0.88059375  0.24216243  1
  O  O375  1  0.74279240  0.87907140  0.74310884  1
  O  O376  1  0.24833277  0.11871879  0.26067079  1
  O  O377  1  0.25475730  0.12000178  0.75590032  1
  O  O378  1  0.25494421  0.61766403  0.25396570  1
  O  O379  1  0.25557856  0.61946678  0.75381553  1
  O  O380  1  0.75160769  0.11683294  0.25647276  1
  O  O381  1  0.75357979  0.11999067  0.75541683  1
  O  O382  1  0.75657960  0.61963933  0.25461207  1
  O  O383  1  0.75682294  0.62202780  0.74988620  1
  O  O384  1  0.36207087  0.12528826  0.37563845  1
  O  O385  1  0.36954455  0.11878934  0.87118792  1
  O  O386  1  0.36803270  0.62417182  0.36915251  1
  O  O387  1  0.37699586  0.61236989  0.87522008  1
  O  O388  1  0.86825857  0.11826315  0.37398877  1
  O  O389  1  0.86788976  0.12072960  0.87011409  1
  O  O390  1  0.87069542  0.61919695  0.36897653  1
  O  O391  1  0.87436246  0.61493117  0.86888090  1
  O  O392  1  0.12821204  0.38369165  0.12807508  1
  O  O393  1  0.13167263  0.37980062  0.63032268  1
  O  O394  1  0.13143856  0.87454779  0.13147559  1
  O  O395  1  0.13175545  0.88138676  0.63127419  1
  O  O396  1  0.63144944  0.38074274  0.12645425  1
  O  O397  1  0.63289040  0.37344997  0.63226621  1
  O  O398  1  0.63185282  0.88140096  0.12331284  1
  O  O399  1  0.63423980  0.87713955  0.63252984  1
  O  O400  1  0.11790730  0.25221670  0.25707420  1
  O  O401  1  0.12544315  0.25927811  0.75541898  1
  O  O402  1  0.11978660  0.75375181  0.25517044  1
  O  O403  1  0.12060081  0.75559101  0.75439553  1
  O  O404  1  0.61711621  0.24996578  0.25828993  1
  O  O405  1  0.62437421  0.26006215  0.75685371  1
  O  O406  1  0.62056801  0.75300231  0.25277849  1
  O  O407  1  0.62285022  0.76310535  0.74991184  1
  O  O408  1  0.38418482  0.24760733  0.24612213  1
  O  O409  1  0.37744848  0.24240378  0.74842953  1
  O  O410  1  0.37614504  0.74276375  0.24247224  1
  O  O411  1  0.37697535  0.74918942  0.73640316  1
  O  O412  1  0.88153686  0.24808591  0.24294113  1
  O  O413  1  0.87403202  0.24597835  0.74107159  1
  O  O414  1  0.88073496  0.74399968  0.24353222  1
  O  O415  1  0.88194386  0.74315656  0.74912098  1
  O  O416  1  0.38323101  0.49316212  0.49946386  1
  O  O417  1  0.38081411  0.49332159  0.99440662  1
  O  O418  1  0.38804748  1.00001492  0.49855374  1
  O  O419  1  0.37982923  0.99397020  0.99524512  1
  O  O420  1  0.88107735  0.49556788  0.49394004  1
  O  O421  1  0.87957181  0.49575491  0.99273956  1
  O  O422  1  0.88144058  0.99813675  0.49351687  1
  O  O423  1  0.87884389  0.99486161  0.99439392  1
  O  O424  1  0.11808234  0.00680236  0.00078302  1
  O  O425  1  0.11964410  0.00561226  0.50624931  1
  O  O426  1  0.12008947  0.50502430  0.00406858  1
  O  O427  1  0.11956290  0.50598336  0.50480456  1
  O  O428  1  0.61981529  0.00463531  0.00463206  1
  O  O429  1  0.61399245  0.00797488  0.50146643  1
  O  O430  1  0.61958234  0.50309932  0.00549240  1
  O  O431  1  0.61572885  0.50522944  0.50256581  1
  O  O432  1  0.37369449  0.36630175  0.11885226  1
  O  O433  1  0.36662881  0.37721076  0.61833932  1
  O  O434  1  0.36946433  0.86957350  0.11930237  1
  O  O435  1  0.37010246  0.86763045  0.62351254  1
  O  O436  1  0.86874958  0.36983635  0.11873448  1
  O  O437  1  0.86832846  0.36943725  0.62150473  1
  O  O438  1  0.86968362  0.86844561  0.11878731  1
  O  O439  1  0.86142780  0.87369973  0.62462985  1
  O  O440  1  0.13301153  0.12976638  0.38090381  1
  O  O441  1  0.13061763  0.13040535  0.88019354  1
  O  O442  1  0.13030432  0.63119211  0.38036265  1
  O  O443  1  0.12628222  0.63091298  0.88125512  1
  O  O444  1  0.63005774  0.13349902  0.37965617  1
  O  O445  1  0.63004181  0.12860945  0.88011694  1
  O  O446  1  0.63354816  0.62636987  0.38220248  1
  O  O447  1  0.62471802  0.62486543  0.88201806  1
