# generated using pymatgen
data_V3Zn3O8
_symmetry_space_group_name_H-M   'P 1'
_cell_length_a   17.08881173
_cell_length_b   17.08944467
_cell_length_c   17.08882911
_cell_angle_alpha   90.00414479
_cell_angle_beta   90.00314996
_cell_angle_gamma   90.00624948
_symmetry_Int_Tables_number   1
_chemical_formula_structural   V3Zn3O8
_chemical_formula_sum   'V96 Zn96 O256'
_cell_volume   4990.59259275
_cell_formula_units_Z   32
loop_
 _symmetry_equiv_pos_site_id
 _symmetry_equiv_pos_as_xyz
  1  'x, y, z'
loop_
 _atom_site_type_symbol
 _atom_site_label
 _atom_site_symmetry_multiplicity
 _atom_site_fract_x
 _atom_site_fract_y
 _atom_site_fract_z
 _atom_site_occupancy
  V  V0  1  0.50018530  0.62514698  0.62417221  1
  V  V1  1  -0.00056617  0.87336588  0.37558055  1
  V  V2  1  0.62478887  0.24931998  0.87490111  1
  V  V3  1  0.49973952  0.74957349  0.74982769  1
  V  V4  1  0.87446053  0.00048366  0.37405584  1
  V  V5  1  0.37456693  0.62465631  0.74952305  1
  V  V6  1  0.24928906  0.87705217  0.12676009  1
  V  V7  1  0.62417001  0.75053539  0.37524862  1
  V  V8  1  0.24836558  0.62662221  0.37486031  1
  V  V9  1  0.00055463  0.75019309  0.75160010  1
  V  V10  1  0.74915630  0.12446203  0.87506808  1
  V  V11  1  0.12508081  0.37441498  0.74988439  1
  V  V12  1  0.24922696  0.24964053  0.49903967  1
  V  V13  1  0.24955158  0.75047118  0.50045334  1
  V  V14  1  0.25005360  0.12555835  0.87640307  1
  V  V15  1  0.50082347  0.24935238  0.74975256  1
  V  V16  1  0.87501975  0.24985954  0.12407350  1
  V  V17  1  0.50054107  0.12449116  0.62507735  1
  V  V18  1  0.75072387  0.24974859  0.49954335  1
  V  V19  1  0.37468680  0.75111622  0.12560806  1
  V  V20  1  0.37434511  0.75030750  0.62483674  1
  V  V21  1  0.00047652  0.37467743  0.87521785  1
  V  V22  1  0.24954911  0.50123723  0.24930985  1
  V  V23  1  0.87454133  0.49997194  0.37451011  1
  V  V24  1  0.49952820  0.87515170  0.37660485  1
  V  V25  1  0.00004613  0.62394936  0.62525266  1
  V  V26  1  0.62576738  0.12563621  0.49944698  1
  V  V27  1  0.75074004  0.87515159  0.62469952  1
  V  V28  1  0.37490342  0.25056413  0.12405802  1
  V  V29  1  0.87494647  0.74853672  0.12656258  1
  V  V30  1  0.37547364  0.25004248  0.62481445  1
  V  V31  1  0.50197551  0.62332909  0.12295025  1
  V  V32  1  0.62557854  0.00031506  0.62542025  1
  V  V33  1  0.37439628  0.62627532  0.25031940  1
  V  V34  1  0.50049894  -0.00136752  0.00046811  1
  V  V35  1  0.87554845  0.12439011  0.24955347  1
  V  V36  1  0.12495184  0.49991886  0.62360896  1
  V  V37  1  0.62558306  0.87470742  0.75056560  1
  V  V38  1  0.50022588  0.50011136  0.49922544  1
  V  V39  1  0.25023155  0.37527912  0.62439591  1
  V  V40  1  0.74841183  0.74752407  0.00070715  1
  V  V41  1  0.12558461  0.00001342  0.12648413  1
  V  V42  1  0.75026707  0.37537212  0.12417782  1
  V  V43  1  0.74953491  0.87421299  0.12661308  1
  V  V44  1  0.50009153  0.87360724  0.87526150  1
  V  V45  1  0.87522920  -0.00016131  0.87669057  1
  V  V46  1  0.62610931  0.24956399  0.37478322  1
  V  V47  1  0.87459560  0.87510165  0.49987522  1
  V  V48  1  0.24966769  -0.00082483  0.75060245  1
  V  V49  1  0.12440933  0.37587802  0.24921931  1
  V  V50  1  0.49915216  -0.00049414  0.50003687  1
  V  V51  1  0.62440862  -0.00043440  0.12645989  1
  V  V52  1  0.37613632  0.49925659  0.87522728  1
  V  V53  1  0.00096202  0.25116105  0.24921931  1
  V  V54  1  0.12424233  0.00070016  0.62662874  1
  V  V55  1  0.37419112  0.50075405  0.37487475  1
  V  V56  1  0.62592030  0.37561610  0.24808681  1
  V  V57  1  -0.00013474  0.12558968  0.62603318  1
  V  V58  1  0.25089829  0.50005329  0.74902473  1
  V  V59  1  0.49971106  0.75110711  0.25171848  1
  V  V60  1  0.37469241  0.37508779  0.49981714  1
  V  V61  1  0.00042781  0.24999338  0.74936355  1
  V  V62  1  0.87538868  0.24967855  0.62433871  1
  V  V63  1  0.00065380  0.12474053  0.12429862  1
  V  V64  1  0.74998343  0.75062442  0.50030494  1
  V  V65  1  0.75063918  0.00014661  0.75141981  1
  V  V66  1  0.37553721  -0.00042614  0.87559930  1
  V  V67  1  0.62539673  0.74854843  0.87571752  1
  V  V68  1  0.74957833  0.49922260  0.24970009  1
  V  V69  1  0.50015637  0.37550935  0.37441344  1
  V  V70  1  0.49998297  0.37547283  0.87455894  1
  V  V71  1  0.62642575  0.49880054  0.62513646  1
  V  V72  1  0.75006989  0.62459656  0.87416472  1
  V  V73  1  0.12668729  0.12575272  -0.00053425  1
  V  V74  1  0.00009579  0.50016497  0.49955243  1
  V  V75  1  0.62495092  0.62478312  0.49999943  1
  V  V76  1  0.12410475  0.75090339  0.37562856  1
  V  V77  1  0.00041825  0.62462797  0.12380154  1
  V  V78  1  0.25127479  0.37575851  0.12384730  1
  V  V79  1  0.37477968  0.87589484  0.50093624  1
  V  V80  1  0.00076144  0.37510126  0.37344020  1
  V  V81  1  0.12490560  0.50167826  0.12303730  1
  V  V82  1  0.87533102  0.37518946  -0.00132148  1
  V  V83  1  0.37450334  0.87491342  0.00074397  1
  V  V84  1  0.62454588  0.12438971  -0.00014272  1
  V  V85  1  0.87516072  0.37393311  0.49982464  1
  V  V86  1  0.37525728  0.12416414  0.75043167  1
  V  V87  1  0.24694381  0.74862796  -0.00133694  1
  V  V88  1  0.12460481  0.87579134  0.25097274  1
  V  V89  1  0.87423589  0.62359997  0.75068500  1
  V  V90  1  0.49914298  0.24791105  0.24866797  1
  V  V91  1  0.62655054  0.37503281  0.74829129  1
  V  V92  1  0.12411324  0.87439398  0.75197416  1
  V  V93  1  0.75000448  0.62408772  0.37485087  1
  V  V94  1  -0.00083497  -0.00027523  -0.00032347  1
  V  V95  1  0.12545679  0.12514030  0.49850468  1
  Zn  Zn96  1  0.75055545  0.49782502  0.74977170  1
  Zn  Zn97  1  0.12858722  0.25043753  0.87634692  1
  Zn  Zn98  1  0.87449262  0.62361326  0.25030305  1
  Zn  Zn99  1  0.74996316  0.12465247  0.37244955  1
  Zn  Zn100  1  0.49798763  0.12369184  0.12529923  1
  Zn  Zn101  1  0.62585492  0.49950916  0.12087930  1
  Zn  Zn102  1  0.24771472  0.62442503  0.87470099  1
  Zn  Zn103  1  0.12516941  0.74669110  0.87528309  1
  Zn  Zn104  1  -0.00017688  -0.00051458  0.50198831  1
  Zn  Zn105  1  0.12431780  0.62375374  -0.00378288  1
  Zn  Zn106  1  0.62455397  0.62143877  -0.00203700  1
  Zn  Zn107  1  0.75155437  0.37612763  0.62585154  1
  Zn  Zn108  1  0.87525690  0.12551859  0.75000304  1
  Zn  Zn109  1  0.37412393  0.00338917  0.37300634  1
  Zn  Zn110  1  0.36978521  0.12398525  0.25183849  1
  Zn  Zn111  1  0.87491933  0.75094375  0.62484243  1
  Zn  Zn112  1  0.12369670  0.62590162  0.49928683  1
  Zn  Zn113  1  0.25123158  0.25158986  -0.00153824  1
  Zn  Zn114  1  -0.00153295  0.87398917  0.87804916  1
  Zn  Zn115  1  0.00243172  0.50076859  -0.00247286  1
  Zn  Zn116  1  0.74874763  0.00162596  0.24975603  1
  Zn  Zn117  1  0.74804792  0.25025958  -0.00053733  1
  Zn  Zn118  1  0.62381835  0.87617109  0.25227018  1
  Zn  Zn119  1  -0.00071784  0.74854535  0.25132409  1
  Zn  Zn120  1  0.25269903  0.12404284  0.37415532  1
  Zn  Zn121  1  0.87334292  0.49908843  0.87470101  1
  Zn  Zn122  1  0.25152982  0.00281382  0.25447675  1
  Zn  Zn123  1  0.87690998  0.87452743  0.00037570  1
  Zn  Zn124  1  0.50150512  0.49854912  0.00016458  1
  Zn  Zn125  1  0.24973063  0.87449273  0.62569669  1
  Zn  Zn126  1  0.12700010  0.24900582  0.37273044  1
  Zn  Zn127  1  0.37545168  0.37549627  -0.00064852  1
  Zn  Zn128  1  0.18887371  0.18765090  0.18795758  1
  Zn  Zn129  1  0.18732713  0.18778189  0.68771680  1
  Zn  Zn130  1  0.18540099  0.68977964  0.18732104  1
  Zn  Zn131  1  0.18743896  0.68628474  0.68642535  1
  Zn  Zn132  1  0.68924500  0.18710158  0.18678504  1
  Zn  Zn133  1  0.68973231  0.18787521  0.68712419  1
  Zn  Zn134  1  0.68570736  0.68642717  0.19023527  1
  Zn  Zn135  1  0.68814450  0.68786107  0.68697013  1
  Zn  Zn136  1  0.31062786  0.31178052  0.31247151  1
  Zn  Zn137  1  0.31255227  0.31212842  0.81188510  1
  Zn  Zn138  1  0.31189596  0.81591890  0.31408337  1
  Zn  Zn139  1  0.31185664  0.81255576  0.81316041  1
  Zn  Zn140  1  0.81294157  0.31197622  0.31211626  1
  Zn  Zn141  1  0.81139373  0.31031339  0.81118499  1
  Zn  Zn142  1  0.81167098  0.81229364  0.31145363  1
  Zn  Zn143  1  0.81360641  0.81272799  0.81408311  1
  Zn  Zn144  1  0.18634397  0.43780121  0.43674691  1
  Zn  Zn145  1  0.18879773  0.43729190  0.93879044  1
  Zn  Zn146  1  0.18919038  0.93863843  0.43764126  1
  Zn  Zn147  1  0.18636449  0.93775670  0.93796685  1
  Zn  Zn148  1  0.68828307  0.43579249  0.43739498  1
  Zn  Zn149  1  0.68714314  0.44015424  0.93639830  1
  Zn  Zn150  1  0.68774788  0.93799027  0.43766525  1
  Zn  Zn151  1  0.68893853  0.93588042  0.93988623  1
  Zn  Zn152  1  0.31226369  0.06440989  0.06508398  1
  Zn  Zn153  1  0.31084258  0.06129427  0.56287043  1
  Zn  Zn154  1  0.31403064  0.56347462  0.06163583  1
  Zn  Zn155  1  0.31171442  0.56384850  0.56142134  1
  Zn  Zn156  1  0.81161935  0.06268256  0.06113860  1
  Zn  Zn157  1  0.81265257  0.06363166  0.56149759  1
  Zn  Zn158  1  0.81294982  0.56115026  0.06085203  1
  Zn  Zn159  1  0.81281610  0.56215149  0.56374600  1
  Zn  Zn160  1  0.43675774  0.43758115  0.18827604  1
  Zn  Zn161  1  0.43927358  0.43731099  0.68765894  1
  Zn  Zn162  1  0.43622481  0.93769069  0.19051223  1
  Zn  Zn163  1  0.43760706  0.93666291  0.68685495  1
  Zn  Zn164  1  0.93702318  0.43886291  0.18636277  1
  Zn  Zn165  1  0.93777734  0.43700592  0.68668027  1
  Zn  Zn166  1  0.93900289  0.93654418  0.18877675  1
  Zn  Zn167  1  0.93702502  0.93869718  0.68825283  1
  Zn  Zn168  1  0.06177662  0.06130898  0.31292209  1
  Zn  Zn169  1  0.06190840  0.06341256  0.81422096  1
  Zn  Zn170  1  0.06183495  0.56371352  0.31046332  1
  Zn  Zn171  1  0.06410393  0.56174123  0.81366452  1
  Zn  Zn172  1  0.56070244  0.06256039  0.31379742  1
  Zn  Zn173  1  0.56282857  0.06169220  0.81314918  1
  Zn  Zn174  1  0.56342878  0.56277700  0.31050463  1
  Zn  Zn175  1  0.56320871  0.56190455  0.81075977  1
  Zn  Zn176  1  0.43726155  0.18651548  0.43657637  1
  Zn  Zn177  1  0.43860229  0.18700117  0.93938922  1
  Zn  Zn178  1  0.43621469  0.68887664  0.43797768  1
  Zn  Zn179  1  0.43503317  0.68661379  0.93775374  1
  Zn  Zn180  1  0.93992980  0.18741661  0.43678253  1
  Zn  Zn181  1  0.93796757  0.18757902  0.93681981  1
  Zn  Zn182  1  0.93641511  0.68716108  0.43831611  1
  Zn  Zn183  1  0.93602529  0.68804222  0.93842536  1
  Zn  Zn184  1  0.06454811  0.31136927  0.06183704  1
  Zn  Zn185  1  0.06222580  0.31202029  0.56195170  1
  Zn  Zn186  1  0.06209609  0.81402459  0.06355966  1
  Zn  Zn187  1  0.06199177  0.81265598  0.56335274  1
  Zn  Zn188  1  0.56172728  0.31455354  0.06050773  1
  Zn  Zn189  1  0.56345579  0.31258115  0.56215706  1
  Zn  Zn190  1  0.56308008  0.81068592  0.06251643  1
  Zn  Zn191  1  0.56258976  0.81285340  0.56253530  1
  O  O192  1  0.11902203  0.11967960  0.11941855  1
  O  O193  1  0.11975078  0.12060499  0.61858517  1
  O  O194  1  0.11569633  0.62093883  0.12395567  1
  O  O195  1  0.11799168  0.61722029  0.62386424  1
  O  O196  1  0.62469313  0.11450352  0.11938449  1
  O  O197  1  0.61963459  0.11974526  0.62032108  1
  O  O198  1  0.61253138  0.62474794  0.12473587  1
  O  O199  1  0.61908782  0.62038741  0.61927107  1
  O  O200  1  0.37998585  0.38128312  0.38009208  1
  O  O201  1  0.38118082  0.38449660  0.87156355  1
  O  O202  1  0.38318551  0.87451691  0.38447811  1
  O  O203  1  0.38088605  0.88047555  0.88009803  1
  O  O204  1  0.88131893  0.38026702  0.38001687  1
  O  O205  1  0.88285354  0.37337984  0.88193193  1
  O  O206  1  0.87855546  0.88163832  0.37886524  1
  O  O207  1  0.87573296  0.88485805  0.87875242  1
  O  O208  1  0.25464204  0.00340234  0.37405144  1
  O  O209  1  0.25688453  0.00464302  0.86997412  1
  O  O210  1  0.25515618  0.50578241  0.36932419  1
  O  O211  1  0.26046969  0.49872242  0.86715710  1
  O  O212  1  0.76188759  0.00011921  0.37211070  1
  O  O213  1  0.75463320  0.00420540  0.87118788  1
  O  O214  1  0.75497429  0.50435142  0.37056759  1
  O  O215  1  0.75339156  0.50894911  0.87009586  1
  O  O216  1  0.24641588  0.49672105  0.13086677  1
  O  O217  1  0.24587271  0.49416817  0.62885770  1
  O  O218  1  0.24239793  0.99276623  0.12435334  1
  O  O219  1  0.24274284  0.99827040  0.63391183  1
  O  O220  1  0.74997539  0.49313859  0.13173548  1
  O  O221  1  0.74161311  0.49797036  0.62707140  1
  O  O222  1  0.74157845  0.99072440  0.12398721  1
  O  O223  1  0.74435758  0.99527558  0.63052165  1
  O  O224  1  0.00467954  0.37095493  0.25358456  1
  O  O225  1  0.00479530  0.37051586  0.75692179  1
  O  O226  1  0.00630697  0.87163266  0.25726358  1
  O  O227  1  0.00681938  0.86616357  0.75039536  1
  O  O228  1  0.50524498  0.36749107  0.25523634  1
  O  O229  1  0.50573430  0.36781397  0.75412757  1
  O  O230  1  0.50103391  0.86728971  0.25770866  1
  O  O231  1  0.50563977  0.86934755  0.75559242  1
  O  O232  1  0.50151663  0.14046801  0.24778236  1
  O  O233  1  0.49502752  0.12924107  0.74493730  1
  O  O234  1  0.49367224  0.63090028  0.24361263  1
  O  O235  1  0.49457192  0.63093094  0.74318837  1
  O  O236  1  0.99570759  0.13098310  0.24358108  1
  O  O237  1  0.99994608  0.13230565  0.74373184  1
  O  O238  1  0.99633374  0.62715603  0.23715225  1
  O  O239  1  0.99345995  0.63154561  0.74621715  1
  O  O240  1  0.37594700  0.25215496  0.01215692  1
  O  O241  1  0.37085622  0.25644524  0.50651276  1
  O  O242  1  0.36739278  0.75628073  0.00546146  1
  O  O243  1  0.37012863  0.75534917  0.50610359  1
  O  O244  1  0.87468106  0.26004089  0.00525152  1
  O  O245  1  0.87115301  0.25464548  0.50401469  1
  O  O246  1  0.86812239  0.75149331  0.01155902  1
  O  O247  1  0.86721902  0.75686797  0.50156801  1
  O  O248  1  0.13066116  0.24101437  0.50118258  1
  O  O249  1  0.12890297  0.24085678  0.99838414  1
  O  O250  1  0.13111105  0.74892020  0.49423065  1
  O  O251  1  0.13641039  0.75129271  0.99944000  1
  O  O252  1  0.62950099  0.24529343  0.49429969  1
  O  O253  1  0.62425493  0.24296147  0.99257667  1
  O  O254  1  0.62975235  0.74398289  0.49532087  1
  O  O255  1  0.63055489  0.74698868  0.99263717  1
  O  O256  1  0.49292713  0.25202337  0.13399021  1
  O  O257  1  0.49484488  0.24409998  0.62968461  1
  O  O258  1  0.49421546  0.74352885  0.13078817  1
  O  O259  1  0.49544555  0.74432506  0.63037004  1
  O  O260  1  0.99437575  0.24460994  0.12997814  1
  O  O261  1  0.99484971  0.24548096  0.63006167  1
  O  O262  1  0.99082149  0.74279280  0.12513382  1
  O  O263  1  0.99874284  0.74400484  0.63639600  1
  O  O264  1  0.00182501  0.25753879  0.36707453  1
  O  O265  1  0.00179210  0.26026948  0.86883583  1
  O  O266  1  0.00515487  0.75515218  0.37408610  1
  O  O267  1  0.00126670  0.75122631  0.86299426  1
  O  O268  1  0.50541099  0.25671905  0.36747340  1
  O  O269  1  0.50452644  0.25410227  0.86822888  1
  O  O270  1  0.50506018  0.75443780  0.37163164  1
  O  O271  1  0.50401028  0.75458820  0.86937728  1
  O  O272  1  0.23928714  0.13173187  0.50393520  1
  O  O273  1  0.24439607  0.12531111  0.99331975  1
  O  O274  1  0.24862064  0.63158486  0.49230404  1
  O  O275  1  0.25044896  0.63822975  1.00061836  1
  O  O276  1  0.74282183  0.13150767  0.49743684  1
  O  O277  1  0.74204099  0.12666634  0.99326519  1
  O  O278  1  0.74411205  0.63021434  0.49485787  1
  O  O279  1  0.74966100  0.63082261  0.99253157  1
  O  O280  1  0.25456501  0.37246280  0.00837358  1
  O  O281  1  0.25556390  0.37113715  0.50566017  1
  O  O282  1  0.25522740  0.86825616  0.00553252  1
  O  O283  1  0.25627453  0.86762367  0.50373470  1
  O  O284  1  0.75994035  0.37334009  0.00380431  1
  O  O285  1  0.75755238  0.36765980  0.50067501  1
  O  O286  1  0.75064151  0.86752820  0.01258759  1
  O  O287  1  0.75449705  0.86990110  0.50544044  1
  O  O288  1  0.13094813  0.49552330  0.24344959  1
  O  O289  1  0.13077937  0.49358246  0.74317124  1
  O  O290  1  0.12377708  0.99292203  0.24299551  1
  O  O291  1  0.12924076  0.99277634  0.74674501  1
  O  O292  1  0.63128280  0.49238260  0.24871563  1
  O  O293  1  0.62472022  0.49310235  0.74196084  1
  O  O294  1  0.62547915  0.99874943  0.23868101  1
  O  O295  1  0.62981608  0.99365297  0.74528706  1
  O  O296  1  0.37263915  0.00472275  0.25239483  1
  O  O297  1  0.37103126  0.00445863  0.75577755  1
  O  O298  1  0.36910159  0.50602310  0.25626435  1
  O  O299  1  0.37074064  0.50459504  0.75525727  1
  O  O300  1  0.87522328  0.00526583  0.25866860  1
  O  O301  1  0.86796294  0.00172190  0.75831676  1
  O  O302  1  0.86745679  0.49961487  0.25717534  1
  O  O303  1  0.87565990  0.51320500  0.75026793  1
  O  O304  1  0.11798212  0.37542776  0.36691453  1
  O  O305  1  0.11681340  0.37421879  0.86902188  1
  O  O306  1  0.11856284  0.87021082  0.37141411  1
  O  O307  1  0.12221011  0.87400490  0.86200180  1
  O  O308  1  0.61910452  0.36939271  0.36922285  1
  O  O309  1  0.61964150  0.36881124  0.86839009  1
  O  O310  1  0.61860026  0.86820832  0.37546441  1
  O  O311  1  0.61997418  0.86925232  0.87003943  1
  O  O312  1  0.37821960  0.13778335  0.12776931  1
  O  O313  1  0.38068799  0.13015614  0.63088671  1
  O  O314  1  0.38209037  0.63112778  0.13150804  1
  O  O315  1  0.38147576  0.62978944  0.62937910  1
  O  O316  1  0.88097177  0.12965192  0.12882699  1
  O  O317  1  0.88205826  0.13114638  0.62569368  1
  O  O318  1  0.88174382  0.63255536  0.12541140  1
  O  O319  1  0.88088568  0.62760323  0.63431886  1
  O  O320  1  0.26089633  0.25779347  0.12630390  1
  O  O321  1  0.25667590  0.25613114  0.62045186  1
  O  O322  1  0.25519477  0.75628052  0.11777456  1
  O  O323  1  0.25711890  0.75002726  0.61897922  1
  O  O324  1  0.75740460  0.25717635  0.12246983  1
  O  O325  1  0.75713927  0.25121452  0.61752617  1
  O  O326  1  0.75524408  0.75476699  0.12182019  1
  O  O327  1  0.75014011  0.75755398  0.61815081  1
  O  O328  1  0.24610217  0.24989345  0.38469468  1
  O  O329  1  0.25034134  0.24150710  0.87635202  1
  O  O330  1  0.24453199  0.74553016  0.38067089  1
  O  O331  1  0.25058244  0.74913112  0.88689339  1
  O  O332  1  0.74372541  0.24868538  0.38071898  1
  O  O333  1  0.74201975  0.24246952  0.87572542  1
  O  O334  1  0.74434820  0.74472818  0.38042376  1
  O  O335  1  0.74508461  0.74522513  0.88058781  1
  O  O336  1  0.00586380  0.12005270  0.00574238  1
  O  O337  1  0.00988162  0.12500599  0.50748990  1
  O  O338  1  0.00028009  0.62357511  0.01143032  1
  O  O339  1  0.00004614  0.61789178  0.50710014  1
  O  O340  1  0.50692371  0.11591104  0.00155152  1
  O  O341  1  0.50632910  0.12046109  0.50705685  1
  O  O342  1  0.49892382  0.62563877  0.01240065  1
  O  O343  1  0.50486112  0.61969335  0.50449358  1
  O  O344  1  0.49444088  0.38029010  0.49411086  1
  O  O345  1  0.49600394  0.37794420  0.98986055  1
  O  O346  1  0.49522614  0.88004170  0.49651003  1
  O  O347  1  0.49433642  0.87835396  0.99433502  1
  O  O348  1  0.99495329  0.38028660  0.49368968  1
  O  O349  1  0.99266783  0.37365553  0.99149533  1
  O  O350  1  0.99269473  0.87639577  0.49422723  1
  O  O351  1  0.99811503  0.88346904  0.99822677  1
  O  O352  1  0.49420245  0.49556974  0.37941637  1
  O  O353  1  0.48963787  0.49456709  0.87113384  1
  O  O354  1  0.50082918  0.99276711  0.38380574  1
  O  O355  1  0.49517023  0.99285575  0.87998970  1
  O  O356  1  0.99443212  0.49522908  0.37921048  1
  O  O357  1  0.99733705  0.48613065  0.87499255  1
  O  O358  1  0.98876025  0.99330281  0.37729637  1
  O  O359  1  0.99170949  1.00028778  0.88123493  1
  O  O360  1  0.00484720  0.00579338  0.11972795  1
  O  O361  1  0.00615586  0.00710651  0.62468690  1
  O  O362  1  0.00528154  0.50913502  0.12376448  1
  O  O363  1  0.00560757  0.50405805  0.61942028  1
  O  O364  1  0.50985709  -0.00165687  0.11901502  1
  O  O365  1  0.50673416  0.00522230  0.62132612  1
  O  O366  1  0.49872155  0.51223459  0.12573997  1
  O  O367  1  0.50483074  0.50571634  0.61816479  1
  O  O368  1  0.24469794  0.38246217  0.24453124  1
  O  O369  1  0.24537679  0.37997417  0.74292482  1
  O  O370  1  0.24244056  0.87526162  0.24296417  1
  O  O371  1  0.24088588  0.88004764  0.74954921  1
  O  O372  1  0.74521851  0.37932661  0.24430826  1
  O  O373  1  0.74224472  0.37640796  0.74709518  1
  O  O374  1  0.74637691  0.87618247  0.23722670  1
  O  O375  1  0.74416272  0.87978982  0.74516546  1
  O  O376  1  0.25004713  0.12262569  0.25492488  1
  O  O377  1  0.25639500  0.11916652  0.75510312  1
  O  O378  1  0.25540075  0.62109303  0.25449217  1
  O  O379  1  0.25747675  0.61771475  0.74966532  1
  O  O380  1  0.75963629  0.12238397  0.25174729  1
  O  O381  1  0.75007749  0.11708261  0.75683260  1
  O  O382  1  0.75036538  0.61768470  0.25771063  1
  O  O383  1  0.76033047  0.62759800  0.75497987  1
  O  O384  1  0.37277076  0.12315478  0.37228171  1
  O  O385  1  0.37177932  0.11834444  0.86969831  1
  O  O386  1  0.36934915  0.62034944  0.36980523  1
  O  O387  1  0.37446344  0.61542779  0.86731139  1
  O  O388  1  0.87650266  0.11552896  0.36956859  1
  O  O389  1  0.86801182  0.11754632  0.87406932  1
  O  O390  1  0.86776281  0.61817584  0.37413075  1
  O  O391  1  0.87013909  0.62456343  0.86601986  1
  O  O392  1  0.13020179  0.38153408  0.13031125  1
  O  O393  1  0.13040023  0.38047609  0.62963193  1
  O  O394  1  0.12947569  0.88066332  0.13127733  1
  O  O395  1  0.12489913  0.88063818  0.63707335  1
  O  O396  1  0.63176621  0.37548019  0.13065956  1
  O  O397  1  0.62514514  0.38100183  0.63027628  1
  O  O398  1  0.63227587  0.88241223  0.12544363  1
  O  O399  1  0.63010605  0.88067716  0.63074879  1
  O  O400  1  0.11767834  0.25856321  0.24900208  1
  O  O401  1  0.11890733  0.25777334  0.75058064  1
  O  O402  1  0.12319407  0.75770720  0.25759560  1
  O  O403  1  0.11762609  0.75765049  0.74963415  1
  O  O404  1  0.61793582  0.25567605  0.25379638  1
  O  O405  1  0.61891658  0.25384333  0.75455184  1
  O  O406  1  0.61752778  0.75109243  0.25846497  1
  O  O407  1  0.61923682  0.75583717  0.75486654  1
  O  O408  1  0.38521944  0.25333607  0.24172363  1
  O  O409  1  0.38109254  0.24384806  0.74390761  1
  O  O410  1  0.37937867  0.74539385  0.24533956  1
  O  O411  1  0.38063514  0.74520710  0.74532557  1
  O  O412  1  0.88155832  0.24513854  0.24368958  1
  O  O413  1  0.88226499  0.24815917  0.74279198  1
  O  O414  1  0.87496299  0.74703286  0.23736631  1
  O  O415  1  0.88352088  0.74177767  0.74898114  1
  O  O416  1  0.38050479  0.49483003  0.49453962  1
  O  O417  1  0.37670608  0.50004785  0.98603474  1
  O  O418  1  0.38342222  0.99305399  0.50372733  1
  O  O419  1  0.38055588  0.99441595  0.99557471  1
  O  O420  1  0.88053973  0.49422295  0.49445844  1
  O  O421  1  0.87907536  0.48592555  0.99820509  1
  O  O422  1  0.87542484  0.99444363  0.49015709  1
  O  O423  1  0.88084330  0.99928415  0.99372975  1
  O  O424  1  0.11907009  0.00559446  0.00595549  1
  O  O425  1  0.12356117  0.00904598  0.50801868  1
  O  O426  1  0.12314382  0.50247784  0.00835149  1
  O  O427  1  0.11809082  0.50105393  0.50611034  1
  O  O428  1  0.61991294  0.00304648  0.00781647  1
  O  O429  1  0.62011285  0.00522240  0.50673370  1
  O  O430  1  0.61943597  0.50449793  0.00280881  1
  O  O431  1  0.61894443  0.50513452  0.50361963  1
  O  O432  1  0.37005885  0.36770934  0.12502532  1
  O  O433  1  0.37075676  0.37012931  0.61960062  1
  O  O434  1  0.37027855  0.86947818  0.11928730  1
  O  O435  1  0.37437892  0.86725631  0.61992203  1
  O  O436  1  0.87162127  0.36966444  0.11683599  1
  O  O437  1  0.87564423  0.36824571  0.61724294  1
  O  O438  1  0.86660726  0.86649520  0.12493492  1
  O  O439  1  0.86797270  0.87493172  0.61881700  1
  O  O440  1  0.12265080  0.12620056  0.38916855  1
  O  O441  1  0.13250748  0.12558144  0.88139170  1
  O  O442  1  0.13101124  0.63174907  0.37514197  1
  O  O443  1  0.12983149  0.62793819  0.87844969  1
  O  O444  1  0.62593389  0.13155037  0.38161500  1
  O  O445  1  0.62899590  0.12897548  0.88003367  1
  O  O446  1  0.62953362  0.62990907  0.38150994  1
  O  O447  1  0.63142727  0.63259288  0.87252968  1
