# generated using pymatgen
data_V3Zn3O8
_symmetry_space_group_name_H-M   'P 1'
_cell_length_a   17.08983543
_cell_length_b   17.09060682
_cell_length_c   17.09104836
_cell_angle_alpha   90.01219751
_cell_angle_beta   89.99289884
_cell_angle_gamma   89.99110133
_symmetry_Int_Tables_number   1
_chemical_formula_structural   V3Zn3O8
_chemical_formula_sum   'V96 Zn96 O256'
_cell_volume   4991.87898393
_cell_formula_units_Z   32
loop_
 _symmetry_equiv_pos_site_id
 _symmetry_equiv_pos_as_xyz
  1  'x, y, z'
loop_
 _atom_site_type_symbol
 _atom_site_label
 _atom_site_symmetry_multiplicity
 _atom_site_fract_x
 _atom_site_fract_y
 _atom_site_fract_z
 _atom_site_occupancy
  V  V0  1  0.00060454  0.62469861  0.12447660  1
  V  V1  1  -0.00080050  0.50058715  0.49934737  1
  V  V2  1  0.62338628  0.25259782  0.87434353  1
  V  V3  1  0.25222871  0.12469698  0.87621377  1
  V  V4  1  0.37467039  0.25005927  0.62734185  1
  V  V5  1  0.62487472  0.12502727  0.50127405  1
  V  V6  1  0.12506937  0.75010367  0.87439264  1
  V  V7  1  0.87571530  -0.00018190  0.87568044  1
  V  V8  1  0.00104797  -0.00018871  0.00030536  1
  V  V9  1  0.87422069  0.50050477  0.37425758  1
  V  V10  1  0.25086106  0.37323251  0.12515510  1
  V  V11  1  -0.00031049  0.00010256  0.50026183  1
  V  V12  1  0.62533541  0.00004793  0.62637869  1
  V  V13  1  0.00062804  0.75080087  0.74969331  1
  V  V14  1  0.12534235  0.75004333  0.37497023  1
  V  V15  1  -0.00031188  0.62590113  0.62385019  1
  V  V16  1  0.62608085  0.74999193  0.87319049  1
  V  V17  1  0.87288559  0.37537331  0.49951373  1
  V  V18  1  0.49916413  -0.00029801  0.50063081  1
  V  V19  1  0.49918264  0.50132888  0.49995667  1
  V  V20  1  0.62460476  0.37497995  0.24880494  1
  V  V21  1  0.25057621  0.87411415  0.12463513  1
  V  V22  1  0.87667775  0.12606964  0.74963564  1
  V  V23  1  0.75153652  0.24986407  0.00218769  1
  V  V24  1  0.37504715  0.62501894  0.74963473  1
  V  V25  1  -0.00078751  0.37527267  0.37446616  1
  V  V26  1  0.87448029  0.75115190  0.62370598  1
  V  V27  1  0.12495730  0.00005133  0.12407397  1
  V  V28  1  0.24917076  0.12416582  0.37529532  1
  V  V29  1  0.74876076  0.62572045  0.37503998  1
  V  V30  1  0.12466007  0.25004342  0.37573928  1
  V  V31  1  0.00039117  0.74976795  0.24986403  1
  V  V32  1  -0.00172444  0.24886237  0.24938342  1
  V  V33  1  -0.00043314  0.87557057  0.37550414  1
  V  V34  1  0.37427114  0.12347995  0.25103331  1
  V  V35  1  -0.00043661  0.49917741  -0.00182524  1
  V  V36  1  0.87505842  0.87534209  0.49983517  1
  V  V37  1  0.74897886  0.49915504  0.24889443  1
  V  V38  1  0.87498356  0.12580760  0.25039830  1
  V  V39  1  0.87489775  0.62432844  0.24959944  1
  V  V40  1  0.25071016  0.62514830  0.37385018  1
  V  V41  1  0.12435176  0.37515772  0.24964034  1
  V  V42  1  0.74977289  0.87528303  0.62442822  1
  V  V43  1  0.37418837  0.75001372  0.62498959  1
  V  V44  1  0.87699393  0.37521189  -0.00158021  1
  V  V45  1  0.74942096  0.12429736  0.37558505  1
  V  V46  1  0.24961849  -0.00057095  0.25082932  1
  V  V47  1  0.74972910  0.50156230  0.74966605  1
  V  V48  1  0.75122275  0.74986403  -0.00046275  1
  V  V49  1  0.25016752  0.75142942  0.50090172  1
  V  V50  1  0.62509631  0.87389860  0.25077064  1
  V  V51  1  0.12417517  0.12563526  0.49980530  1
  V  V52  1  0.87446170  0.62528077  0.74883361  1
  V  V53  1  0.25075848  0.74888584  -0.00074048  1
  V  V54  1  -0.00127715  0.12620584  0.62608427  1
  V  V55  1  0.37497908  0.87634798  0.50082842  1
  V  V56  1  0.24853358  0.37533564  0.62485801  1
  V  V57  1  0.12560743  0.62407187  -0.00014925  1
  V  V58  1  0.49879012  0.62548558  0.62432748  1
  V  V59  1  0.62543176  0.62250442  0.00019958  1
  V  V60  1  0.62312414  0.24974992  0.37592057  1
  V  V61  1  0.62544847  -0.00031705  0.12574204  1
  V  V62  1  0.25163447  0.62378554  0.87439931  1
  V  V63  1  0.37401712  0.50031286  0.37391734  1
  V  V64  1  0.00112525  0.87437567  0.87455470  1
  V  V65  1  0.75007619  -0.00054192  0.75036409  1
  V  V66  1  0.50095607  0.87610239  0.87359356  1
  V  V67  1  0.37382155  0.37520838  0.49987657  1
  V  V68  1  0.75070902  0.12459445  0.87626751  1
  V  V69  1  0.50103521  0.75047161  0.24934395  1
  V  V70  1  0.49851093  0.37439993  0.37497115  1
  V  V71  1  0.49880676  0.12527677  0.12701790  1
  V  V72  1  0.25098478  0.00012591  0.74981846  1
  V  V73  1  0.37612773  0.87425254  -0.00042326  1
  V  V74  1  0.12488809  0.62591544  0.49914479  1
  V  V75  1  0.37671598  0.37548774  -0.00088389  1
  V  V76  1  0.12519240  0.87438611  0.24940179  1
  V  V77  1  0.74726326  0.37575645  0.62569708  1
  V  V78  1  0.37543639  0.62502248  0.24943008  1
  V  V79  1  0.12459543  0.49946303  0.62454851  1
  V  V80  1  0.87576281  0.87479106  0.00039129  1
  V  V81  1  0.75085341  0.87538678  0.12582952  1
  V  V82  1  0.49975001  0.12699239  0.62690443  1
  V  V83  1  0.62431579  0.74965759  0.37409054  1
  V  V84  1  0.24921963  0.50044001  0.74935549  1
  V  V85  1  0.50141337  0.62412220  0.12286597  1
  V  V86  1  0.37581961  0.74904692  0.12448284  1
  V  V87  1  0.50110369  -0.00053383  0.00087519  1
  V  V88  1  0.87589022  0.74985921  0.12470859  1
  V  V89  1  0.12522554  0.00086452  0.62624965  1
  V  V90  1  0.75093079  0.00050969  0.25110059  1
  V  V91  1  0.12507313  0.12387127  0.00043493  1
  V  V92  1  0.62368532  0.62554289  0.49912679  1
  V  V93  1  0.12264731  0.25125431  0.87342434  1
  V  V94  1  0.74934909  0.25056703  0.50133286  1
  V  V95  1  0.12485689  0.49913270  0.12493777  1
  Zn  Zn96  1  0.62501013  0.87456204  0.74834523  1
  Zn  Zn97  1  0.87664723  0.24905630  0.12526138  1
  Zn  Zn98  1  0.87562013  0.25044688  0.62662416  1
  Zn  Zn99  1  0.25002274  0.50005197  0.25015755  1
  Zn  Zn100  1  0.62142394  0.37842786  0.75150963  1
  Zn  Zn101  1  0.49875165  0.37716342  0.87240212  1
  Zn  Zn102  1  0.49763210  0.24951643  0.25123678  1
  Zn  Zn103  1  0.75059403  0.37507904  0.12536712  1
  Zn  Zn104  1  0.62534224  0.12531844  0.00166882  1
  Zn  Zn105  1  0.50085867  0.49753955  -0.00189969  1
  Zn  Zn106  1  0.87507077  0.00026012  0.37567214  1
  Zn  Zn107  1  -0.00046272  0.12576257  0.12493633  1
  Zn  Zn108  1  0.87735804  0.50116241  0.87328595  1
  Zn  Zn109  1  0.12600991  0.87460874  0.74919031  1
  Zn  Zn110  1  0.37604861  -0.00078227  0.37610735  1
  Zn  Zn111  1  0.25098020  0.24854924  0.00050700  1
  Zn  Zn112  1  0.62200607  0.50148560  0.62550320  1
  Zn  Zn113  1  0.49995395  0.75010215  0.74847772  1
  Zn  Zn114  1  0.24842114  0.24965668  0.50030789  1
  Zn  Zn115  1  0.75212777  0.62387527  0.87479560  1
  Zn  Zn116  1  -0.00185234  0.25394069  0.74804777  1
  Zn  Zn117  1  0.37765065  0.00186408  0.87435771  1
  Zn  Zn118  1  0.00112521  0.37691115  0.87095721  1
  Zn  Zn119  1  0.24873874  0.87522310  0.62663686  1
  Zn  Zn120  1  0.37885565  0.12643598  0.75326373  1
  Zn  Zn121  1  0.37477720  0.24949672  0.12614181  1
  Zn  Zn122  1  0.74908286  0.75036209  0.49961156  1
  Zn  Zn123  1  0.12198541  0.37468727  0.74915965  1
  Zn  Zn124  1  0.49924473  0.87634422  0.37449807  1
  Zn  Zn125  1  0.37826579  0.49954721  0.87437645  1
  Zn  Zn126  1  0.62528476  0.49694742  0.12241700  1
  Zn  Zn127  1  0.50161627  0.25255732  0.75172333  1
  Zn  Zn128  1  0.18642145  0.18779753  0.18861581  1
  Zn  Zn129  1  0.18774292  0.18718134  0.68899909  1
  Zn  Zn130  1  0.18885479  0.68725712  0.18714936  1
  Zn  Zn131  1  0.18789800  0.68707727  0.68748480  1
  Zn  Zn132  1  0.68657595  0.18786213  0.18803719  1
  Zn  Zn133  1  0.68871354  0.18805043  0.68981254  1
  Zn  Zn134  1  0.68814736  0.68713849  0.18691456  1
  Zn  Zn135  1  0.68675569  0.68741092  0.68546137  1
  Zn  Zn136  1  0.31186155  0.30965219  0.31080721  1
  Zn  Zn137  1  0.30925240  0.31390033  0.81199803  1
  Zn  Zn138  1  0.31431896  0.81290627  0.31397234  1
  Zn  Zn139  1  0.31353956  0.81227733  0.81191232  1
  Zn  Zn140  1  0.81089072  0.31082067  0.31357219  1
  Zn  Zn141  1  0.81199716  0.31239060  0.81312451  1
  Zn  Zn142  1  0.81231605  0.81227834  0.31350829  1
  Zn  Zn143  1  0.81309454  0.81318796  0.81113621  1
  Zn  Zn144  1  0.18809622  0.43753718  0.43782880  1
  Zn  Zn145  1  0.18979671  0.43689397  0.93729665  1
  Zn  Zn146  1  0.18760664  0.93816616  0.43834115  1
  Zn  Zn147  1  0.18797771  0.93716683  0.93645835  1
  Zn  Zn148  1  0.68564359  0.43910938  0.43678138  1
  Zn  Zn149  1  0.69138860  0.43640474  0.93496885  1
  Zn  Zn150  1  0.68670486  0.93718593  0.43805431  1
  Zn  Zn151  1  0.68747339  0.93794665  0.93874540  1
  Zn  Zn152  1  0.31407724  0.05968274  0.06181178  1
  Zn  Zn153  1  0.31223634  0.06421539  0.56299221  1
  Zn  Zn154  1  0.31318806  0.55922426  0.06234522  1
  Zn  Zn155  1  0.31220340  0.56285794  0.56234361  1
  Zn  Zn156  1  0.81444002  0.06409818  0.06433387  1
  Zn  Zn157  1  0.81322716  0.06181419  0.56311291  1
  Zn  Zn158  1  0.81114866  0.56025986  0.06292210  1
  Zn  Zn159  1  0.81067435  0.56295974  0.56231373  1
  Zn  Zn160  1  0.43951728  0.44043036  0.18569026  1
  Zn  Zn161  1  0.43757278  0.43671158  0.68913421  1
  Zn  Zn162  1  0.43716454  0.93809496  0.18811303  1
  Zn  Zn163  1  0.43577010  0.93865857  0.68761502  1
  Zn  Zn164  1  0.93642598  0.43583320  0.18480075  1
  Zn  Zn165  1  0.93653816  0.43661686  0.68732699  1
  Zn  Zn166  1  0.93760136  0.93934817  0.18783536  1
  Zn  Zn167  1  0.93760792  0.93822496  0.68773016  1
  Zn  Zn168  1  0.06174520  0.06261672  0.31277793  1
  Zn  Zn169  1  0.06366244  0.06383944  0.81205227  1
  Zn  Zn170  1  0.06289703  0.56120765  0.31193506  1
  Zn  Zn171  1  0.06239244  0.56235862  0.81164247  1
  Zn  Zn172  1  0.56202432  0.06068138  0.31399916  1
  Zn  Zn173  1  0.56496232  0.06593693  0.81224452  1
  Zn  Zn174  1  0.56129611  0.56151544  0.31205839  1
  Zn  Zn175  1  0.56025212  0.56037520  0.81261758  1
  Zn  Zn176  1  0.43567208  0.18688116  0.43930839  1
  Zn  Zn177  1  0.43719292  0.19062381  0.94230373  1
  Zn  Zn178  1  0.43758435  0.68929099  0.43672630  1
  Zn  Zn179  1  0.43885576  0.68730626  0.93593466  1
  Zn  Zn180  1  0.93596583  0.18826043  0.43776068  1
  Zn  Zn181  1  0.93899319  0.18700237  0.93678895  1
  Zn  Zn182  1  0.93642365  0.68875875  0.43731798  1
  Zn  Zn183  1  0.93798084  0.68563858  0.93529013  1
  Zn  Zn184  1  0.06279929  0.31006272  0.06113699  1
  Zn  Zn185  1  0.06080609  0.31173731  0.56271822  1
  Zn  Zn186  1  0.06338233  0.81202485  0.06154712  1
  Zn  Zn187  1  0.06319035  0.81506625  0.56384738  1
  Zn  Zn188  1  0.56230757  0.31035791  0.06230485  1
  Zn  Zn189  1  0.56105955  0.31327179  0.56238651  1
  Zn  Zn190  1  0.56379251  0.81117915  0.06203168  1
  Zn  Zn191  1  0.56181638  0.81217352  0.56166824  1
  O  O192  1  0.12561408  0.11696053  0.11879441  1
  O  O193  1  0.11921645  0.12024684  0.61946856  1
  O  O194  1  0.12035553  0.62016766  0.11982672  1
  O  O195  1  0.11913060  0.62045420  0.61757234  1
  O  O196  1  0.61567641  0.11789052  0.12608203  1
  O  O197  1  0.62074905  0.12074340  0.62008629  1
  O  O198  1  0.62044317  0.62748575  0.11387447  1
  O  O199  1  0.61694854  0.62522552  0.61695993  1
  O  O200  1  0.37871563  0.37942627  0.37924867  1
  O  O201  1  0.37233260  0.37434246  0.88740133  1
  O  O202  1  0.37718733  0.87677218  0.38559130  1
  O  O203  1  0.38623580  0.87382460  0.88142804  1
  O  O204  1  0.87919174  0.38150343  0.37953925  1
  O  O205  1  0.87670989  0.37624464  0.88777438  1
  O  O206  1  0.88220793  0.87546293  0.38079870  1
  O  O207  1  0.88072992  0.87992110  0.88126951  1
  O  O208  1  0.24908403  0.00629592  0.36751107  1
  O  O209  1  0.25014337  0.00885680  0.86800660  1
  O  O210  1  0.25610585  0.50738305  0.37361110  1
  O  O211  1  0.25049662  0.50757654  0.86768635  1
  O  O212  1  0.75005418  0.00667336  0.36867738  1
  O  O213  1  0.75624742  0.00387845  0.87160288  1
  O  O214  1  0.75557552  0.50583524  0.36913105  1
  O  O215  1  0.75342897  0.50170052  0.86129786  1
  O  O216  1  0.24313792  0.49017125  0.12706824  1
  O  O217  1  0.24371269  0.49598019  0.62872548  1
  O  O218  1  0.24447041  0.99242386  0.13007698  1
  O  O219  1  0.24437757  1.00233705  0.63561989  1
  O  O220  1  0.74591950  0.49699130  0.13375443  1
  O  O221  1  0.74829922  0.49225527  0.63192409  1
  O  O222  1  0.74545730  0.99438560  0.13061285  1
  O  O223  1  0.74483697  0.99515329  0.63053033  1
  O  O224  1  0.00425526  0.37039227  0.25564986  1
  O  O225  1  0.00327408  0.37256313  0.75290552  1
  O  O226  1  0.00557939  0.86905425  0.25441868  1
  O  O227  1  0.00056458  0.86857855  0.75722431  1
  O  O228  1  0.50843865  0.37431753  0.25612446  1
  O  O229  1  0.50436358  0.37049537  0.75302145  1
  O  O230  1  0.50714160  0.86836798  0.24935136  1
  O  O231  1  0.50204034  0.87397078  0.76194797  1
  O  O232  1  0.49387859  0.12194820  0.24165552  1
  O  O233  1  0.49790894  0.13018292  0.74276467  1
  O  O234  1  0.49527251  0.63082546  0.24327186  1
  O  O235  1  0.49294953  0.62673754  0.74265077  1
  O  O236  1  0.99323234  0.13111312  0.25075609  1
  O  O237  1  0.99309683  0.12404782  0.74349106  1
  O  O238  1  0.99483263  0.63007212  0.24464612  1
  O  O239  1  0.99496375  0.63109138  0.74256931  1
  O  O240  1  0.37033508  0.26020111  0.00648012  1
  O  O241  1  0.37276765  0.25636676  0.51074087  1
  O  O242  1  0.37014359  0.75429059  0.00528558  1
  O  O243  1  0.36946704  0.75612246  0.50505474  1
  O  O244  1  0.86743235  0.25666821  -0.00095894  1
  O  O245  1  0.86638690  0.25778046  0.50062818  1
  O  O246  1  0.87159675  0.75492834  0.00535562  1
  O  O247  1  0.87397907  0.75689434  0.50630139  1
  O  O248  1  0.12464946  0.24341667  0.49276177  1
  O  O249  1  0.12829518  0.24241646  0.99083253  1
  O  O250  1  0.12928165  0.74543281  0.49441678  1
  O  O251  1  0.13107618  0.74358369  0.99526696  1
  O  O252  1  0.62976052  0.24478379  0.49537698  1
  O  O253  1  0.63579875  0.24868515  0.99320582  1
  O  O254  1  0.62570970  0.74324404  0.49205816  1
  O  O255  1  0.63120948  0.74330416  0.99270029  1
  O  O256  1  0.50051886  0.23508189  0.12729934  1
  O  O257  1  0.49058278  0.24552688  0.62439806  1
  O  O258  1  0.49475514  0.74468103  0.12947446  1
  O  O259  1  0.49245310  0.74368903  0.62596732  1
  O  O260  1  0.99923513  0.24684115  0.13395763  1
  O  O261  1  0.99631850  0.24146452  0.62626744  1
  O  O262  1  0.99560219  0.74462350  0.13015059  1
  O  O263  1  0.99520515  0.74519278  0.62961252  1
  O  O264  1  0.00470592  0.25699228  0.37014183  1
  O  O265  1  0.01226653  0.24943955  0.87330166  1
  O  O266  1  0.00601825  0.75469902  0.36900900  1
  O  O267  1  0.00554199  0.75465872  0.86977172  1
  O  O268  1  0.50580958  0.25621003  0.37556536  1
  O  O269  1  0.51280743  0.25019959  0.87741130  1
  O  O270  1  0.50647126  0.75083850  0.36621102  1
  O  O271  1  0.51007349  0.75948399  0.87563151  1
  O  O272  1  0.24147620  0.12551811  0.49346688  1
  O  O273  1  0.24470556  0.12265028  0.99110201  1
  O  O274  1  0.24423344  0.63114932  0.49373767  1
  O  O275  1  0.24514828  0.62986868  0.99549214  1
  O  O276  1  0.74386959  0.12998646  0.49636836  1
  O  O277  1  0.75149940  0.13376545  0.99472118  1
  O  O278  1  0.74308701  0.62590395  0.49239238  1
  O  O279  1  0.74261233  0.63183654  0.99858518  1
  O  O280  1  0.25727543  0.37463337  0.01068463  1
  O  O281  1  0.25652534  0.37370474  0.50633233  1
  O  O282  1  0.25553148  0.86887253  0.00463726  1
  O  O283  1  0.25697884  0.86934423  0.50161195  1
  O  O284  1  0.75883410  0.36624510  0.00081457  1
  O  O285  1  0.75301293  0.37192289  0.50627743  1
  O  O286  1  0.75647931  0.86979488  0.00639930  1
  O  O287  1  0.75668435  0.87425423  0.50662697  1
  O  O288  1  0.12547880  0.49311276  0.24313304  1
  O  O289  1  0.13133166  0.50155603  0.74106347  1
  O  O290  1  0.12960593  0.99316699  0.24423111  1
  O  O291  1  0.13483829  0.99963498  0.74533453  1
  O  O292  1  0.63011562  0.48972967  0.25111655  1
  O  O293  1  0.63686117  0.50025627  0.74648388  1
  O  O294  1  0.63130465  0.99370899  0.24485700  1
  O  O295  1  0.63284490  0.99912826  0.74408546  1
  O  O296  1  0.36689066  0.00505335  0.25136905  1
  O  O297  1  0.36457901  0.00405116  0.75312936  1
  O  O298  1  0.37440595  0.50775459  0.25643320  1
  O  O299  1  0.36627430  0.50770838  0.74970177  1
  O  O300  1  0.86839285  0.00605021  0.25250080  1
  O  O301  1  0.86978014  0.00523163  0.75707154  1
  O  O302  1  0.87044015  0.50505488  0.25485002  1
  O  O303  1  0.86597170  0.50711970  0.74822230  1
  O  O304  1  0.11877731  0.37124011  0.37000586  1
  O  O305  1  0.12666034  0.36257153  0.87503353  1
  O  O306  1  0.11992655  0.86879675  0.36930314  1
  O  O307  1  0.11863919  0.86748527  0.87478553  1
  O  O308  1  0.61895799  0.37015576  0.36803176  1
  O  O309  1  0.62607442  0.36339743  0.87519218  1
  O  O310  1  0.62395014  0.86794841  0.36821323  1
  O  O311  1  0.61723836  0.86625487  0.87676860  1
  O  O312  1  0.38326855  0.12278416  0.13114129  1
  O  O313  1  0.38055307  0.13577867  0.62479271  1
  O  O314  1  0.38002239  0.63042371  0.12888726  1
  O  O315  1  0.37916525  0.63097585  0.62891762  1
  O  O316  1  0.87806104  0.12746520  0.13492969  1
  O  O317  1  0.88058994  0.12538413  0.63180977  1
  O  O318  1  0.88089948  0.63017200  0.12992053  1
  O  O319  1  0.88090457  0.63107188  0.62804222  1
  O  O320  1  0.24866252  0.26267139  0.12419917  1
  O  O321  1  0.25790074  0.25525083  0.62354143  1
  O  O322  1  0.25580658  0.75468985  0.11872999  1
  O  O323  1  0.25550947  0.75060479  0.61808167  1
  O  O324  1  0.75067770  0.25037061  0.11273670  1
  O  O325  1  0.75050173  0.25974860  0.61947838  1
  O  O326  1  0.75694165  0.75572323  0.11991735  1
  O  O327  1  0.75689437  0.75691223  0.62345608  1
  O  O328  1  0.24198102  0.24275046  0.37632318  1
  O  O329  1  0.24171824  0.23893008  0.87506944  1
  O  O330  1  0.24418922  0.74464331  0.38018094  1
  O  O331  1  0.24503740  0.74448279  0.88070444  1
  O  O332  1  0.74249596  0.24423319  0.38210360  1
  O  O333  1  0.74408697  0.24500592  0.88433301  1
  O  O334  1  0.74301639  0.74272155  0.37506201  1
  O  O335  1  0.74089027  0.75159536  0.88066847  1
  O  O336  1  0.00668328  0.11649536  0.00092335  1
  O  O337  1  0.00418189  0.11945794  0.50496347  1
  O  O338  1  0.00581303  0.62066206  0.00584271  1
  O  O339  1  0.00505149  0.62034303  0.50364652  1
  O  O340  1  0.50010017  0.11780349  0.01125559  1
  O  O341  1  0.50606197  0.11997842  0.50686133  1
  O  O342  1  0.51119942  0.62775324  0.00480490  1
  O  O343  1  0.50327136  0.62017760  0.50403717  1
  O  O344  1  0.49372115  0.38137811  0.49438012  1
  O  O345  1  0.48831464  0.37435965  1.00123552  1
  O  O346  1  0.49162329  0.88144920  0.49991420  1
  O  O347  1  0.49632401  0.87877380  0.99300957  1
  O  O348  1  0.99333679  0.38134774  0.49404334  1
  O  O349  1  0.99219785  0.38050687  0.99884067  1
  O  O350  1  0.99531090  0.88031106  0.49473037  1
  O  O351  1  0.99474896  0.87900488  0.99461029  1
  O  O352  1  0.49288097  0.49463147  0.38011983  1
  O  O353  1  0.49641759  0.49590604  0.88064891  1
  O  O354  1  0.49810429  0.99750444  0.38487223  1
  O  O355  1  0.50212621  0.99143985  0.88082565  1
  O  O356  1  0.99389851  0.49532504  0.37984528  1
  O  O357  1  0.99852929  0.49891880  0.88334925  1
  O  O358  1  0.99994082  0.99248982  0.38198540  1
  O  O359  1  0.99535191  0.99432871  0.88071221  1
  O  O360  1  0.00777109  -0.00052713  0.11802872  1
  O  O361  1  0.00539691  0.00583441  0.61974469  1
  O  O362  1  0.00523319  0.50613287  0.11914506  1
  O  O363  1  0.00404741  0.50653604  0.61778066  1
  O  O364  1  0.50563046  0.00616899  0.12106530  1
  O  O365  1  0.50573394  0.00658992  0.62096206  1
  O  O366  1  0.50597947  0.50900665  0.11957091  1
  O  O367  1  0.49938583  0.50704864  0.61711537  1
  O  O368  1  0.24363237  0.37643334  0.24152547  1
  O  O369  1  0.24659314  0.38302249  0.74191467  1
  O  O370  1  0.24451945  0.87802091  0.24431032  1
  O  O371  1  0.24876399  0.88760066  0.75099649  1
  O  O372  1  0.74015040  0.37964715  0.25147077  1
  O  O373  1  0.75131996  0.38405760  0.74082234  1
  O  O374  1  0.74558611  0.87961609  0.24447293  1
  O  O375  1  0.74961689  0.88237589  0.74311919  1
  O  O376  1  0.25415322  0.11856634  0.25475805  1
  O  O377  1  0.25106983  0.11603758  0.75995628  1
  O  O378  1  0.25715081  0.62467532  0.25579207  1
  O  O379  1  0.25519661  0.62016548  0.75493699  1
  O  O380  1  0.75412042  0.12022247  0.25602260  1
  O  O381  1  0.75671542  0.11825014  0.75622125  1
  O  O382  1  0.75586827  0.61992202  0.25469277  1
  O  O383  1  0.75569309  0.61664620  0.74764109  1
  O  O384  1  0.36783661  0.12266579  0.36959260  1
  O  O385  1  0.36415193  0.12555647  0.87599290  1
  O  O386  1  0.36991031  0.62091626  0.36931608  1
  O  O387  1  0.36832015  0.62575980  0.86864915  1
  O  O388  1  0.86679784  0.12359879  0.36924903  1
  O  O389  1  0.87048767  0.11805635  0.87045442  1
  O  O390  1  0.87021541  0.62015433  0.36883066  1
  O  O391  1  0.87170410  0.62413183  0.86512999  1
  O  O392  1  0.13190914  0.37963986  0.12896239  1
  O  O393  1  0.13068742  0.38232821  0.62308000  1
  O  O394  1  0.13140553  0.87858628  0.12971164  1
  O  O395  1  0.12823855  0.88436009  0.62829879  1
  O  O396  1  0.62605672  0.37442777  0.13738033  1
  O  O397  1  0.63735844  0.37753797  0.62433403  1
  O  O398  1  0.63160107  0.87880889  0.13049916  1
  O  O399  1  0.63093346  0.88149990  0.62597312  1
  O  O400  1  0.11859684  0.25583799  0.25678582  1
  O  O401  1  0.12332398  0.25009114  0.76134775  1
  O  O402  1  0.11990625  0.75472928  0.25457545  1
  O  O403  1  0.11868107  0.75040797  0.75634202  1
  O  O404  1  0.62356672  0.25897949  0.25746067  1
  O  O405  1  0.62797362  0.25251916  0.76318340  1
  O  O406  1  0.62055457  0.75462534  0.25373304  1
  O  O407  1  0.62369704  0.75169884  0.76187449  1
  O  O408  1  0.37783213  0.23968734  0.24633708  1
  O  O409  1  0.37464917  0.25002000  0.73696886  1
  O  O410  1  0.38057080  0.74503206  0.24345848  1
  O  O411  1  0.37565154  0.74342423  0.74300283  1
  O  O412  1  0.88000980  0.24418391  0.25007654  1
  O  O413  1  0.87545590  0.24049224  0.74915858  1
  O  O414  1  0.88074062  0.74421961  0.24437203  1
  O  O415  1  0.88091584  0.74548034  0.74335589  1
  O  O416  1  0.37963506  0.49540738  0.49336705  1
  O  O417  1  0.37597592  0.48851632  0.99816555  1
  O  O418  1  0.38045475  0.99311014  0.50146261  1
  O  O419  1  0.38268107  0.99111029  0.99729558  1
  O  O420  1  0.87958342  0.49575746  0.49358146  1
  O  O421  1  0.88006647  0.49168830  0.99905874  1
  O  O422  1  0.88202808  0.99335374  0.49853488  1
  O  O423  1  0.88029160  0.99377209  0.99536465  1
  O  O424  1  0.12033371  0.00343358  0.00468524  1
  O  O425  1  0.11912562  0.00584997  0.50577986  1
  O  O426  1  0.12026819  0.50542838  0.00563195  1
  O  O427  1  0.11853063  0.50669247  0.50368910  1
  O  O428  1  0.61976013  0.00134414  0.00826214  1
  O  O429  1  0.62012817  0.00614627  0.50703980  1
  O  O430  1  0.62852405  0.51314022  -0.00144152  1
  O  O431  1  0.61661335  0.50772737  0.49941186  1
  O  O432  1  0.36620134  0.37560817  0.12017814  1
  O  O433  1  0.36902292  0.36834641  0.61909020  1
  O  O434  1  0.36989865  0.86863405  0.11987274  1
  O  O435  1  0.37223779  0.86900384  0.61758444  1
  O  O436  1  0.87271736  0.37142468  0.11214391  1
  O  O437  1  0.86305679  0.37513430  0.61742033  1
  O  O438  1  0.87094292  0.86936520  0.12025853  1
  O  O439  1  0.87044438  0.87039230  0.61938454  1
  O  O440  1  0.12906513  0.13042062  0.37996624  1
  O  O441  1  0.13344214  0.13051885  0.88043025  1
  O  O442  1  0.12959054  0.63067880  0.37943932  1
  O  O443  1  0.13085611  0.63097650  0.88105555  1
  O  O444  1  0.62966005  0.12993829  0.38137126  1
  O  O445  1  0.63302311  0.13371833  0.87929237  1
  O  O446  1  0.62941757  0.63006903  0.37858021  1
  O  O447  1  0.62590493  0.63564777  0.88309156  1
