# generated using pymatgen
data_V3Zn3O8
_symmetry_space_group_name_H-M   'P 1'
_cell_length_a   17.08794234
_cell_length_b   17.08830041
_cell_length_c   17.08965112
_cell_angle_alpha   90.00897893
_cell_angle_beta   90.00342014
_cell_angle_gamma   89.99739027
_symmetry_Int_Tables_number   1
_chemical_formula_structural   V3Zn3O8
_chemical_formula_sum   'V96 Zn96 O256'
_cell_volume   4990.24456640
_cell_formula_units_Z   32
loop_
 _symmetry_equiv_pos_site_id
 _symmetry_equiv_pos_as_xyz
  1  'x, y, z'
loop_
 _atom_site_type_symbol
 _atom_site_label
 _atom_site_symmetry_multiplicity
 _atom_site_fract_x
 _atom_site_fract_y
 _atom_site_fract_z
 _atom_site_occupancy
  V  V0  1  0.87305853  0.37579524  0.00188963  1
  V  V1  1  0.62445437  0.12266924  0.50088798  1
  V  V2  1  0.50070997  -0.00005131  0.50027089  1
  V  V3  1  0.50090715  0.62558053  0.12233066  1
  V  V4  1  0.49885775  0.37583253  0.87411126  1
  V  V5  1  0.25199540  0.37432069  0.12199721  1
  V  V6  1  0.75037833  0.87512616  0.12449932  1
  V  V7  1  0.00047120  0.49969183  0.50044467  1
  V  V8  1  0.62469391  0.74964824  0.37532467  1
  V  V9  1  0.12441921  0.87466110  0.25061129  1
  V  V10  1  -0.00104562  0.50229678  0.00054232  1
  V  V11  1  0.75072662  0.25064865  0.00161647  1
  V  V12  1  0.87465080  0.50110019  0.37564404  1
  V  V13  1  0.37493067  0.87386575  0.49899431  1
  V  V14  1  0.25101356  0.49954644  0.75137110  1
  V  V15  1  0.49994657  0.62493216  0.62467280  1
  V  V16  1  0.62455541  0.87582187  0.24968976  1
  V  V17  1  0.12527388  0.24967144  0.87518217  1
  V  V18  1  0.37546991  0.12667934  0.24971494  1
  V  V19  1  0.62502891  0.49943533  0.62427500  1
  V  V20  1  0.37500769  -0.00000294  0.87635770  1
  V  V21  1  0.24861721  0.12496704  0.87573611  1
  V  V22  1  0.62485079  0.50010765  0.12485141  1
  V  V23  1  0.00063322  0.37474852  0.87540417  1
  V  V24  1  0.37558405  0.25122061  0.12455408  1
  V  V25  1  0.74946054  0.62583661  0.37652831  1
  V  V26  1  0.00031927  0.37466156  0.37498516  1
  V  V27  1  0.24964313  -0.00097804  0.75090857  1
  V  V28  1  -0.00104346  0.87562969  0.87580052  1
  V  V29  1  0.87598654  0.74928426  0.62434628  1
  V  V30  1  0.12515407  -0.00124655  0.62479169  1
  V  V31  1  0.75018022  0.50033804  0.75076515  1
  V  V32  1  0.75038541  0.00024552  0.25024181  1
  V  V33  1  0.74958925  0.87493847  0.62479390  1
  V  V34  1  0.12596989  0.12394792  0.50067749  1
  V  V35  1  0.24946801  0.87357496  0.62517896  1
  V  V36  1  -0.00001935  0.62457906  0.62631893  1
  V  V37  1  0.25075650  0.37344989  0.62483672  1
  V  V38  1  0.87486792  0.62449529  0.74951061  1
  V  V39  1  0.24976948  0.12505345  0.37547570  1
  V  V40  1  0.12430450  0.74921129  0.37338076  1
  V  V41  1  0.00037205  0.12442336  0.62555671  1
  V  V42  1  0.87594945  0.87495974  0.49992654  1
  V  V43  1  0.87557829  -0.00055608  0.37600866  1
  V  V44  1  0.49994515  0.00047654  -0.00040256  1
  V  V45  1  0.62429186  0.62492112  0.49944141  1
  V  V46  1  0.12486877  0.12640087  0.00052019  1
  V  V47  1  0.62480246  0.00065363  0.12505692  1
  V  V48  1  0.75037232  -0.00074092  0.75087876  1
  V  V49  1  0.49897905  0.49825061  0.49900353  1
  V  V50  1  0.37453686  0.62385387  0.75040540  1
  V  V51  1  0.75007443  0.37453231  0.62588001  1
  V  V52  1  0.87560087  0.24940913  0.62580113  1
  V  V53  1  0.25007511  0.75083746  0.00088491  1
  V  V54  1  0.12619837  0.62396771  0.49977736  1
  V  V55  1  0.12433060  0.87396920  0.75033935  1
  V  V56  1  0.37606140  0.37402846  0.49837019  1
  V  V57  1  0.49950477  0.87549265  0.87496897  1
  V  V58  1  0.75082412  0.12461256  0.37564653  1
  V  V59  1  0.12405655  0.50070863  0.12405441  1
  V  V60  1  0.62563731  0.24968859  0.87468255  1
  V  V61  1  0.37499874  0.74928775  0.62432610  1
  V  V62  1  0.62453426  0.75095474  0.87382757  1
  V  V63  1  0.75021478  0.24886254  0.50052077  1
  V  V64  1  0.74853347  0.50053790  0.25025829  1
  V  V65  1  0.12358884  0.25095486  0.37515405  1
  V  V66  1  0.49931713  0.87515642  0.37380007  1
  V  V67  1  0.24919465  0.87585841  0.12420715  1
  V  V68  1  0.87550402  0.62702232  0.25021005  1
  V  V69  1  0.74920249  0.62619048  0.87375913  1
  V  V70  1  0.62557446  0.37309936  0.74954488  1
  V  V71  1  0.87532532  0.74990065  0.12643321  1
  V  V72  1  0.49915156  0.75073189  0.24867094  1
  V  V73  1  0.87579458  0.12653291  0.25055252  1
  V  V74  1  0.50002193  0.75096414  0.75009465  1
  V  V75  1  0.12567451  0.49902317  0.62510848  1
  V  V76  1  0.25006330  0.74800610  0.49949777  1
  V  V77  1  0.12449667  0.00219880  0.12551799  1
  V  V78  1  0.74900628  0.75017888  -0.00125992  1
  V  V79  1  0.62624877  0.12578703  0.00006697  1
  V  V80  1  0.12506213  0.37391752  0.75052360  1
  V  V81  1  0.25089727  0.24935837  0.50089874  1
  V  V82  1  -0.00075126  0.12821872  0.12623888  1
  V  V83  1  0.49971378  0.12690667  0.12558391  1
  V  V84  1  0.24935118  0.00069027  0.24983986  1
  V  V85  1  0.12550811  0.74978734  0.87458865  1
  V  V86  1  0.37408818  0.62510372  0.24903372  1
  V  V87  1  0.00014286  -0.00116238  0.49952809  1
  V  V88  1  0.24992425  0.50039719  0.24975406  1
  V  V89  1  0.37789668  0.12551104  0.74814744  1
  V  V90  1  0.87544000  0.87565993  -0.00016142  1
  V  V91  1  0.62364198  0.25210042  0.37336723  1
  V  V92  1  0.25013673  0.62449140  0.87513150  1
  V  V93  1  0.87595044  0.12464268  0.75233146  1
  V  V94  1  0.37428740  0.00000256  0.37458085  1
  V  V95  1  0.87513237  0.37513666  0.50089495  1
  Zn  Zn96  1  0.12232069  0.37415592  0.25006876  1
  Zn  Zn97  1  0.62340824  0.87650125  0.74822438  1
  Zn  Zn98  1  0.75164985  0.12273729  0.87669491  1
  Zn  Zn99  1  0.37630564  0.49885863  0.37396137  1
  Zn  Zn100  1  0.25086420  0.62254151  0.37533720  1
  Zn  Zn101  1  0.62413612  0.62515907  -0.00279956  1
  Zn  Zn102  1  0.50222569  0.12375311  0.62527332  1
  Zn  Zn103  1  0.00017248  0.74864748  0.75020372  1
  Zn  Zn104  1  -0.00016777  0.62747919  0.12612955  1
  Zn  Zn105  1  -0.00110768  0.25349025  0.25115892  1
  Zn  Zn106  1  0.12377413  0.62567339  -0.00081202  1
  Zn  Zn107  1  0.00034520  0.25031481  0.75034171  1
  Zn  Zn108  1  -0.00203051  0.00175639  0.00034674  1
  Zn  Zn109  1  0.87353429  0.50141753  0.87549675  1
  Zn  Zn110  1  0.37879651  0.24727813  0.62415215  1
  Zn  Zn111  1  0.50007109  0.37625623  0.37236679  1
  Zn  Zn112  1  0.50237134  0.24755383  0.74709838  1
  Zn  Zn113  1  0.74839192  0.37602464  0.12782349  1
  Zn  Zn114  1  0.37695548  0.37624888  -0.00185974  1
  Zn  Zn115  1  0.62288508  0.00005570  0.62510784  1
  Zn  Zn116  1  -0.00091220  0.87438906  0.37338177  1
  Zn  Zn117  1  0.25239306  0.25091715  -0.00150977  1
  Zn  Zn118  1  0.74997378  0.74994624  0.50006042  1
  Zn  Zn119  1  0.87547614  0.00069211  0.87788523  1
  Zn  Zn120  1  0.49908485  0.50110450  -0.00244692  1
  Zn  Zn121  1  0.37470562  0.87703549  0.00177115  1
  Zn  Zn122  1  0.62335888  0.37554552  0.24997693  1
  Zn  Zn123  1  0.87404316  0.25248383  0.12899472  1
  Zn  Zn124  1  0.37594668  0.49921600  0.87683712  1
  Zn  Zn125  1  0.00011923  0.75037768  0.24783931  1
  Zn  Zn126  1  0.50038948  0.25387978  0.24955840  1
  Zn  Zn127  1  0.37531139  0.75331971  0.12375059  1
  Zn  Zn128  1  0.18649209  0.19022756  0.18945963  1
  Zn  Zn129  1  0.18917115  0.18811531  0.68867240  1
  Zn  Zn130  1  0.18664437  0.68717851  0.18522630  1
  Zn  Zn131  1  0.18697657  0.68685503  0.68842942  1
  Zn  Zn132  1  0.68826274  0.18751741  0.18789215  1
  Zn  Zn133  1  0.68784021  0.18580529  0.68670719  1
  Zn  Zn134  1  0.68798390  0.68728897  0.18846771  1
  Zn  Zn135  1  0.68699037  0.68868047  0.68793619  1
  Zn  Zn136  1  0.31116842  0.31202597  0.31141783  1
  Zn  Zn137  1  0.31288428  0.31012291  0.81167744  1
  Zn  Zn138  1  0.31057119  0.81164127  0.31128877  1
  Zn  Zn139  1  0.31378307  0.81227344  0.81384046  1
  Zn  Zn140  1  0.81112317  0.31398433  0.31200380  1
  Zn  Zn141  1  0.81278891  0.31230405  0.81502574  1
  Zn  Zn142  1  0.81163457  0.81219245  0.31300102  1
  Zn  Zn143  1  0.81443873  0.81081603  0.81119736  1
  Zn  Zn144  1  0.18832805  0.43599280  0.43653587  1
  Zn  Zn145  1  0.18697380  0.43798565  0.93713917  1
  Zn  Zn146  1  0.18779132  0.93568473  0.43707702  1
  Zn  Zn147  1  0.18500103  0.93873649  0.93900688  1
  Zn  Zn148  1  0.68813881  0.43723048  0.43813398  1
  Zn  Zn149  1  0.68447262  0.43925422  0.93793323  1
  Zn  Zn150  1  0.68775018  0.93729136  0.43791203  1
  Zn  Zn151  1  0.68657970  0.93653977  0.93598665  1
  Zn  Zn152  1  0.31226380  0.06443413  0.06209578  1
  Zn  Zn153  1  0.31311389  0.06034421  0.56302617  1
  Zn  Zn154  1  0.31568498  0.56180539  0.05893127  1
  Zn  Zn155  1  0.31270504  0.56046434  0.56329549  1
  Zn  Zn156  1  0.81439605  0.06244950  0.06338202  1
  Zn  Zn157  1  0.81261313  0.06172238  0.56356811  1
  Zn  Zn158  1  0.81093613  0.56556928  0.06293335  1
  Zn  Zn159  1  0.81161066  0.56282953  0.56278149  1
  Zn  Zn160  1  0.43930877  0.43643001  0.18844048  1
  Zn  Zn161  1  0.43772740  0.43645941  0.68761741  1
  Zn  Zn162  1  0.43594776  0.93906302  0.18611297  1
  Zn  Zn163  1  0.43721436  0.93818583  0.68703978  1
  Zn  Zn164  1  0.93625229  0.43872888  0.18911398  1
  Zn  Zn165  1  0.93764964  0.43825526  0.68886773  1
  Zn  Zn166  1  0.93937408  0.93785649  0.18871564  1
  Zn  Zn167  1  0.93747290  0.93710017  0.68815960  1
  Zn  Zn168  1  0.06146071  0.06326065  0.31261259  1
  Zn  Zn169  1  0.06244396  0.06113700  0.81311135  1
  Zn  Zn170  1  0.06102402  0.56358534  0.31171626  1
  Zn  Zn171  1  0.06310992  0.56182756  0.81338238  1
  Zn  Zn172  1  0.56187929  0.06446964  0.31302216  1
  Zn  Zn173  1  0.56457020  0.06168069  0.81427127  1
  Zn  Zn174  1  0.56109677  0.56169436  0.31251926  1
  Zn  Zn175  1  0.56356761  0.56226396  0.81080255  1
  Zn  Zn176  1  0.43932118  0.18708750  0.43786942  1
  Zn  Zn177  1  0.43742555  0.19010339  0.93761000  1
  Zn  Zn178  1  0.43782197  0.68596108  0.43538017  1
  Zn  Zn179  1  0.43529470  0.68905376  0.93665787  1
  Zn  Zn180  1  0.93837391  0.18731381  0.43823711  1
  Zn  Zn181  1  0.93868894  0.18973173  0.93831033  1
  Zn  Zn182  1  0.93854304  0.68773996  0.43864215  1
  Zn  Zn183  1  0.93521930  0.68869701  0.93724296  1
  Zn  Zn184  1  0.06346321  0.31248025  0.06141885  1
  Zn  Zn185  1  0.06233272  0.31091709  0.56248178  1
  Zn  Zn186  1  0.06235611  0.81304827  0.06253162  1
  Zn  Zn187  1  0.06150150  0.81107965  0.56135351  1
  Zn  Zn188  1  0.56184821  0.31410664  0.06134276  1
  Zn  Zn189  1  0.56048588  0.30852689  0.56304596  1
  Zn  Zn190  1  0.56311323  0.81283967  0.06033635  1
  Zn  Zn191  1  0.56310355  0.81261109  0.56207293  1
  O  O192  1  0.11795193  0.12195694  0.12180040  1
  O  O193  1  0.12122008  0.11845048  0.62048131  1
  O  O194  1  0.12353954  0.61173431  0.12183835  1
  O  O195  1  0.12046789  0.61863617  0.61990841  1
  O  O196  1  0.62026041  0.11964289  0.11997999  1
  O  O197  1  0.62557742  0.12087619  0.61567092  1
  O  O198  1  0.61555044  0.61905200  0.12580028  1
  O  O199  1  0.61934161  0.61983273  0.61984944  1
  O  O200  1  0.37393644  0.37560934  0.38767673  1
  O  O201  1  0.38682417  0.37462705  0.87265020  1
  O  O202  1  0.37929678  0.87961037  0.37891164  1
  O  O203  1  0.38104603  0.88266628  0.87666944  1
  O  O204  1  0.87900917  0.38157492  0.38243351  1
  O  O205  1  0.88022089  0.37739979  0.88654977  1
  O  O206  1  0.87517836  0.88159153  0.38142029  1
  O  O207  1  0.88455667  0.87352582  0.87988683  1
  O  O208  1  0.25490903  0.00497947  0.37021628  1
  O  O209  1  0.25366778  0.00475597  0.86977197  1
  O  O210  1  0.25051526  0.50080977  0.36108635  1
  O  O211  1  0.25021805  0.50602744  0.86828135  1
  O  O212  1  0.75534683  0.00516183  0.36966002  1
  O  O213  1  0.75377837  -0.00011614  0.86367520  1
  O  O214  1  0.75521522  0.50643671  0.37148538  1
  O  O215  1  0.74921051  0.50705486  0.86817669  1
  O  O216  1  0.24353914  0.49416269  0.13030887  1
  O  O217  1  0.24416570  0.49370591  0.63083454  1
  O  O218  1  0.24410437  0.99695890  0.13088687  1
  O  O219  1  0.24426963  0.99236459  0.63005627  1
  O  O220  1  0.73953961  0.50322201  0.13085904  1
  O  O221  1  0.74451838  0.49402818  0.63001143  1
  O  O222  1  0.74418195  0.99515054  0.13062826  1
  O  O223  1  0.75198068  0.99010290  0.63330721  1
  O  O224  1  0.00116506  0.37477768  0.25895277  1
  O  O225  1  0.00636406  0.37481998  0.75693999  1
  O  O226  1  0.00878686  0.87247038  0.25336888  1
  O  O227  1  0.00535872  0.87325668  0.75859951  1
  O  O228  1  0.50444972  0.37146014  0.25517228  1
  O  O229  1  0.50759597  0.37303029  0.75680842  1
  O  O230  1  0.50468046  0.87132266  0.25423800  1
  O  O231  1  0.50000198  0.86893233  0.75584485  1
  O  O232  1  0.49293017  0.12647076  0.24329535  1
  O  O233  1  0.48878923  0.12209427  0.75059037  1
  O  O234  1  0.49243328  0.63010787  0.24197971  1
  O  O235  1  0.49474966  0.63066728  0.74342792  1
  O  O236  1  0.99440236  0.12672639  0.24204695  1
  O  O237  1  0.99078599  0.12379626  0.74414018  1
  O  O238  1  0.99096549  0.62726284  0.24730702  1
  O  O239  1  0.99410772  0.62425893  0.74379334  1
  O  O240  1  0.37170743  0.25384321  0.00850653  1
  O  O241  1  0.36893199  0.25715804  0.50036146  1
  O  O242  1  0.36128184  0.75312728  0.00118294  1
  O  O243  1  0.37046579  0.75414139  0.50408048  1
  O  O244  1  0.86712046  0.25907083  0.00148884  1
  O  O245  1  0.86956538  0.25482339  0.50570345  1
  O  O246  1  0.86797886  0.75626069  0.00599436  1
  O  O247  1  0.87319161  0.75621269  0.50634906  1
  O  O248  1  0.13105904  0.24305447  0.49578616  1
  O  O249  1  0.12779283  0.24410802  0.99315472  1
  O  O250  1  0.13068925  0.74440430  0.49310764  1
  O  O251  1  0.13511356  0.74889224  0.99458302  1
  O  O252  1  0.63161578  0.24360420  0.49255650  1
  O  O253  1  0.63356965  0.24594717  0.99569462  1
  O  O254  1  0.62516276  0.74302673  0.49296869  1
  O  O255  1  0.63183919  0.74902712  0.99236319  1
  O  O256  1  0.49496672  0.24377934  0.12572143  1
  O  O257  1  0.49652815  0.24244119  0.62953177  1
  O  O258  1  0.49978425  0.74213050  0.13045909  1
  O  O259  1  0.49417695  0.74498269  0.62932409  1
  O  O260  1  0.99947934  0.23913224  0.12693575  1
  O  O261  1  0.99367831  0.24260349  0.62678647  1
  O  O262  1  0.99223262  0.74765125  0.12582676  1
  O  O263  1  0.99482539  0.74206501  0.62614506  1
  O  O264  1  0.00600710  0.25670381  0.37699467  1
  O  O265  1  0.00693702  0.25738473  0.87338307  1
  O  O266  1  0.01402358  0.75122648  0.37496018  1
  O  O267  1  0.00585747  0.75970775  0.87485275  1
  O  O268  1  0.51306469  0.24992733  0.37463668  1
  O  O269  1  0.50788708  0.25812604  0.87183488  1
  O  O270  1  0.50463439  0.75559642  0.36835796  1
  O  O271  1  0.50390185  0.75524400  0.86936535  1
  O  O272  1  0.24535843  0.12832552  0.49492319  1
  O  O273  1  0.24284600  0.12656241  0.99317147  1
  O  O274  1  0.24455864  0.62961006  0.49871316  1
  O  O275  1  0.24865913  0.63444064  0.99484368  1
  O  O276  1  0.74638673  0.12936624  0.49469947  1
  O  O277  1  0.74627871  0.13396345  0.99974931  1
  O  O278  1  0.74232701  0.62597319  0.49454504  1
  O  O279  1  0.74887359  0.63316377  0.99194225  1
  O  O280  1  0.25050203  0.37532829  0.01241348  1
  O  O281  1  0.25717914  0.37008778  0.50508754  1
  O  O282  1  0.24912421  0.86684482  0.00477364  1
  O  O283  1  0.25559057  0.86867397  0.50542184  1
  O  O284  1  0.75749871  0.36885051  0.00045589  1
  O  O285  1  0.75627192  0.36971643  0.50666082  1
  O  O286  1  0.75479760  0.87021165  0.00538248  1
  O  O287  1  0.75651806  0.87539563  0.50984159  1
  O  O288  1  0.13320848  0.50009599  0.24089141  1
  O  O289  1  0.13093616  0.49384922  0.74425476  1
  O  O290  1  0.13121597  0.99596296  0.24598690  1
  O  O291  1  0.13057286  0.99412065  0.74397108  1
  O  O292  1  0.63072332  0.50229572  0.24116745  1
  O  O293  1  0.63118452  0.49400484  0.74223724  1
  O  O294  1  0.63022429  0.99548208  0.24532659  1
  O  O295  1  0.63820777  0.99906862  0.74754243  1
  O  O296  1  0.36888937  0.00605999  0.25577819  1
  O  O297  1  0.36863030  0.00618597  0.75624981  1
  O  O298  1  0.36622816  0.50845165  0.24851433  1
  O  O299  1  0.36811413  0.50651919  0.75011193  1
  O  O300  1  0.86894388  0.00543332  0.25602756  1
  O  O301  1  0.86781912  0.00917814  0.74984192  1
  O  O302  1  0.86861204  0.50646859  0.25667426  1
  O  O303  1  0.86758048  0.50601237  0.75130126  1
  O  O304  1  0.11823097  0.36907297  0.37556740  1
  O  O305  1  0.12062024  0.36980161  0.86990904  1
  O  O306  1  0.12552473  0.86511102  0.36998051  1
  O  O307  1  0.11780488  0.87028063  0.87017665  1
  O  O308  1  0.62600349  0.36257491  0.37659875  1
  O  O309  1  0.61891759  0.36990876  0.86885554  1
  O  O310  1  0.61926342  0.87022438  0.36907287  1
  O  O311  1  0.61762652  0.86904743  0.87139025  1
  O  O312  1  0.37973004  0.13070007  0.13045410  1
  O  O313  1  0.37439691  0.12237026  0.63720216  1
  O  O314  1  0.38368700  0.62612703  0.13400265  1
  O  O315  1  0.38039872  0.63026580  0.62970195  1
  O  O316  1  0.88420104  0.12626516  0.13104958  1
  O  O317  1  0.88004188  0.12938836  0.63281781  1
  O  O318  1  0.87425036  0.63227614  0.13237995  1
  O  O319  1  0.88027714  0.62903152  0.62917196  1
  O  O320  1  0.25426856  0.26070184  0.12575738  1
  O  O321  1  0.25175752  0.25583592  0.61795167  1
  O  O322  1  0.24857359  0.75605853  0.11558886  1
  O  O323  1  0.25516218  0.75422908  0.61940881  1
  O  O324  1  0.74986244  0.25321110  0.11264496  1
  O  O325  1  0.75600072  0.25533145  0.61960852  1
  O  O326  1  0.75376307  0.75656137  0.11994924  1
  O  O327  1  0.75587524  0.75990254  0.62459407  1
  O  O328  1  0.24428773  0.24420488  0.38123788  1
  O  O329  1  0.24282922  0.24299877  0.87580767  1
  O  O330  1  0.24024555  0.74760634  0.38047933  1
  O  O331  1  0.24518355  0.74586902  0.88220756  1
  O  O332  1  0.74382207  0.24420600  0.38157333  1
  O  O333  1  0.74538344  0.24921580  0.88714110  1
  O  O334  1  0.74219686  0.74409498  0.37700458  1
  O  O335  1  0.74454738  0.74640372  0.87858166  1
  O  O336  1  0.00484255  0.12472581  0.00972271  1
  O  O337  1  0.00601235  0.11883001  0.50636229  1
  O  O338  1  -0.00046297  0.61284041  0.00112407  1
  O  O339  1  0.00613783  0.61830742  0.50616087  1
  O  O340  1  0.50653205  0.12001524  0.00544245  1
  O  O341  1  0.50580825  0.11614443  0.49936748  1
  O  O342  1  0.50006519  0.62689802  0.01202030  1
  O  O343  1  0.50412715  0.61944580  0.50560687  1
  O  O344  1  0.49056090  0.37945448  0.50011102  1
  O  O345  1  0.50128162  0.37658542  0.98561292  1
  O  O346  1  0.49387941  0.87839965  0.49285518  1
  O  O347  1  0.49826401  0.88252263  0.99402181  1
  O  O348  1  0.99414194  0.38081394  0.49629087  1
  O  O349  1  0.99237875  0.38246761  0.99650477  1
  O  O350  1  0.99413452  0.88193338  0.49887456  1
  O  O351  1  0.99508070  0.87629437  0.99103621  1
  O  O352  1  0.49732546  0.49785947  0.38345026  1
  O  O353  1  0.50112445  0.48898933  0.87374113  1
  O  O354  1  0.49364751  0.99386478  0.37882163  1
  O  O355  1  0.49560010  0.99505084  0.88089851  1
  O  O356  1  0.99448974  0.49554510  0.38184850  1
  O  O357  1  0.99952529  0.49392327  0.88610725  1
  O  O358  1  0.99374946  0.99952144  0.38222714  1
  O  O359  1  0.99946174  0.98707205  0.87643191  1
  O  O360  1  0.00590334  0.01211499  0.12548645  1
  O  O361  1  0.00595824  0.00440262  0.61983457  1
  O  O362  1  0.00806791  0.49850270  0.11655892  1
  O  O363  1  0.00610384  0.50423698  0.61938737  1
  O  O364  1  0.50583252  0.00620350  0.11996372  1
  O  O365  1  0.50237379  -0.00011671  0.61574142  1
  O  O366  1  0.50790714  0.51081967  0.12636164  1
  O  O367  1  0.50589292  0.50545345  0.61977972  1
  O  O368  1  0.24934987  0.38526586  0.23976602  1
  O  O369  1  0.24486833  0.37951911  0.74461101  1
  O  O370  1  0.24428128  0.88153480  0.24483722  1
  O  O371  1  0.24507815  0.87942098  0.74479950  1
  O  O372  1  0.74709691  0.38499653  0.24739706  1
  O  O373  1  0.74597832  0.37963738  0.74506983  1
  O  O374  1  0.74379551  0.88104605  0.24460195  1
  O  O375  1  0.75285945  0.88295187  0.74069525  1
  O  O376  1  0.25505582  0.11967844  0.25586633  1
  O  O377  1  0.25649134  0.11784582  0.75564531  1
  O  O378  1  0.25834461  0.61637274  0.24618484  1
  O  O379  1  0.25502283  0.61951994  0.75446213  1
  O  O380  1  0.75553989  0.11882175  0.25538068  1
  O  O381  1  0.76055819  0.11631750  0.74932406  1
  O  O382  1  0.75511657  0.62045044  0.25778120  1
  O  O383  1  0.75483106  0.61978380  0.75345134  1
  O  O384  1  0.36883507  0.11950571  0.37039831  1
  O  O385  1  0.36943162  0.11967107  0.86770130  1
  O  O386  1  0.37302692  0.62295840  0.36103411  1
  O  O387  1  0.36835118  0.62478078  0.86679181  1
  O  O388  1  0.86976649  0.11932877  0.37144240  1
  O  O389  1  0.87544867  0.12409518  0.86398703  1
  O  O390  1  0.86975067  0.62001533  0.37194851  1
  O  O391  1  0.86759551  0.62414595  0.86770891  1
  O  O392  1  0.13285915  0.38476965  0.12621073  1
  O  O393  1  0.13020598  0.37973879  0.62976550  1
  O  O394  1  0.12988809  0.88208993  0.13063102  1
  O  O395  1  0.13010014  0.87902357  0.62963095  1
  O  O396  1  0.62505974  0.38872649  0.12595079  1
  O  O397  1  0.63107535  0.37933550  0.62885478  1
  O  O398  1  0.63014667  0.88097462  0.13040134  1
  O  O399  1  0.63761119  0.87606510  0.62579316  1
  O  O400  1  0.12230307  0.25369099  0.26004077  1
  O  O401  1  0.12313782  0.25605994  0.75621025  1
  O  O402  1  0.12645610  0.75451696  0.25838164  1
  O  O403  1  0.12391932  0.75669619  0.75612074  1
  O  O404  1  0.62659538  0.25011967  0.26210618  1
  O  O405  1  0.62807422  0.25542705  0.75707510  1
  O  O406  1  0.61904591  0.75626692  0.25517731  1
  O  O407  1  0.61747124  0.75255824  0.75535226  1
  O  O408  1  0.37504506  0.24309785  0.24372244  1
  O  O409  1  0.37519285  0.23559773  0.74826639  1
  O  O410  1  0.37924056  0.74121653  0.24761668  1
  O  O411  1  0.37949127  0.74433053  0.74329451  1
  O  O412  1  0.87610364  0.24263724  0.24854124  1
  O  O413  1  0.87486643  0.24000972  0.74508160  1
  O  O414  1  0.87507240  0.74486630  0.24465820  1
  O  O415  1  0.87753661  0.74213047  0.74191746  1
  O  O416  1  0.37923147  0.49043213  0.49895939  1
  O  O417  1  0.38082133  0.49509820  0.99491875  1
  O  O418  1  0.37879959  0.99294892  0.49320354  1
  O  O419  1  0.38191565  1.00121597  0.99362632  1
  O  O420  1  0.88029799  0.49498221  0.49574451  1
  O  O421  1  0.88209931  0.49266052  1.00041302  1
  O  O422  1  0.88070772  0.99543207  0.49545760  1
  O  O423  1  0.87703137  0.99192613  0.99748056  1
  O  O424  1  0.12249652  0.00818721  0.00803272  1
  O  O425  1  0.12112291  0.00440953  0.50537975  1
  O  O426  1  0.11550024  0.49946858  0.00764878  1
  O  O427  1  0.12082084  0.50419468  0.50542998  1
  O  O428  1  0.62083164  0.00569088  0.00573207  1
  O  O429  1  0.61856867  0.00544126  0.49848952  1
  O  O430  1  0.62211963  0.50551351  0.01128561  1
  O  O431  1  0.61981903  0.50500403  0.50573996  1
  O  O432  1  0.36622958  0.37058112  0.12487651  1
  O  O433  1  0.36915223  0.37360121  0.61461181  1
  O  O434  1  0.36564097  0.87376466  0.12290495  1
  O  O435  1  0.36891267  0.86877935  0.61887307  1
  O  O436  1  0.87303715  0.37449472  0.11303092  1
  O  O437  1  0.87009219  0.36977539  0.62058970  1
  O  O438  1  0.86899342  0.87088010  0.12070242  1
  O  O439  1  0.86826692  0.87016371  0.62034664  1
  O  O440  1  0.13065365  0.12924582  0.38176846  1
  O  O441  1  0.12868456  0.12936078  0.87956629  1
  O  O442  1  0.12745814  0.63249836  0.38056845  1
  O  O443  1  0.13184086  0.63159415  0.87632812  1
  O  O444  1  0.63175869  0.13188154  0.38009440  1
  O  O445  1  0.62832962  0.13116940  0.88268933  1
  O  O446  1  0.62904833  0.63030189  0.37985860  1
  O  O447  1  0.63081942  0.63283339  0.87423798  1
