# generated using pymatgen
data_V3Zn3O8
_symmetry_space_group_name_H-M   'P 1'
_cell_length_a   17.08287325
_cell_length_b   17.08390129
_cell_length_c   17.08374576
_cell_angle_alpha   89.98753420
_cell_angle_beta   89.99796813
_cell_angle_gamma   90.01444431
_symmetry_Int_Tables_number   1
_chemical_formula_structural   V3Zn3O8
_chemical_formula_sum   'V96 Zn96 O256'
_cell_volume   4985.75630629
_cell_formula_units_Z   32
loop_
 _symmetry_equiv_pos_site_id
 _symmetry_equiv_pos_as_xyz
  1  'x, y, z'
loop_
 _atom_site_type_symbol
 _atom_site_label
 _atom_site_symmetry_multiplicity
 _atom_site_fract_x
 _atom_site_fract_y
 _atom_site_fract_z
 _atom_site_occupancy
  V  V0  1  0.87631062  0.62592517  0.24942283  1
  V  V1  1  -0.00188450  0.25058265  0.75155447  1
  V  V2  1  0.00096389  0.50111005  0.00029416  1
  V  V3  1  0.75086086  0.49797768  0.24841168  1
  V  V4  1  0.37472732  0.37533423  0.50185074  1
  V  V5  1  0.87464244  0.75007979  0.12461762  1
  V  V6  1  0.49990798  0.87306903  0.37259234  1
  V  V7  1  0.37475853  0.74959341  0.62501318  1
  V  V8  1  0.25011337  0.75026395  0.49999377  1
  V  V9  1  0.37447717  0.62375868  0.75108545  1
  V  V10  1  0.12542116  0.75155257  0.37491101  1
  V  V11  1  0.24884877  0.12521744  0.87637592  1
  V  V12  1  0.87522166  0.62635560  0.74869339  1
  V  V13  1  0.37310989  0.12476564  0.75100580  1
  V  V14  1  0.75215349  0.25121537  0.00190463  1
  V  V15  1  0.87401368  0.00073670  0.37521247  1
  V  V16  1  0.87486355  0.25005787  0.62562413  1
  V  V17  1  0.87651754  0.50109683  0.87509494  1
  V  V18  1  0.00069917  0.62612044  0.12512485  1
  V  V19  1  0.25069011  0.12561489  0.37681825  1
  V  V20  1  0.87390386  0.00007634  0.87526930  1
  V  V21  1  0.75049096  0.62440142  0.37333018  1
  V  V22  1  0.25142176  0.62448831  0.37429505  1
  V  V23  1  0.12498202  0.37672121  0.75112310  1
  V  V24  1  -0.00004746  0.75191346  0.74996670  1
  V  V25  1  0.12497507  -0.00037090  0.62651974  1
  V  V26  1  0.12528623  0.62636315  0.00128156  1
  V  V27  1  0.37545090  0.25002006  0.12582284  1
  V  V28  1  0.37250197  0.00029149  0.87505743  1
  V  V29  1  0.87492973  0.12622141  0.25138735  1
  V  V30  1  0.87310993  0.87549874  0.49806692  1
  V  V31  1  0.49964970  0.12425076  0.12537786  1
  V  V32  1  0.37661406  0.37376879  -0.00012474  1
  V  V33  1  0.12492486  0.50124177  0.62619945  1
  V  V34  1  0.12407523  0.25063623  0.87728944  1
  V  V35  1  0.62581605  0.37428343  0.74966061  1
  V  V36  1  0.49954945  0.62358495  0.12409084  1
  V  V37  1  0.24948857  0.37629778  0.62722480  1
  V  V38  1  0.75104330  0.74977514  -0.00096723  1
  V  V39  1  0.50099788  0.37271013  0.87426760  1
  V  V40  1  0.62411918  0.74863185  0.37138707  1
  V  V41  1  0.62443132  0.12354580  -0.00092136  1
  V  V42  1  0.75003694  0.24893846  0.50030283  1
  V  V43  1  0.37380057  0.87388679  -0.00055516  1
  V  V44  1  0.37533384  0.49953038  0.87406423  1
  V  V45  1  0.87683625  0.50033980  0.37514002  1
  V  V46  1  0.49865775  0.87463425  0.87421267  1
  V  V47  1  0.62448085  0.87485575  0.74761378  1
  V  V48  1  0.12479167  0.62543845  0.50066257  1
  V  V49  1  0.74901665  -0.00116864  0.74756393  1
  V  V50  1  0.37459969  0.12558732  0.25145094  1
  V  V51  1  0.62545705  0.62400620  0.49835352  1
  V  V52  1  0.62515893  -0.00179346  0.12483868  1
  V  V53  1  0.74897648  0.12382966  0.87455745  1
  V  V54  1  0.75025093  0.74994698  0.49808487  1
  V  V55  1  0.62581073  0.62271545  -0.00209619  1
  V  V56  1  0.37462528  0.24979982  0.62722143  1
  V  V57  1  0.62522834  0.74931045  0.87318502  1
  V  V58  1  0.62722821  0.37494349  0.24964151  1
  V  V59  1  0.50013727  0.62475619  0.62445281  1
  V  V60  1  0.24941813  0.75041084  0.00022871  1
  V  V61  1  0.12645353  0.37691545  0.25038550  1
  V  V62  1  0.50044516  0.24989547  0.25125663  1
  V  V63  1  0.50023932  0.12268416  0.62388285  1
  V  V64  1  0.25081953  0.37592132  0.12613072  1
  V  V65  1  0.37415384  0.50094144  0.37463923  1
  V  V66  1  0.24944459  0.24943070  0.00079801  1
  V  V67  1  0.62540167  0.24873098  0.37642470  1
  V  V68  1  0.12595240  0.12693983  0.50174492  1
  V  V69  1  0.00080045  0.87637785  0.37369169  1
  V  V70  1  0.75094122  0.62545092  0.87356564  1
  V  V71  1  0.37634212  0.87486677  0.49905233  1
  V  V72  1  0.74771574  -0.00053712  0.24854162  1
  V  V73  1  0.25031938  -0.00002443  0.25146318  1
  V  V74  1  0.87380266  0.87505060  0.00079820  1
  V  V75  1  0.12400998  0.75211018  0.87452245  1
  V  V76  1  0.24935213  0.87529258  0.62562832  1
  V  V77  1  0.50022073  0.37454598  0.37605198  1
  V  V78  1  0.50256645  0.49781188  -0.00112371  1
  V  V79  1  0.50058627  0.49938958  0.49998157  1
  V  V80  1  0.75045022  0.50007069  0.74883155  1
  V  V81  1  0.49940080  -0.00084971  -0.00037554  1
  V  V82  1  0.62447471  0.24925194  0.87423883  1
  V  V83  1  0.87429696  0.75135228  0.62297967  1
  V  V84  1  0.62624450  0.49879638  0.62469569  1
  V  V85  1  0.00011639  0.12626702  0.62562204  1
  V  V86  1  0.74865879  0.12514965  0.37558687  1
  V  V87  1  0.49971131  0.74985946  0.74922303  1
  V  V88  1  -0.00044404  0.37646812  0.87682862  1
  V  V89  1  0.00084936  0.25131719  0.25257003  1
  V  V90  1  -0.00076866  0.00100769  0.00087239  1
  V  V91  1  -0.00005098  0.12564967  0.12585084  1
  V  V92  1  0.24962642  0.25005993  0.50179577  1
  V  V93  1  0.25012659  0.87534034  0.12646649  1
  V  V94  1  0.00063471  0.62590918  0.62380797  1
  V  V95  1  0.87712205  0.37616502  0.49972621  1
  Zn  Zn96  1  0.74736129  0.87580308  0.62141864  1
  Zn  Zn97  1  0.12439283  0.00045162  0.12613945  1
  Zn  Zn98  1  0.00096091  0.50113608  0.49871069  1
  Zn  Zn99  1  0.62385918  0.12217026  0.50052303  1
  Zn  Zn100  1  0.62387000  0.87149879  0.24613393  1
  Zn  Zn101  1  0.87578407  0.37595314  0.00250597  1
  Zn  Zn102  1  0.62771208  0.49702696  0.12347600  1
  Zn  Zn103  1  0.12396243  0.87537651  0.74973498  1
  Zn  Zn104  1  0.12480127  0.12497151  0.00122056  1
  Zn  Zn105  1  -0.00045854  0.87781664  0.87267610  1
  Zn  Zn106  1  0.87377221  0.12514323  0.74916665  1
  Zn  Zn107  1  0.50078516  0.24849378  0.75040063  1
  Zn  Zn108  1  0.37556319  0.74713051  0.12521197  1
  Zn  Zn109  1  0.50169903  -0.00059829  0.49839898  1
  Zn  Zn110  1  -0.00174069  0.00280252  0.50032242  1
  Zn  Zn111  1  0.37426641  0.62407772  0.24743937  1
  Zn  Zn112  1  0.24786839  -0.00174392  0.75268252  1
  Zn  Zn113  1  0.12707641  0.50245370  0.12523609  1
  Zn  Zn114  1  0.74731819  0.87321570  0.12575817  1
  Zn  Zn115  1  0.24962617  0.50146952  0.75289925  1
  Zn  Zn116  1  0.00182985  0.75119849  0.24883569  1
  Zn  Zn117  1  0.12588415  0.87542435  0.25117924  1
  Zn  Zn118  1  0.75019524  0.37392687  0.62560168  1
  Zn  Zn119  1  0.00323677  0.37820239  0.37510779  1
  Zn  Zn120  1  0.49922220  0.74758692  0.24587488  1
  Zn  Zn121  1  0.12626241  0.25223289  0.37792271  1
  Zn  Zn122  1  0.25076793  0.62367111  0.87563848  1
  Zn  Zn123  1  0.87417436  0.25379351  0.12612292  1
  Zn  Zn124  1  0.25095893  0.50214162  0.24857328  1
  Zn  Zn125  1  0.75207953  0.37608227  0.12455900  1
  Zn  Zn126  1  0.62404373  -0.00142314  0.62126611  1
  Zn  Zn127  1  0.37721408  -0.00004324  0.37733069  1
  Zn  Zn128  1  0.18619504  0.18816099  0.18799396  1
  Zn  Zn129  1  0.18706482  0.18834483  0.69049904  1
  Zn  Zn130  1  0.18735424  0.68884660  0.19003879  1
  Zn  Zn131  1  0.18848744  0.68711058  0.68926767  1
  Zn  Zn132  1  0.68609602  0.18634625  0.18748329  1
  Zn  Zn133  1  0.68693078  0.18743016  0.68650749  1
  Zn  Zn134  1  0.68639807  0.68514886  0.18577512  1
  Zn  Zn135  1  0.68821259  0.68791309  0.68518034  1
  Zn  Zn136  1  0.31199364  0.31283759  0.31438342  1
  Zn  Zn137  1  0.31205856  0.31165679  0.81244741  1
  Zn  Zn138  1  0.31723949  0.80761639  0.30974043  1
  Zn  Zn139  1  0.30994654  0.81259086  0.81123902  1
  Zn  Zn140  1  0.81336170  0.31300581  0.31444625  1
  Zn  Zn141  1  0.81248337  0.31384652  0.81403061  1
  Zn  Zn142  1  0.81127786  0.81344251  0.31001442  1
  Zn  Zn143  1  0.81369527  0.81493030  0.81243973  1
  Zn  Zn144  1  0.18758722  0.43885192  0.43821978  1
  Zn  Zn145  1  0.18837701  0.43837664  0.93858592  1
  Zn  Zn146  1  0.18811903  0.93917169  0.43963360  1
  Zn  Zn147  1  0.18500585  0.93798827  0.93944294  1
  Zn  Zn148  1  0.68998682  0.43625665  0.43612164  1
  Zn  Zn149  1  0.68863280  0.43633010  0.93513690  1
  Zn  Zn150  1  0.68382436  0.93808412  0.43660653  1
  Zn  Zn151  1  0.68708372  0.93545588  0.93646584  1
  Zn  Zn152  1  0.31283459  0.06238522  0.06284669  1
  Zn  Zn153  1  0.31369672  0.06011600  0.56262012  1
  Zn  Zn154  1  0.31250519  0.56033995  0.06020262  1
  Zn  Zn155  1  0.31116180  0.56190718  0.56278369  1
  Zn  Zn156  1  0.81257320  0.06385668  0.06424870  1
  Zn  Zn157  1  0.81294767  0.06344572  0.56212220  1
  Zn  Zn158  1  0.81376441  0.56236542  0.06302071  1
  Zn  Zn159  1  0.81264580  0.56268916  0.56192635  1
  Zn  Zn160  1  0.43860526  0.43923211  0.18841473  1
  Zn  Zn161  1  0.43900701  0.43741878  0.68911780  1
  Zn  Zn162  1  0.43621096  0.93651101  0.18845768  1
  Zn  Zn163  1  0.43519149  0.93900959  0.68793966  1
  Zn  Zn164  1  0.93702595  0.43778386  0.18433654  1
  Zn  Zn165  1  0.93870701  0.43812461  0.68700063  1
  Zn  Zn166  1  0.93346649  0.93756388  0.18789680  1
  Zn  Zn167  1  0.93683643  0.93670770  0.68619084  1
  Zn  Zn168  1  0.06485346  0.06347178  0.31469494  1
  Zn  Zn169  1  0.06176383  0.06521201  0.81248582  1
  Zn  Zn170  1  0.06228423  0.56333912  0.31283015  1
  Zn  Zn171  1  0.06296449  0.56510545  0.81267106  1
  Zn  Zn172  1  0.56330394  0.06018878  0.31280443  1
  Zn  Zn173  1  0.56137519  0.06180239  0.81035240  1
  Zn  Zn174  1  0.56304950  0.56022185  0.31012077  1
  Zn  Zn175  1  0.56216115  0.56094972  0.81149908  1
  Zn  Zn176  1  0.43603119  0.18795218  0.43963109  1
  Zn  Zn177  1  0.43685472  0.18692980  0.93729323  1
  Zn  Zn178  1  0.43736010  0.68781398  0.43638922  1
  Zn  Zn179  1  0.43709557  0.68646455  0.93832401  1
  Zn  Zn180  1  0.93838184  0.18813159  0.43817149  1
  Zn  Zn181  1  0.93480307  0.18621845  0.93593105  1
  Zn  Zn182  1  0.93860827  0.68896461  0.43656125  1
  Zn  Zn183  1  0.93915194  0.68805911  0.93785678  1
  Zn  Zn184  1  0.06344789  0.31434410  0.06409347  1
  Zn  Zn185  1  0.06227543  0.31308331  0.56499574  1
  Zn  Zn186  1  0.06270101  0.81431414  0.06351209  1
  Zn  Zn187  1  0.06120842  0.81386558  0.56020112  1
  Zn  Zn188  1  0.56533760  0.31184483  0.06381793  1
  Zn  Zn189  1  0.56262892  0.31009381  0.56392960  1
  Zn  Zn190  1  0.56332126  0.81057887  0.06058880  1
  Zn  Zn191  1  0.56350457  0.81240850  0.56026973  1
  O  O192  1  0.11162237  0.12308185  0.12447458  1
  O  O193  1  0.12076058  0.11849779  0.62181044  1
  O  O194  1  0.11875937  0.62628471  0.11894553  1
  O  O195  1  0.12033131  0.62161296  0.62012163  1
  O  O196  1  0.61766251  0.11896124  0.11869184  1
  O  O197  1  0.61192973  0.12458915  0.62466308  1
  O  O198  1  0.61687726  0.62103762  0.11530234  1
  O  O199  1  0.61951244  0.61937713  0.61855405  1
  O  O200  1  0.38075132  0.37951112  0.38265000  1
  O  O201  1  0.38143555  0.37793429  0.88072573  1
  O  O202  1  0.38451070  0.87223551  0.38111753  1
  O  O203  1  0.37922672  0.87995140  0.87950743  1
  O  O204  1  0.87719168  0.38072346  0.38478659  1
  O  O205  1  0.88227587  0.38345489  0.87659042  1
  O  O206  1  0.88229605  0.88043196  0.37836375  1
  O  O207  1  0.87732673  0.88201263  0.88294103  1
  O  O208  1  0.25274557  0.00551685  0.36705217  1
  O  O209  1  0.25427014  0.00638399  0.87621733  1
  O  O210  1  0.25736483  0.50680416  0.37626959  1
  O  O211  1  0.25961733  0.50179402  0.87423255  1
  O  O212  1  0.75440361  0.00593187  0.36888410  1
  O  O213  1  0.75319615  0.00405651  0.86728645  1
  O  O214  1  0.75695194  0.50587437  0.36920197  1
  O  O215  1  0.75605997  0.50663304  0.86853103  1
  O  O216  1  0.24849149  0.49093592  0.12676581  1
  O  O217  1  0.24325412  0.49349702  0.62751872  1
  O  O218  1  0.24983992  0.99307539  0.13318348  1
  O  O219  1  0.24005091  0.99483425  0.62655056  1
  O  O220  1  0.74832205  0.49897537  0.13293326  1
  O  O221  1  0.74372881  0.49976564  0.63130292  1
  O  O222  1  0.74287863  1.00065179  0.13046628  1
  O  O223  1  0.74928843  0.99898283  0.63684994  1
  O  O224  1  0.00846169  0.36647280  0.24865013  1
  O  O225  1  0.00537221  0.37036550  0.75671678  1
  O  O226  1  0.00083342  0.87653737  0.26250469  1
  O  O227  1  0.00224748  0.86717474  0.75236872  1
  O  O228  1  0.50546821  0.36893720  0.25678610  1
  O  O229  1  0.50772323  0.37249834  0.75663335  1
  O  O230  1  0.50044624  0.87150742  0.25975748  1
  O  O231  1  0.50347234  0.86914512  0.75510198  1
  O  O232  1  0.49465126  0.13037004  0.24510266  1
  O  O233  1  0.49211258  0.12612342  0.74206585  1
  O  O234  1  0.50070374  0.62192434  0.23534216  1
  O  O235  1  0.49568093  0.63065949  0.74376592  1
  O  O236  1  0.99674814  0.13166561  0.24459893  1
  O  O237  1  0.99732841  0.13333964  0.74396253  1
  O  O238  1  0.99371904  0.62745199  0.24345111  1
  O  O239  1  0.99394045  0.63219461  0.74383937  1
  O  O240  1  0.37024276  0.25473473  0.00635719  1
  O  O241  1  0.36892164  0.25696703  0.50731460  1
  O  O242  1  0.36750096  0.75723913  -0.00061692  1
  O  O243  1  0.36948685  0.75442083  0.50666435  1
  O  O244  1  0.86226702  0.24969070  -0.00022595  1
  O  O245  1  0.87064337  0.25810280  0.50433989  1
  O  O246  1  0.87026537  0.75469597  0.00398922  1
  O  O247  1  0.86883168  0.75514290  0.50317159  1
  O  O248  1  0.13202375  0.24505183  0.50186596  1
  O  O249  1  0.13137832  0.24942843  0.99473543  1
  O  O250  1  0.13109693  0.74526679  0.49499449  1
  O  O251  1  0.12868235  0.74689467  0.99241017  1
  O  O252  1  0.63213885  0.24945580  0.49337982  1
  O  O253  1  0.63229292  0.24277610  0.99449388  1
  O  O254  1  0.63063722  0.74232535  0.49307156  1
  O  O255  1  0.63098677  0.74344640  0.99098176  1
  O  O256  1  0.49531695  0.24375336  0.13087679  1
  O  O257  1  0.49263456  0.24062014  0.62695245  1
  O  O258  1  0.49931948  0.73617521  0.12068362  1
  O  O259  1  0.49474806  0.74398032  0.62957367  1
  O  O260  1  0.99990334  0.24146183  0.13459853  1
  O  O261  1  0.99488350  0.24571317  0.63229181  1
  O  O262  1  0.99316632  0.74506645  0.12589107  1
  O  O263  1  0.99421856  0.74523786  0.62901053  1
  O  O264  1  0.00309507  0.25089066  0.36241038  1
  O  O265  1  0.00386870  0.25562499  0.87148900  1
  O  O266  1  0.00559542  0.76114437  0.37420889  1
  O  O267  1  0.00878758  0.75189950  0.87001249  1
  O  O268  1  0.50437477  0.25541317  0.37068135  1
  O  O269  1  0.50702259  0.25477023  0.87492464  1
  O  O270  1  0.50646718  0.75648653  0.37396262  1
  O  O271  1  0.50533763  0.75505842  0.86901275  1
  O  O272  1  0.24640101  0.13103691  0.49710439  1
  O  O273  1  0.24869248  0.13170485  0.99556159  1
  O  O274  1  0.24434341  0.63168787  0.49562966  1
  O  O275  1  0.24334610  0.63267235  0.99905745  1
  O  O276  1  0.74956983  0.13211023  0.49293432  1
  O  O277  1  0.74396858  0.13084150  0.99432352  1
  O  O278  1  0.74493340  0.62938873  0.49275595  1
  O  O279  1  0.74594085  0.62968460  0.99193526  1
  O  O280  1  0.25695374  0.36867447  0.00575889  1
  O  O281  1  0.25534108  0.37007169  0.50746802  1
  O  O282  1  0.25369283  0.87191493  0.00874135  1
  O  O283  1  0.25606476  0.86875090  0.50529746  1
  O  O284  1  0.74995083  0.36231387  -0.00119744  1
  O  O285  1  0.76179997  0.36908933  0.50060563  1
  O  O286  1  0.75589257  0.86735593  0.00016227  1
  O  O287  1  0.75570166  0.86755658  0.49767026  1
  O  O288  1  0.12573805  0.48802826  0.24824161  1
  O  O289  1  0.12577373  0.49462936  0.74491394  1
  O  O290  1  0.13924701  0.99959854  0.24930151  1
  O  O291  1  0.12492806  0.99936015  0.73809950  1
  O  O292  1  0.63350947  0.49163794  0.25050110  1
  O  O293  1  0.63081760  0.49507734  0.74435348  1
  O  O294  1  0.63081453  0.99922939  0.24170665  1
  O  O295  1  0.63419387  0.99339946  0.74989767  1
  O  O296  1  0.36452932  0.00696069  0.25086500  1
  O  O297  1  0.37146466  0.00607025  0.75849316  1
  O  O298  1  0.37304721  0.50114353  0.25999385  1
  O  O299  1  0.37553525  0.50600606  0.75646213  1
  O  O300  1  0.86838179  0.00727541  0.25580370  1
  O  O301  1  0.86451139  -0.00013781  0.75565780  1
  O  O302  1  0.87081335  0.50584900  0.25560649  1
  O  O303  1  0.87079666  0.50700239  0.75459369  1
  O  O304  1  0.12409782  0.37293530  0.36534494  1
  O  O305  1  0.11929083  0.37016528  0.87076779  1
  O  O306  1  0.11606628  0.87179758  0.37714718  1
  O  O307  1  0.12202020  0.86380105  0.87459311  1
  O  O308  1  0.61935321  0.36867974  0.37044158  1
  O  O309  1  0.61984722  0.36903631  0.86903516  1
  O  O310  1  0.61500167  0.86666576  0.37346081  1
  O  O311  1  0.61799042  0.86848602  0.86879633  1
  O  O312  1  0.38056875  0.13076704  0.13103552  1
  O  O313  1  0.38032845  0.12995979  0.63077701  1
  O  O314  1  0.38790258  0.62352049  0.12097793  1
  O  O315  1  0.38115024  0.63006825  0.62930864  1
  O  O316  1  0.88554767  0.12782969  0.13245377  1
  O  O317  1  0.88213053  0.13212843  0.62610642  1
  O  O318  1  0.88129108  0.63104254  0.12971563  1
  O  O319  1  0.88019406  0.63134291  0.62925737  1
  O  O320  1  0.25653787  0.25456594  0.12074426  1
  O  O321  1  0.25493499  0.25623893  0.62140469  1
  O  O322  1  0.25039376  0.76075857  0.11927338  1
  O  O323  1  0.25520897  0.75465973  0.61937434  1
  O  O324  1  0.75021509  0.24778891  0.11279664  1
  O  O325  1  0.75686228  0.25095912  0.61881115  1
  O  O326  1  0.75625610  0.74833596  0.11596727  1
  O  O327  1  0.75660111  0.75058455  0.61641713  1
  O  O328  1  0.24977228  0.24365117  0.38397361  1
  O  O329  1  0.24438262  0.24552185  0.88193038  1
  O  O330  1  0.24567203  0.74551632  0.38160875  1
  O  O331  1  0.23966335  0.75017960  0.88123702  1
  O  O332  1  0.74506479  0.24392721  0.37993028  1
  O  O333  1  0.74428312  0.24387164  0.88225495  1
  O  O334  1  0.74472760  0.74325399  0.37873032  1
  O  O335  1  0.74515279  0.74420619  0.87820578  1
  O  O336  1  -0.00281762  0.11758025  0.00952401  1
  O  O337  1  0.00721092  0.12551507  0.50725108  1
  O  O338  1  0.00592622  0.62106138  0.00550264  1
  O  O339  1  0.00698784  0.62613802  0.50661967  1
  O  O340  1  0.50422246  0.11882520  0.00530378  1
  O  O341  1  0.49868842  0.12369961  0.51148271  1
  O  O342  1  0.50641602  0.61763833  0.00388664  1
  O  O343  1  0.50595948  0.61911853  0.50511296  1
  O  O344  1  0.49476350  0.37980792  0.49580139  1
  O  O345  1  0.49611663  0.37746422  0.99444839  1
  O  O346  1  0.49391575  0.87269540  0.48963346  1
  O  O347  1  0.49424181  0.87974461  0.99305351  1
  O  O348  1  0.98841643  0.37525474  0.49875244  1
  O  O349  1  1.00029608  0.38212200  0.99367204  1
  O  O350  1  0.99292796  0.87733508  0.48829285  1
  O  O351  1  0.99332495  0.88718261  1.00105609  1
  O  O352  1  0.49552656  0.49397180  0.38168369  1
  O  O353  1  0.49580269  0.49244784  0.87976558  1
  O  O354  1  0.49778500  0.98708213  0.37485022  1
  O  O355  1  0.49374618  0.99422032  0.88031688  1
  O  O356  1  0.99184287  0.49879647  0.37843286  1
  O  O357  1  0.99557366  0.49676769  0.87995825  1
  O  O358  1  0.99407229  0.99327605  0.37640716  1
  O  O359  1  0.99363110  1.00211068  0.88505274  1
  O  O360  1  -0.00163272  0.00890687  0.11875338  1
  O  O361  1  0.00829614  0.00633228  0.62341231  1
  O  O362  1  0.00204521  0.50854950  0.11779770  1
  O  O363  1  0.00662792  0.50840996  0.62373631  1
  O  O364  1  0.50320325  0.00525197  0.11898662  1
  O  O365  1  0.49935977  0.01121194  0.62469475  1
  O  O366  1  0.50319640  0.50590351  0.11629281  1
  O  O367  1  0.50612868  0.50533003  0.61921258  1
  O  O368  1  0.24138043  0.37367604  0.24507672  1
  O  O369  1  0.24263792  0.37588810  0.74452053  1
  O  O370  1  0.25320271  0.88359635  0.24290416  1
  O  O371  1  0.24566369  0.87709487  0.74096864  1
  O  O372  1  0.74456453  0.38012748  0.25106966  1
  O  O373  1  0.74389901  0.38272438  0.74932222  1
  O  O374  1  0.74639840  0.88407622  0.24704896  1
  O  O375  1  0.74374474  0.88407101  0.74973858  1
  O  O376  1  0.25487597  0.11917407  0.25449662  1
  O  O377  1  0.25560371  0.12405980  0.75858989  1
  O  O378  1  0.25136127  0.62210165  0.25895206  1
  O  O379  1  0.25930765  0.62314009  0.75318298  1
  O  O380  1  0.75535787  0.12087492  0.25589701  1
  O  O381  1  0.74953412  0.11443016  0.75582091  1
  O  O382  1  0.75627611  0.61850061  0.25515663  1
  O  O383  1  0.75557529  0.62056919  0.75442306  1
  O  O384  1  0.36912143  0.12406808  0.36865922  1
  O  O385  1  0.36884575  0.11970419  0.87149371  1
  O  O386  1  0.36897006  0.61761120  0.37681679  1
  O  O387  1  0.37600096  0.61787879  0.86890737  1
  O  O388  1  0.86958934  0.12044419  0.37036180  1
  O  O389  1  0.86660077  0.11747483  0.87220018  1
  O  O390  1  0.86975724  0.62087121  0.37003343  1
  O  O391  1  0.87051960  0.62140772  0.86795398  1
  O  O392  1  0.13198460  0.37571664  0.13494196  1
  O  O393  1  0.12944228  0.38092917  0.63177361  1
  O  O394  1  0.13754175  0.87850580  0.12805884  1
  O  O395  1  0.12941823  0.88455164  0.62313776  1
  O  O396  1  0.62856999  0.37600048  0.13428503  1
  O  O397  1  0.62654645  0.38121943  0.63072965  1
  O  O398  1  0.62570710  0.88276085  0.12444732  1
  O  O399  1  0.62669717  0.87586432  0.63249793  1
  O  O400  1  0.11711257  0.25868239  0.25143879  1
  O  O401  1  0.11808697  0.25684975  0.75695039  1
  O  O402  1  0.12276843  0.75547466  0.25995925  1
  O  O403  1  0.11875869  0.74967276  0.75916704  1
  O  O404  1  0.61920125  0.25410863  0.25647486  1
  O  O405  1  0.62499499  0.25597147  0.75728802  1
  O  O406  1  0.62197556  0.74973628  0.25670721  1
  O  O407  1  0.61945990  0.75394943  0.75405475  1
  O  O408  1  0.38106336  0.24587121  0.24522849  1
  O  O409  1  0.37630622  0.24317565  0.74443188  1
  O  O410  1  0.38088955  0.74186940  0.24287606  1
  O  O411  1  0.38116700  0.74491136  0.74465274  1
  O  O412  1  0.88504774  0.24462388  0.25054781  1
  O  O413  1  0.88035870  0.24992600  0.74446824  1
  O  O414  1  0.87557158  0.74309673  0.24305981  1
  O  O415  1  0.87914735  0.74530723  0.74390918  1
  O  O416  1  0.38145156  0.49421024  0.49628284  1
  O  O417  1  0.38249293  0.49177110  0.99358402  1
  O  O418  1  0.37749403  0.98931177  0.49760707  1
  O  O419  1  0.38042563  0.99421872  0.99462846  1
  O  O420  1  0.87538900  0.49130300  0.49525654  1
  O  O421  1  0.88235879  0.50152639  0.99138501  1
  O  O422  1  0.87538382  0.99421846  0.49247935  1
  O  O423  1  0.88104069  0.99657922  0.99593612  1
  O  O424  1  0.11128820  0.00297231  0.00305551  1
  O  O425  1  0.12442582  0.00736093  0.51204710  1
  O  O426  1  0.11862389  0.50813670  0.00055397  1
  O  O427  1  0.12334544  0.50715150  0.50774841  1
  O  O428  1  0.61868808  0.00464858  0.00327715  1
  O  O429  1  0.62048360  0.00415192  0.50391867  1
  O  O430  1  0.62010613  0.50531141  -0.00238810  1
  O  O431  1  0.62062766  0.50431265  0.50390472  1
  O  O432  1  0.37208964  0.36860031  0.11990455  1
  O  O433  1  0.37047824  0.37068084  0.62090086  1
  O  O434  1  0.36465512  0.87483299  0.11803793  1
  O  O435  1  0.37039601  0.86823736  0.62012440  1
  O  O436  1  0.87084450  0.37045901  0.11984105  1
  O  O437  1  0.87452551  0.36993059  0.61588705  1
  O  O438  1  0.87186344  0.86832886  0.11838445  1
  O  O439  1  0.87305689  0.86865166  0.61592777  1
  O  O440  1  0.13284311  0.12738224  0.38367808  1
  O  O441  1  0.13031574  0.13319823  0.87755469  1
  O  O442  1  0.13043070  0.63107660  0.38131178  1
  O  O443  1  0.12538690  0.63704636  0.88142782  1
  O  O444  1  0.63059421  0.13216774  0.37554578  1
  O  O445  1  0.62883442  0.12871581  0.88046501  1
  O  O446  1  0.63037003  0.62796497  0.37981325  1
  O  O447  1  0.63069553  0.63014624  0.87745787  1
