# generated using pymatgen
data_V3Zn3O8
_symmetry_space_group_name_H-M   'P 1'
_cell_length_a   17.08817112
_cell_length_b   17.08829869
_cell_length_c   17.08803998
_cell_angle_alpha   90.00153472
_cell_angle_beta   89.99873211
_cell_angle_gamma   90.00405160
_symmetry_Int_Tables_number   1
_chemical_formula_structural   V3Zn3O8
_chemical_formula_sum   'V96 Zn96 O256'
_cell_volume   4989.84046869
_cell_formula_units_Z   32
loop_
 _symmetry_equiv_pos_site_id
 _symmetry_equiv_pos_as_xyz
  1  'x, y, z'
loop_
 _atom_site_type_symbol
 _atom_site_label
 _atom_site_symmetry_multiplicity
 _atom_site_fract_x
 _atom_site_fract_y
 _atom_site_fract_z
 _atom_site_occupancy
  V  V0  1  0.49908648  0.62586025  0.62519746  1
  V  V1  1  0.12432528  0.74975309  0.37467010  1
  V  V2  1  -0.00071329  0.25011178  0.24978893  1
  V  V3  1  0.12440916  0.62434522  0.00006573  1
  V  V4  1  0.24978160  0.74941750  0.49960745  1
  V  V5  1  0.25139290  0.12461712  0.87575554  1
  V  V6  1  0.87465651  0.62521310  0.74983253  1
  V  V7  1  0.12436250  0.87430559  0.74976441  1
  V  V8  1  0.62535855  0.75049736  0.87521282  1
  V  V9  1  0.37609635  -0.00048268  0.87554197  1
  V  V10  1  0.62509003  0.00024031  0.12372705  1
  V  V11  1  0.12505567  0.25016716  0.87457532  1
  V  V12  1  0.12520389  0.24877086  0.37551399  1
  V  V13  1  0.74895217  0.50173877  0.24989659  1
  V  V14  1  0.37452448  0.62522574  0.74872604  1
  V  V15  1  0.24995966  0.87338843  0.62383912  1
  V  V16  1  -0.00034451  -0.00022594  0.50075849  1
  V  V17  1  -0.00100351  0.37563043  0.37538446  1
  V  V18  1  0.62438743  0.62550103  0.50007652  1
  V  V19  1  0.62442164  0.37500920  0.25024484  1
  V  V20  1  0.12524049  0.12417900  0.00045967  1
  V  V21  1  0.49991437  0.50028635  0.00058190  1
  V  V22  1  0.12589967  0.87605928  0.24970258  1
  V  V23  1  0.49984543  0.87485630  0.37443496  1
  V  V24  1  -0.00005273  0.87486761  0.87599336  1
  V  V25  1  0.74998361  0.24996437  0.50100177  1
  V  V26  1  0.74941994  0.25151625  -0.00025676  1
  V  V27  1  0.37414512  0.62499970  0.24984749  1
  V  V28  1  0.37768408  0.24822756  0.62497474  1
  V  V29  1  0.24983803  0.62349095  0.87350993  1
  V  V30  1  0.50058237  0.37400743  0.87463393  1
  V  V31  1  0.12480906  0.74884022  0.87453356  1
  V  V32  1  0.25011127  -0.00019928  0.25055914  1
  V  V33  1  0.12631351  0.12515373  0.49929062  1
  V  V34  1  0.24964999  0.25019875  0.00052242  1
  V  V35  1  0.62506236  0.49988273  0.62456101  1
  V  V36  1  0.50079707  0.12547661  0.12465690  1
  V  V37  1  0.12322121  0.62287053  0.50054262  1
  V  V38  1  0.49962972  0.75035126  0.25021426  1
  V  V39  1  0.37481799  0.87426408  -0.00114228  1
  V  V40  1  0.49973228  0.50003700  0.49922861  1
  V  V41  1  0.87375352  0.75032475  0.62466223  1
  V  V42  1  0.37454797  0.75011735  0.12397308  1
  V  V43  1  0.62409250  0.37464570  0.75072730  1
  V  V44  1  0.12432603  -0.00040907  0.62540558  1
  V  V45  1  0.24904362  0.49842487  0.74903103  1
  V  V46  1  0.87474615  0.75087984  0.12549280  1
  V  V47  1  0.49965094  0.87490833  0.87391970  1
  V  V48  1  0.12346034  0.50043392  0.12460786  1
  V  V49  1  0.24952781  0.49982115  0.24991358  1
  V  V50  1  0.74907741  0.62595267  0.87522966  1
  V  V51  1  0.12464883  0.37433282  0.24985800  1
  V  V52  1  0.62476675  0.12408211  0.50064898  1
  V  V53  1  0.12564984  0.00014165  0.12530013  1
  V  V54  1  0.25043864  0.74933732  -0.00053469  1
  V  V55  1  0.49952108  0.62477222  0.12379654  1
  V  V56  1  0.37512778  0.49907204  0.37545995  1
  V  V57  1  0.75008171  0.62554366  0.37499741  1
  V  V58  1  0.37699178  0.12456371  0.75031479  1
  V  V59  1  0.87482719  0.00068827  0.37538984  1
  V  V60  1  0.37609264  0.37449912  0.49956101  1
  V  V61  1  0.87443937  0.25247647  0.12474546  1
  V  V62  1  -0.00089076  0.74913972  0.75004339  1
  V  V63  1  0.37531696  0.00038390  0.37425875  1
  V  V64  1  0.62417248  0.75040450  0.37450118  1
  V  V65  1  0.87579493  0.87574999  0.00082480  1
  V  V66  1  0.49925882  0.74976784  0.74916398  1
  V  V67  1  -0.00006978  0.87518381  0.37531016  1
  V  V68  1  0.75054208  0.87547205  0.12440446  1
  V  V69  1  0.87413440  0.87468536  0.50076397  1
  V  V70  1  0.37552582  0.24965747  0.12613980  1
  V  V71  1  0.75014475  -0.00059459  0.75007013  1
  V  V72  1  0.87519791  0.49992554  0.37612630  1
  V  V73  1  0.00025423  0.37485198  0.87462870  1
  V  V74  1  0.62483938  0.50152233  0.12528411  1
  V  V75  1  0.24912794  0.37402851  0.62471364  1
  V  V76  1  0.87533182  0.12646540  0.25046343  1
  V  V77  1  0.75044304  0.00051508  0.24941264  1
  V  V78  1  0.00039990  0.12535647  0.62666270  1
  V  V79  1  0.75137881  0.12507604  0.87565871  1
  V  V80  1  0.37521279  0.37531185  0.00032542  1
  V  V81  1  -0.00020144  0.75035047  0.24960616  1
  V  V82  1  0.24959906  0.37503499  0.12474996  1
  V  V83  1  0.87618480  0.24912397  0.62732867  1
  V  V84  1  0.50061895  0.00047408  0.50134772  1
  V  V85  1  0.00023858  0.62280423  0.62400994  1
  V  V86  1  0.62524942  0.25084545  0.37431383  1
  V  V87  1  0.75012161  0.37433300  0.62504958  1
  V  V88  1  0.00111664  0.00000589  0.00019420  1
  V  V89  1  0.37446697  0.12443222  0.24990043  1
  V  V90  1  0.74998590  0.75121067  0.50049025  1
  V  V91  1  0.74962052  0.50029384  0.74986556  1
  V  V92  1  -0.00036418  0.62573632  0.12494804  1
  V  V93  1  0.87548506  0.50002561  0.87548801  1
  V  V94  1  0.24889489  0.62475512  0.37515253  1
  V  V95  1  0.75000958  0.12540407  0.37543050  1
  Zn  Zn96  1  0.62551106  0.62512230  0.00026597  1
  Zn  Zn97  1  0.62503642  0.87420632  0.24904562  1
  Zn  Zn98  1  0.00054898  0.12538947  0.12458073  1
  Zn  Zn99  1  0.00062483  0.49750738  0.50178861  1
  Zn  Zn100  1  0.62587573  -0.00057936  0.62622308  1
  Zn  Zn101  1  0.75013698  0.37874525  0.12225488  1
  Zn  Zn102  1  0.50322756  0.12368411  0.62743695  1
  Zn  Zn103  1  0.62591105  0.24942171  0.87453091  1
  Zn  Zn104  1  0.25061917  0.87468136  0.12426251  1
  Zn  Zn105  1  0.74821219  0.87648427  0.62663096  1
  Zn  Zn106  1  0.00280669  0.24794336  0.75055826  1
  Zn  Zn107  1  0.49909530  0.37349138  0.37518218  1
  Zn  Zn108  1  0.87611334  0.37493697  0.50102763  1
  Zn  Zn109  1  0.37474225  0.49959558  0.87535116  1
  Zn  Zn110  1  -0.00209663  0.50047386  0.00038257  1
  Zn  Zn111  1  0.37525989  0.87406623  0.49991893  1
  Zn  Zn112  1  0.62413976  0.12646381  -0.00048922  1
  Zn  Zn113  1  0.87635478  0.00044763  0.87578610  1
  Zn  Zn114  1  0.62424045  0.87714506  0.74748018  1
  Zn  Zn115  1  0.37604896  0.75067477  0.62281280  1
  Zn  Zn116  1  0.25085984  0.12563212  0.37627619  1
  Zn  Zn117  1  0.74937795  0.74994277  0.00094246  1
  Zn  Zn118  1  0.87829560  0.12344267  0.75254619  1
  Zn  Zn119  1  0.12479930  0.37228025  0.74867501  1
  Zn  Zn120  1  0.49946650  0.25088267  0.25184188  1
  Zn  Zn121  1  0.25016561  -0.00128339  0.75013531  1
  Zn  Zn122  1  0.50358242  0.24889067  0.75120447  1
  Zn  Zn123  1  0.87459516  0.37843997  0.00040955  1
  Zn  Zn124  1  0.50052810  -0.00038712  -0.00072098  1
  Zn  Zn125  1  0.87455638  0.62638812  0.24928534  1
  Zn  Zn126  1  0.12164004  0.49652484  0.62276078  1
  Zn  Zn127  1  0.25155557  0.24740130  0.49758952  1
  Zn  Zn128  1  0.18805029  0.18620816  0.18815840  1
  Zn  Zn129  1  0.18874295  0.18692014  0.68855329  1
  Zn  Zn130  1  0.18713111  0.68817955  0.18692313  1
  Zn  Zn131  1  0.18597007  0.68633950  0.68587574  1
  Zn  Zn132  1  0.68836877  0.18828575  0.18728429  1
  Zn  Zn133  1  0.68719330  0.18576963  0.68862768  1
  Zn  Zn134  1  0.68725776  0.68762197  0.18774307  1
  Zn  Zn135  1  0.68653367  0.68840024  0.68808629  1
  Zn  Zn136  1  0.31136002  0.31100856  0.31271541  1
  Zn  Zn137  1  0.31437340  0.31106212  0.81258261  1
  Zn  Zn138  1  0.31275347  0.81413431  0.31319387  1
  Zn  Zn139  1  0.31285946  0.81127418  0.81119890  1
  Zn  Zn140  1  0.81073102  0.31463803  0.31194002  1
  Zn  Zn141  1  0.81357934  0.31318839  0.81219046  1
  Zn  Zn142  1  0.81221228  0.81380241  0.31153622  1
  Zn  Zn143  1  0.81275371  0.81438123  0.81359523  1
  Zn  Zn144  1  0.18721338  0.43653592  0.43851137  1
  Zn  Zn145  1  0.18586232  0.43761406  0.93722147  1
  Zn  Zn146  1  0.18786877  0.93850278  0.43725261  1
  Zn  Zn147  1  0.18906117  0.93740539  0.93701318  1
  Zn  Zn148  1  0.68839356  0.43648674  0.43755660  1
  Zn  Zn149  1  0.68672073  0.43801110  0.93813667  1
  Zn  Zn150  1  0.68644215  0.93622016  0.43681500  1
  Zn  Zn151  1  0.68806810  0.93709430  0.93734281  1
  Zn  Zn152  1  0.31250914  0.06049280  0.06273424  1
  Zn  Zn153  1  0.31222605  0.06110307  0.56181260  1
  Zn  Zn154  1  0.31223700  0.56205896  0.06175019  1
  Zn  Zn155  1  0.31219399  0.56236448  0.56247557  1
  Zn  Zn156  1  0.81400303  0.06418620  0.06191368  1
  Zn  Zn157  1  0.81252817  0.06361142  0.56416760  1
  Zn  Zn158  1  0.81200739  0.56503627  0.06078444  1
  Zn  Zn159  1  0.81254063  0.56319914  0.56184250  1
  Zn  Zn160  1  0.43830133  0.43780481  0.18749528  1
  Zn  Zn161  1  0.43672330  0.43826323  0.68752889  1
  Zn  Zn162  1  0.43726473  0.93665609  0.18694581  1
  Zn  Zn163  1  0.43664819  0.93645390  0.68725147  1
  Zn  Zn164  1  0.93706599  0.43874684  0.18936342  1
  Zn  Zn165  1  0.93737239  0.43617765  0.68947874  1
  Zn  Zn166  1  0.93874941  0.93812782  0.18682893  1
  Zn  Zn167  1  0.93488296  0.93771284  0.68895409  1
  Zn  Zn168  1  0.06218226  0.06383629  0.31237494  1
  Zn  Zn169  1  0.06323443  0.06183344  0.81238526  1
  Zn  Zn170  1  0.06087125  0.56287280  0.31187758  1
  Zn  Zn171  1  0.06290519  0.56021160  0.81068080  1
  Zn  Zn172  1  0.56260276  0.06264014  0.31168802  1
  Zn  Zn173  1  0.56498688  0.06230565  0.81445205  1
  Zn  Zn174  1  0.56140994  0.56290032  0.31262103  1
  Zn  Zn175  1  0.56219297  0.56238130  0.81285124  1
  Zn  Zn176  1  0.43934165  0.18693584  0.43642695  1
  Zn  Zn177  1  0.43738321  0.18824687  0.93922393  1
  Zn  Zn178  1  0.43612212  0.68794193  0.43798239  1
  Zn  Zn179  1  0.43685895  0.68670624  0.93570010  1
  Zn  Zn180  1  0.93838764  0.18790628  0.43960950  1
  Zn  Zn181  1  0.93770289  0.18798701  0.93873837  1
  Zn  Zn182  1  0.93735162  0.68636437  0.43804329  1
  Zn  Zn183  1  0.93652021  0.68801606  0.93919066  1
  Zn  Zn184  1  0.06112000  0.31303180  0.06072752  1
  Zn  Zn185  1  0.06193199  0.31120322  0.55968860  1
  Zn  Zn186  1  0.06324008  0.81301487  0.06300289  1
  Zn  Zn187  1  0.06205011  0.81043615  0.56243297  1
  Zn  Zn188  1  0.56363199  0.31344382  0.06323814  1
  Zn  Zn189  1  0.56255126  0.31233883  0.56194813  1
  Zn  Zn190  1  0.56148367  0.81331074  0.06087995  1
  Zn  Zn191  1  0.56449641  0.81553395  0.56409072  1
  O  O192  1  0.12409994  0.11900284  0.11794545  1
  O  O193  1  0.12064577  0.11946091  0.62021843  1
  O  O194  1  0.12001663  0.62010149  0.12000639  1
  O  O195  1  0.11771584  0.62347787  0.61827422  1
  O  O196  1  0.61758639  0.11764032  0.12591803  1
  O  O197  1  0.62243000  0.12247938  0.61637777  1
  O  O198  1  0.61680246  0.61950400  0.12443968  1
  O  O199  1  0.61958992  0.61920937  0.61955924  1
  O  O200  1  0.37524005  0.38123535  0.38081080  1
  O  O201  1  0.38389791  0.37548890  0.88146854  1
  O  O202  1  0.38186623  0.88219842  0.37692019  1
  O  O203  1  0.37964760  0.87931356  0.87864772  1
  O  O204  1  0.87935297  0.38395397  0.37508830  1
  O  O205  1  0.88418091  0.38113404  0.87406134  1
  O  O206  1  0.88068800  0.88121822  0.38040680  1
  O  O207  1  0.88337800  0.87496170  0.88298309  1
  O  O208  1  0.25686263  0.00114508  0.36862748  1
  O  O209  1  0.25725571  0.00679612  0.87286941  1
  O  O210  1  0.25501216  0.50504136  0.36898768  1
  O  O211  1  0.25082616  0.50408137  0.86534828  1
  O  O212  1  0.75554115  0.00554394  0.36981440  1
  O  O213  1  0.75143469  0.00900164  0.86988503  1
  O  O214  1  0.75633499  0.50550648  0.37069909  1
  O  O215  1  0.75424476  0.50532953  0.86859410  1
  O  O216  1  0.24405753  0.49473552  0.13068740  1
  O  O217  1  0.25106535  0.48976983  0.63229832  1
  O  O218  1  0.24373330  0.99747985  0.13189953  1
  O  O219  1  0.24322610  0.98912826  0.62556945  1
  O  O220  1  0.74378796  0.50055316  0.13159659  1
  O  O221  1  0.74485724  0.49531926  0.62994500  1
  O  O222  1  0.74338693  0.99716431  0.12970508  1
  O  O223  1  0.75032750  1.00076630  0.63692601  1
  O  O224  1  0.00593739  0.36937715  0.25540718  1
  O  O225  1  0.00323427  0.37242259  0.76197254  1
  O  O226  1  0.00587253  0.87066149  0.25651282  1
  O  O227  1  0.00478376  0.86855041  0.75527113  1
  O  O228  1  0.51270728  0.37479562  0.25162662  1
  O  O229  1  0.50411371  0.37582202  0.75937104  1
  O  O230  1  0.50090154  0.86772439  0.25614438  1
  O  O231  1  0.49984083  0.86814397  0.75667523  1
  O  O232  1  0.49452062  0.12570945  0.23878898  1
  O  O233  1  0.48885949  0.12670564  0.75014251  1
  O  O234  1  0.49291429  0.63004450  0.24444711  1
  O  O235  1  0.49448922  0.62873276  0.74443684  1
  O  O236  1  0.99277696  0.13255857  0.24858796  1
  O  O237  1  0.99817635  0.12675311  0.74264521  1
  O  O238  1  0.99931909  0.63312693  0.24312714  1
  O  O239  1  0.99436835  0.63008629  0.74510117  1
  O  O240  1  0.36879849  0.25566713  0.00694345  1
  O  O241  1  0.37451523  0.25415389  0.50922079  1
  O  O242  1  0.36953344  0.75390684  0.00409124  1
  O  O243  1  0.36571075  0.75248153  0.50188242  1
  O  O244  1  0.86721064  0.25132350  0.00954113  1
  O  O245  1  0.86878619  0.25041257  0.51067880  1
  O  O246  1  0.87436807  0.75789343  0.00803917  1
  O  O247  1  0.86967721  0.75498636  0.50451926  1
  O  O248  1  0.12656785  0.24256216  0.49323410  1
  O  O249  1  0.13125755  0.24440349  0.99537785  1
  O  O250  1  0.12936341  0.74359857  0.49306006  1
  O  O251  1  0.13044756  0.74424464  0.99396466  1
  O  O252  1  0.63075167  0.24473494  0.49493786  1
  O  O253  1  0.63814687  0.24895058  1.00080821  1
  O  O254  1  0.62980803  0.74429113  0.49398778  1
  O  O255  1  0.62483596  0.74826942  0.98671254  1
  O  O256  1  0.49496669  0.24139885  0.12635333  1
  O  O257  1  0.48773186  0.24892725  0.62712725  1
  O  O258  1  0.49422350  0.74459073  0.12991822  1
  O  O259  1  0.50003721  0.74317993  0.63060459  1
  O  O260  1  0.99049340  0.24995205  0.13042001  1
  O  O261  1  0.99154508  0.24522096  0.62546962  1
  O  O262  1  0.99543470  0.74591140  0.13076402  1
  O  O263  1  0.99371083  0.74393940  0.63080945  1
  O  O264  1  0.00401669  0.25557785  0.36898154  1
  O  O265  1  0.00528806  0.25817082  0.87486000  1
  O  O266  1  0.00480928  0.75565869  0.37023115  1
  O  O267  1  0.00576970  0.75434637  0.86934428  1
  O  O268  1  0.50907314  0.25276962  0.37174949  1
  O  O269  1  0.50220145  0.26262968  0.87658822  1
  O  O270  1  0.50442759  0.75392669  0.37010288  1
  O  O271  1  0.50685763  0.75378363  0.86898304  1
  O  O272  1  0.24177147  0.12591788  0.49810492  1
  O  O273  1  0.24601724  0.13097582  0.99522144  1
  O  O274  1  0.24418130  0.62935392  0.49400809  1
  O  O275  1  0.24463897  0.62933039  0.99361336  1
  O  O276  1  0.74497667  0.12980904  0.49385690  1
  O  O277  1  0.75030449  0.13401111  0.99285110  1
  O  O278  1  0.74363876  0.63104332  0.49466759  1
  O  O279  1  0.74627601  0.62959283  0.99078073  1
  O  O280  1  0.25470337  0.37010700  0.00563032  1
  O  O281  1  0.25711923  0.37408236  0.51032482  1
  O  O282  1  0.25641638  0.86627829  -0.00010960  1
  O  O283  1  0.24809206  0.86887216  0.50889738  1
  O  O284  1  0.75306672  0.36472084  0.00091431  1
  O  O285  1  0.75088067  0.36793450  0.50757599  1
  O  O286  1  0.75733451  0.87391387  0.00695617  1
  O  O287  1  0.75730092  0.86881309  0.49975119  1
  O  O288  1  0.13048583  0.49418553  0.24502152  1
  O  O289  1  0.13859816  0.49713349  0.74607397  1
  O  O290  1  0.12948229  0.99539279  0.24579227  1
  O  O291  1  0.12703363  0.99214509  0.74323840  1
  O  O292  1  0.62879433  0.49371683  0.24605963  1
  O  O293  1  0.63030173  0.49528541  0.74348325  1
  O  O294  1  0.63129656  0.99971163  0.23917910  1
  O  O295  1  0.63666460  0.99999315  0.74975710  1
  O  O296  1  0.37027463  0.00486291  0.25414784  1
  O  O297  1  0.37375271  0.00935963  0.75549731  1
  O  O298  1  0.36894254  0.50516811  0.25441377  1
  O  O299  1  0.36385160  0.50562050  0.75040028  1
  O  O300  1  0.87074485  0.00615145  0.25563026  1
  O  O301  1  0.86516691  0.00265285  0.75456013  1
  O  O302  1  0.86811953  0.50134696  0.26056117  1
  O  O303  1  0.86821258  0.50624754  0.75517471  1
  O  O304  1  0.11992386  0.36985544  0.36851762  1
  O  O305  1  0.11704730  0.36893181  0.87468081  1
  O  O306  1  0.11888378  0.86970196  0.37022681  1
  O  O307  1  0.12023521  0.86824270  0.86978920  1
  O  O308  1  0.62474950  0.37032017  0.36614302  1
  O  O309  1  0.61588080  0.37513864  0.86932707  1
  O  O310  1  0.61841175  0.86777022  0.37216933  1
  O  O311  1  0.61885564  0.86590294  0.87386257  1
  O  O312  1  0.38272360  0.12908904  0.12916568  1
  O  O313  1  0.37465360  0.13207654  0.63335444  1
  O  O314  1  0.37939888  0.62991195  0.13071311  1
  O  O315  1  0.38153366  0.62616767  0.63060693  1
  O  O316  1  0.87599794  0.13664720  0.13155974  1
  O  O317  1  0.88175507  0.13458883  0.62479198  1
  O  O318  1  0.88147025  0.63242576  0.12695873  1
  O  O319  1  0.87964364  0.63036736  0.63055510  1
  O  O320  1  0.25489254  0.25595233  0.11990531  1
  O  O321  1  0.26122648  0.25808601  0.62553240  1
  O  O322  1  0.25670725  0.74990743  0.11776228  1
  O  O323  1  0.24836877  0.75867074  0.61878169  1
  O  O324  1  0.75866747  0.25061529  0.11743580  1
  O  O325  1  0.75738365  0.25401769  0.62062298  1
  O  O326  1  0.75560900  0.75731518  0.12500202  1
  O  O327  1  0.75651058  0.74962750  0.61823069  1
  O  O328  1  0.24103548  0.24739682  0.37686007  1
  O  O329  1  0.24652273  0.24496362  0.88187220  1
  O  O330  1  0.24363587  0.74415122  0.37892141  1
  O  O331  1  0.24398389  0.74311718  0.87892489  1
  O  O332  1  0.74576859  0.24457045  0.38064465  1
  O  O333  1  0.75162157  0.24343482  0.88352331  1
  O  O334  1  0.74502352  0.74542386  0.38019818  1
  O  O335  1  0.74044906  0.74515048  0.87368972  1
  O  O336  1  0.00765736  0.11876525  0.00105657  1
  O  O337  1  0.00574671  0.11847436  0.50614693  1
  O  O338  1  0.00755712  0.62455130  0.00654385  1
  O  O339  1  0.00561577  0.62360009  0.50621837  1
  O  O340  1  0.50142287  0.12342572  0.01268929  1
  O  O341  1  0.50606010  0.11484418  0.49978277  1
  O  O342  1  0.49963173  0.61820502  0.00611038  1
  O  O343  1  0.50529788  0.61988258  0.50505520  1
  O  O344  1  0.49399470  0.38283171  0.49931634  1
  O  O345  1  0.49536727  0.37988872  0.99378931  1
  O  O346  1  0.49940660  0.88459783  0.49341997  1
  O  O347  1  0.49190216  0.87560361  0.99194892  1
  O  O348  1  0.99655509  0.37763078  0.49104294  1
  O  O349  1  0.99773176  0.37741107  0.98747458  1
  O  O350  1  0.99462475  0.87972418  0.49453914  1
  O  O351  1  0.99643558  0.88011821  0.99505370  1
  O  O352  1  0.49261258  0.49968845  0.38167389  1
  O  O353  1  0.49854959  0.48968130  0.88050348  1
  O  O354  1  0.49591705  0.99536567  0.38148974  1
  O  O355  1  0.49423836  0.99381106  0.87738726  1
  O  O356  1  0.98984258  0.49480589  0.37333596  1
  O  O357  1  0.99490484  0.49190687  0.87472569  1
  O  O358  1  0.99418621  0.99478441  0.38047369  1
  O  O359  1  1.00038748  0.99246583  0.88206876  1
  O  O360  1  0.00758572  0.00224187  0.11874875  1
  O  O361  1  0.00461225  0.00412442  0.61955038  1
  O  O362  1  0.00613702  0.50637007  0.12506637  1
  O  O363  1  0.00082089  0.50642250  0.62383435  1
  O  O364  1  0.50814805  0.00789322  0.12472961  1
  O  O365  1  0.49968152  0.00086868  0.61240814  1
  O  O366  1  0.50457647  0.50578121  0.12040948  1
  O  O367  1  0.50567383  0.50551971  0.61943931  1
  O  O368  1  0.24433249  0.38042769  0.24380993  1
  O  O369  1  0.25282777  0.38202540  0.74163699  1
  O  O370  1  0.24305918  0.88102045  0.24865788  1
  O  O371  1  0.24301093  0.87375418  0.74039150  1
  O  O372  1  0.73867409  0.38224313  0.24856031  1
  O  O373  1  0.74436373  0.38135169  0.74498374  1
  O  O374  1  0.74869668  0.88343635  0.24314867  1
  O  O375  1  0.74933604  0.88711465  0.75126577  1
  O  O376  1  0.25713672  0.11763291  0.25109523  1
  O  O377  1  0.26177981  0.12376389  0.75641088  1
  O  O378  1  0.25426100  0.61951558  0.25534833  1
  O  O379  1  0.25352646  0.61720957  0.75302607  1
  O  O380  1  0.75590435  0.12034535  0.25595837  1
  O  O381  1  0.75199913  0.11848307  0.76013341  1
  O  O382  1  0.75096251  0.61926776  0.25791566  1
  O  O383  1  0.75536444  0.61935598  0.75454950  1
  O  O384  1  0.37511550  0.11845173  0.36720510  1
  O  O385  1  0.37151526  0.12133780  0.86877549  1
  O  O386  1  0.36842426  0.61921663  0.36918282  1
  O  O387  1  0.36747345  0.62221501  0.86737806  1
  O  O388  1  0.86964676  0.12016864  0.37082081  1
  O  O389  1  0.86378778  0.12408274  0.87488466  1
  O  O390  1  0.86893125  0.61671004  0.37346723  1
  O  O391  1  0.86999267  0.62116511  0.86845561  1
  O  O392  1  0.12992803  0.37962086  0.13004521  1
  O  O393  1  0.13779094  0.37323592  0.62581615  1
  O  O394  1  0.12692554  0.88135656  0.13215378  1
  O  O395  1  0.13063659  0.87884444  0.62957912  1
  O  O396  1  0.62628026  0.38206617  0.13459630  1
  O  O397  1  0.63006386  0.38080310  0.63019329  1
  O  O398  1  0.62975057  0.88428283  0.12582891  1
  O  O399  1  0.63059367  0.88016638  0.62932467  1
  O  O400  1  0.11926869  0.25528316  0.25395675  1
  O  O401  1  0.12502537  0.25168502  0.75919671  1
  O  O402  1  0.12000195  0.75565621  0.25566668  1
  O  O403  1  0.11846296  0.75396119  0.75524287  1
  O  O404  1  0.62653862  0.25969173  0.25475106  1
  O  O405  1  0.62285673  0.25867145  0.75247119  1
  O  O406  1  0.61715352  0.75066772  0.25678113  1
  O  O407  1  0.61855774  0.75026426  0.76046552  1
  O  O408  1  0.37630553  0.24397012  0.24285550  1
  O  O409  1  0.37718681  0.24117838  0.74254635  1
  O  O410  1  0.37927984  0.74386256  0.24500895  1
  O  O411  1  0.38135976  0.74253332  0.74757284  1
  O  O412  1  0.87805411  0.24641173  0.24331377  1
  O  O413  1  0.87514144  0.24775808  0.73678439  1
  O  O414  1  0.88244351  0.75056380  0.24395129  1
  O  O415  1  0.87998714  0.74456967  0.74521157  1
  O  O416  1  0.38001553  0.49518709  0.49478403  1
  O  O417  1  0.38090898  0.49234893  0.99933564  1
  O  O418  1  0.38520253  0.99983821  0.49347898  1
  O  O419  1  0.37603137  0.99275114  0.99324748  1
  O  O420  1  0.87466322  0.49857377  0.48700744  1
  O  O421  1  0.87707267  0.49843526  0.99157002  1
  O  O422  1  0.88014698  0.99548091  0.49453320  1
  O  O423  1  0.88287303  0.99364175  1.00036760  1
  O  O424  1  0.12140744  0.00457847  0.00507464  1
  O  O425  1  0.11789788  0.00424622  0.50539414  1
  O  O426  1  0.12416130  0.50696964  0.00729658  1
  O  O427  1  0.12279669  0.50784720  0.50163213  1
  O  O428  1  0.62438825  0.00279305  0.01325220  1
  O  O429  1  0.61564452  0.00601555  0.49737424  1
  O  O430  1  0.61776563  0.50115525  0.00742143  1
  O  O431  1  0.62059114  0.50569390  0.50514726  1
  O  O432  1  0.36945067  0.36987420  0.12075207  1
  O  O433  1  0.36859193  0.36736275  0.62102296  1
  O  O434  1  0.37406845  0.86747923  0.11777636  1
  O  O435  1  0.36181463  0.87319479  0.62269243  1
  O  O436  1  0.87259629  0.36394611  0.12550485  1
  O  O437  1  0.86882763  0.36606568  0.62460049  1
  O  O438  1  0.87040138  0.87070622  0.12046688  1
  O  O439  1  0.87395172  0.86754388  0.61799648  1
  O  O440  1  0.12460426  0.13116717  0.38147095  1
  O  O441  1  0.13192178  0.12951559  0.88109666  1
  O  O442  1  0.12982185  0.63038876  0.37909394  1
  O  O443  1  0.12991141  0.62974017  0.87917727  1
  O  O444  1  0.63160809  0.13050868  0.37905076  1
  O  O445  1  0.63691048  0.12862546  0.87934650  1
  O  O446  1  0.62963933  0.63021875  0.38107151  1
  O  O447  1  0.62968251  0.63403711  0.87467044  1
