# generated using pymatgen
data_V3Zn3O8
_symmetry_space_group_name_H-M   'P 1'
_cell_length_a   17.08754022
_cell_length_b   17.08749251
_cell_length_c   17.08877111
_cell_angle_alpha   90.00592505
_cell_angle_beta   89.99812940
_cell_angle_gamma   89.98823954
_symmetry_Int_Tables_number   1
_chemical_formula_structural   V3Zn3O8
_chemical_formula_sum   'V96 Zn96 O256'
_cell_volume   4989.63420439
_cell_formula_units_Z   32
loop_
 _symmetry_equiv_pos_site_id
 _symmetry_equiv_pos_as_xyz
  1  'x, y, z'
loop_
 _atom_site_type_symbol
 _atom_site_label
 _atom_site_symmetry_multiplicity
 _atom_site_fract_x
 _atom_site_fract_y
 _atom_site_fract_z
 _atom_site_occupancy
  V  V0  1  0.50221560  0.12548584  0.12374277  1
  V  V1  1  0.37449369  0.37509100  0.50138689  1
  V  V2  1  0.62510459  0.25089992  0.37453278  1
  V  V3  1  -0.00000988  0.75066357  0.25180240  1
  V  V4  1  0.75057743  0.25135869  0.49984315  1
  V  V5  1  0.00037424  0.12577187  0.62426831  1
  V  V6  1  0.87328219  0.62588724  0.25039146  1
  V  V7  1  0.62498678  0.87539348  0.74978428  1
  V  V8  1  0.50085383  0.00038985  0.00016181  1
  V  V9  1  0.24987381  0.25001611  0.49881697  1
  V  V10  1  0.24966701  -0.00189727  0.24760576  1
  V  V11  1  0.25117588  0.37518292  0.62559970  1
  V  V12  1  0.37540187  0.50036028  0.87570792  1
  V  V13  1  0.87502065  0.37427797  -0.00010120  1
  V  V14  1  0.87440337  0.87395411  -0.00170703  1
  V  V15  1  0.24943279  0.62490905  0.37577492  1
  V  V16  1  0.12487784  0.50122926  0.62551617  1
  V  V17  1  0.74907917  0.50017514  0.25011075  1
  V  V18  1  0.37398435  0.50062151  0.37608853  1
  V  V19  1  0.50037910  0.37500983  0.37549928  1
  V  V20  1  0.87579944  0.12533871  0.24876509  1
  V  V21  1  0.24756631  0.49906674  0.25076372  1
  V  V22  1  0.37582391  0.12530350  0.24911459  1
  V  V23  1  0.37450317  0.75226718  0.62462290  1
  V  V24  1  0.12565484  0.24904122  0.87488989  1
  V  V25  1  0.37542181  -0.00017250  0.87512037  1
  V  V26  1  0.62608580  0.24967698  0.87520160  1
  V  V27  1  0.62467448  0.00199754  0.62427095  1
  V  V28  1  0.12470665  0.12513325  0.49723245  1
  V  V29  1  0.50032325  0.25079303  0.25030810  1
  V  V30  1  0.25069915  0.75144260  0.50065518  1
  V  V31  1  0.62388296  0.62640909  0.50030543  1
  V  V32  1  0.37490963  0.00128883  0.37565429  1
  V  V33  1  0.49993699  0.62609225  0.62562185  1
  V  V34  1  0.75083010  0.37505758  0.12496406  1
  V  V35  1  0.49929403  0.87673700  0.37586686  1
  V  V36  1  0.75262243  0.12351404  0.87392607  1
  V  V37  1  0.87582949  -0.00038148  0.37567537  1
  V  V38  1  0.00014571  0.37412109  0.87389509  1
  V  V39  1  0.62345899  0.75180140  0.37495468  1
  V  V40  1  0.74865029  0.87478269  0.12541697  1
  V  V41  1  0.74970126  0.87521738  0.62527584  1
  V  V42  1  0.50166938  0.37460972  0.87615774  1
  V  V43  1  -0.00103775  0.12447347  0.12467005  1
  V  V44  1  0.62517262  0.87620824  0.25013664  1
  V  V45  1  0.50096061  0.87498763  0.87464232  1
  V  V46  1  0.87532922  0.62547623  0.74885458  1
  V  V47  1  0.37583214  0.62505757  0.75169006  1
  V  V48  1  0.37340055  0.87248921  0.00296377  1
  V  V49  1  0.12538613  0.62487995  -0.00150666  1
  V  V50  1  0.75051521  0.37537113  0.62455578  1
  V  V51  1  0.87639276  0.12434704  0.74914505  1
  V  V52  1  0.74963086  0.75077937  0.50011890  1
  V  V53  1  0.25167498  0.50006088  0.75166456  1
  V  V54  1  0.87492909  0.49954389  0.87429014  1
  V  V55  1  0.12638618  0.37506623  0.75023199  1
  V  V56  1  0.37542909  0.12502656  0.74967038  1
  V  V57  1  0.62541896  0.12530344  0.50037508  1
  V  V58  1  0.00126183  0.24916916  0.74845281  1
  V  V59  1  0.25081507  0.24922010  0.00076140  1
  V  V60  1  0.12580667  -0.00203525  0.12502723  1
  V  V61  1  0.49991983  0.24927011  0.74973772  1
  V  V62  1  0.24965091  0.00009651  0.74984841  1
  V  V63  1  0.75099189  0.12639368  0.37425136  1
  V  V64  1  0.87532932  0.74924834  0.62565012  1
  V  V65  1  0.62510985  0.62517013  0.00033055  1
  V  V66  1  0.74854223  0.62556925  0.37533252  1
  V  V67  1  0.00123799  0.37503946  0.37314914  1
  V  V68  1  0.37434938  0.37419033  0.00098372  1
  V  V69  1  0.87411861  0.50049478  0.37595003  1
  V  V70  1  0.74990473  0.00030224  0.24953894  1
  V  V71  1  0.12436560  0.62437031  0.50210939  1
  V  V72  1  0.49911212  0.49955630  0.00148545  1
  V  V73  1  0.62478653  0.49921686  0.12632165  1
  V  V74  1  0.12465298  0.74992329  0.87513424  1
  V  V75  1  -0.00051063  -0.00229531  -0.00056471  1
  V  V76  1  0.00017445  0.49921533  -0.00071129  1
  V  V77  1  0.49896480  0.50062419  0.50089459  1
  V  V78  1  0.62511164  0.50018951  0.62574534  1
  V  V79  1  0.50033414  0.75115437  0.75048326  1
  V  V80  1  0.74965021  0.49859688  0.74966706  1
  V  V81  1  0.49768055  0.62472090  0.12695156  1
  V  V82  1  0.37512463  0.25028088  0.12450527  1
  V  V83  1  0.87564683  0.24966608  0.12452880  1
  V  V84  1  0.12430981  0.87394210  0.74917448  1
  V  V85  1  0.37465836  0.62546741  0.25009051  1
  V  V86  1  0.74884948  0.62445373  0.87664577  1
  V  V87  1  0.87596599  0.87610861  0.49902012  1
  V  V88  1  0.12417973  0.74981392  0.37491665  1
  V  V89  1  0.12451855  0.12315127  -0.00024496  1
  V  V90  1  0.24995332  0.12438030  0.87514509  1
  V  V91  1  0.87349228  0.74920945  0.12557717  1
  V  V92  1  0.87462665  0.37583347  0.49958776  1
  V  V93  1  0.12561416  0.00022506  0.62449595  1
  V  V94  1  0.62584123  0.12456933  -0.00094737  1
  V  V95  1  0.12449819  0.49772306  0.12607179  1
  Zn  Zn96  1  0.37685717  0.24832735  0.62478269  1
  Zn  Zn97  1  0.37229484  0.74871285  0.12719844  1
  Zn  Zn98  1  0.49884795  0.12617996  0.62313731  1
  Zn  Zn99  1  0.00034178  0.74806522  0.74782809  1
  Zn  Zn100  1  0.62532523  0.37513197  0.24985778  1
  Zn  Zn101  1  0.00346279  0.24981333  0.24889088  1
  Zn  Zn102  1  0.25145115  0.87621323  0.62247033  1
  Zn  Zn103  1  0.37342576  0.87766051  0.50191585  1
  Zn  Zn104  1  0.75083596  0.24961721  0.00002483  1
  Zn  Zn105  1  0.74785871  0.74967712  -0.00019826  1
  Zn  Zn106  1  0.24998751  0.74889085  0.00270591  1
  Zn  Zn107  1  0.00222292  0.87716260  0.37618020  1
  Zn  Zn108  1  0.49754617  0.75047938  0.24898622  1
  Zn  Zn109  1  -0.00044676  0.50114279  0.50167780  1
  Zn  Zn110  1  0.12535313  0.87319177  0.24919123  1
  Zn  Zn111  1  -0.00242167  0.87479918  0.87301234  1
  Zn  Zn112  1  0.12480772  0.25041102  0.37096984  1
  Zn  Zn113  1  0.87651532  -0.00257494  0.87212896  1
  Zn  Zn114  1  0.12586735  0.37156392  0.25035848  1
  Zn  Zn115  1  0.25181092  0.62585655  0.87555587  1
  Zn  Zn116  1  0.62590507  0.37459350  0.75030345  1
  Zn  Zn117  1  0.75308187  -0.00102037  0.74947753  1
  Zn  Zn118  1  0.62564335  0.00021338  0.12446186  1
  Zn  Zn119  1  0.62573465  0.75048934  0.87666934  1
  Zn  Zn120  1  0.87560462  0.25042994  0.62367965  1
  Zn  Zn121  1  0.24934475  0.37275424  0.12766014  1
  Zn  Zn122  1  0.49742504  0.00391535  0.50086301  1
  Zn  Zn123  1  -0.00195108  0.62416798  0.12489477  1
  Zn  Zn124  1  -0.00061481  0.62417068  0.62471913  1
  Zn  Zn125  1  0.24753192  0.86984158  0.12443272  1
  Zn  Zn126  1  0.00117312  -0.00088469  0.49781443  1
  Zn  Zn127  1  0.24923548  0.12655392  0.37318778  1
  Zn  Zn128  1  0.18657111  0.18604942  0.18751101  1
  Zn  Zn129  1  0.18861205  0.18739393  0.68530243  1
  Zn  Zn130  1  0.18820662  0.68625562  0.18585530  1
  Zn  Zn131  1  0.19010989  0.68699035  0.68696112  1
  Zn  Zn132  1  0.68818564  0.18880436  0.18683425  1
  Zn  Zn133  1  0.68866613  0.18854156  0.68798167  1
  Zn  Zn134  1  0.68497205  0.68917253  0.18746771  1
  Zn  Zn135  1  0.68823745  0.68799062  0.68921537  1
  Zn  Zn136  1  0.31221200  0.31414966  0.31283066  1
  Zn  Zn137  1  0.31414666  0.31246327  0.81395863  1
  Zn  Zn138  1  0.31232445  0.81202957  0.31287256  1
  Zn  Zn139  1  0.31063804  0.81208416  0.81424935  1
  Zn  Zn140  1  0.81449007  0.31282711  0.31052770  1
  Zn  Zn141  1  0.81354669  0.31044129  0.81056285  1
  Zn  Zn142  1  0.81239144  0.81352298  0.31336629  1
  Zn  Zn143  1  0.80957544  0.80924368  0.81255115  1
  Zn  Zn144  1  0.18565694  0.43811062  0.43857754  1
  Zn  Zn145  1  0.18912413  0.43656849  0.93783822  1
  Zn  Zn146  1  0.18781657  0.93532696  0.43507757  1
  Zn  Zn147  1  0.18775529  0.93630181  0.93636132  1
  Zn  Zn148  1  0.68650904  0.43773910  0.43811360  1
  Zn  Zn149  1  0.68759697  0.43766788  0.93870906  1
  Zn  Zn150  1  0.68855854  0.93914874  0.43806688  1
  Zn  Zn151  1  0.68788327  0.93847123  0.93739040  1
  Zn  Zn152  1  0.31365867  0.06163779  0.06314169  1
  Zn  Zn153  1  0.31150778  0.06405617  0.56428724  1
  Zn  Zn154  1  0.31008152  0.56173603  0.06396287  1
  Zn  Zn155  1  0.31156364  0.56458703  0.56433821  1
  Zn  Zn156  1  0.81236241  0.06042842  0.06166876  1
  Zn  Zn157  1  0.81277085  0.06286540  0.56226133  1
  Zn  Zn158  1  0.81176730  0.56189937  0.06279341  1
  Zn  Zn159  1  0.81217622  0.56253989  0.56240595  1
  Zn  Zn160  1  0.43589515  0.43732398  0.18879248  1
  Zn  Zn161  1  0.43799191  0.43619810  0.68837784  1
  Zn  Zn162  1  0.43896942  0.93842523  0.18682438  1
  Zn  Zn163  1  0.43829028  0.93793322  0.68734021  1
  Zn  Zn164  1  0.93748324  0.43791595  0.18817422  1
  Zn  Zn165  1  0.93805565  0.43823283  0.68628101  1
  Zn  Zn166  1  0.93667713  0.93642108  0.18675872  1
  Zn  Zn167  1  0.93924720  0.93891887  0.68484749  1
  Zn  Zn168  1  0.06160138  0.06213238  0.31185211  1
  Zn  Zn169  1  0.06082509  0.06039131  0.81333165  1
  Zn  Zn170  1  0.06081997  0.56318911  0.31370998  1
  Zn  Zn171  1  0.06118284  0.56285613  0.81099925  1
  Zn  Zn172  1  0.56362915  0.06334976  0.31168413  1
  Zn  Zn173  1  0.56376628  0.06203088  0.81161739  1
  Zn  Zn174  1  0.56165112  0.56239913  0.31235857  1
  Zn  Zn175  1  0.56319105  0.56232013  0.81322930  1
  Zn  Zn176  1  0.43830399  0.18739866  0.43778451  1
  Zn  Zn177  1  0.43800738  0.18702896  0.93675201  1
  Zn  Zn178  1  0.43613678  0.68939757  0.43743086  1
  Zn  Zn179  1  0.44019156  0.68841764  0.93799883  1
  Zn  Zn180  1  0.93771081  0.18972801  0.43656888  1
  Zn  Zn181  1  0.93751112  0.18718566  0.93758892  1
  Zn  Zn182  1  0.93823840  0.68726627  0.43926285  1
  Zn  Zn183  1  0.93875008  0.68826543  0.93578556  1
  Zn  Zn184  1  0.06160638  0.31128093  0.06189184  1
  Zn  Zn185  1  0.06234039  0.31392088  0.56112941  1
  Zn  Zn186  1  0.06039080  0.81195173  0.06529381  1
  Zn  Zn187  1  0.06054267  0.81175908  0.56291360  1
  Zn  Zn188  1  0.56432322  0.31169315  0.06204317  1
  Zn  Zn189  1  0.56391628  0.31287474  0.56318935  1
  Zn  Zn190  1  0.56083389  0.80977687  0.06400484  1
  Zn  Zn191  1  0.56080266  0.81524413  0.56207974  1
  O  O192  1  0.11909484  0.11810845  0.11777228  1
  O  O193  1  0.12106928  0.12047990  0.61663444  1
  O  O194  1  0.12250621  0.61446170  0.11530269  1
  O  O195  1  0.12582269  0.61849842  0.61986808  1
  O  O196  1  0.61964964  0.12499951  0.11745289  1
  O  O197  1  0.62656972  0.11630514  0.61999697  1
  O  O198  1  0.61892502  0.61820290  0.12098865  1
  O  O199  1  0.61937646  0.62058805  0.61953008  1
  O  O200  1  0.38058247  0.38142271  0.38214998  1
  O  O201  1  0.38166790  0.38013783  0.88168868  1
  O  O202  1  0.38322585  0.88520124  0.37379204  1
  O  O203  1  0.38051266  0.88068650  0.88206653  1
  O  O204  1  0.88105317  0.38108391  0.37959591  1
  O  O205  1  0.88071148  0.37959717  0.87902498  1
  O  O206  1  0.87389123  0.88214682  0.38185297  1
  O  O207  1  0.87463569  0.87425684  0.88571544  1
  O  O208  1  0.25949266  0.00119576  0.36556035  1
  O  O209  1  0.25513312  0.00617888  0.86947997  1
  O  O210  1  0.25485650  0.50541408  0.37151679  1
  O  O211  1  0.25779225  0.49992379  0.86882995  1
  O  O212  1  0.75526641  0.00729115  0.36924179  1
  O  O213  1  0.75179003  0.01288143  0.87218063  1
  O  O214  1  0.75349503  0.50623372  0.37036569  1
  O  O215  1  0.75617702  0.50370861  0.86950479  1
  O  O216  1  0.23939522  0.49812896  0.13118495  1
  O  O217  1  0.24587592  0.49438625  0.63229505  1
  O  O218  1  0.24526124  1.00000149  0.13373657  1
  O  O219  1  0.24316450  0.99919389  0.63268956  1
  O  O220  1  0.74477688  0.49484407  0.13102147  1
  O  O221  1  0.74399511  0.49527877  0.62981728  1
  O  O222  1  0.74855917  0.99314148  0.13216361  1
  O  O223  1  0.73982508  0.99410960  0.62504858  1
  O  O224  1  0.00021155  0.37441203  0.26127424  1
  O  O225  1  0.00656263  0.36956397  0.75518317  1
  O  O226  1  -0.00118414  0.86089416  0.25167476  1
  O  O227  1  0.01359472  0.87412607  0.75079714  1
  O  O228  1  0.50023567  0.36872790  0.25779627  1
  O  O229  1  0.50097353  0.36588583  0.75735127  1
  O  O230  1  0.50531593  0.87618211  0.26095728  1
  O  O231  1  0.50514144  0.87060007  0.75553163  1
  O  O232  1  0.49556384  0.13126245  0.24431788  1
  O  O233  1  0.49459641  0.13481650  0.75135222  1
  O  O234  1  0.49225185  0.62404317  0.24506524  1
  O  O235  1  0.49536928  0.63024834  0.74459399  1
  O  O236  1  0.99279360  0.12475205  0.24189294  1
  O  O237  1  0.99694720  0.13022387  0.74485625  1
  O  O238  1  0.99194348  0.63466610  0.25031260  1
  O  O239  1  0.99028832  0.62595968  0.74718288  1
  O  O240  1  0.37053885  0.25410233  0.00451437  1
  O  O241  1  0.36633944  0.25534234  0.50121903  1
  O  O242  1  0.37398530  0.76145747  -0.00084217  1
  O  O243  1  0.36860898  0.75122983  0.50637366  1
  O  O244  1  0.87463346  0.25699801  0.00590509  1
  O  O245  1  0.86741402  0.25717981  0.50085093  1
  O  O246  1  0.87526192  0.75862220  0.00619716  1
  O  O247  1  0.86754521  0.75492019  0.50459857  1
  O  O248  1  0.13427578  0.24219522  0.49960539  1
  O  O249  1  0.13017222  0.24329357  0.99439090  1
  O  O250  1  0.13076294  0.74423233  0.49519071  1
  O  O251  1  0.12262509  0.74106961  0.99319971  1
  O  O252  1  0.63081114  0.24535758  0.49378914  1
  O  O253  1  0.62694230  0.24255357  0.99244801  1
  O  O254  1  0.62957988  0.74581795  0.49529114  1
  O  O255  1  0.62621571  0.74065736  0.99830520  1
  O  O256  1  0.49479103  0.24512182  0.13017395  1
  O  O257  1  0.49958764  0.24948273  0.63711469  1
  O  O258  1  0.49486897  0.74013164  0.12892515  1
  O  O259  1  0.49503780  0.74522946  0.62991098  1
  O  O260  1  0.99356032  0.24214922  0.12454691  1
  O  O261  1  1.00068227  0.24428729  0.63150731  1
  O  O262  1  0.99316757  0.74629258  0.13565705  1
  O  O263  1  0.99031795  0.74638187  0.62731774  1
  O  O264  1  0.00057587  0.26261702  0.37270050  1
  O  O265  1  0.00697275  0.25445724  0.86923838  1
  O  O266  1  0.00494728  0.74967553  0.36600420  1
  O  O267  1  0.01273250  0.75249354  0.87113832  1
  O  O268  1  0.50492562  0.25559331  0.36992292  1
  O  O269  1  0.50504903  0.25453091  0.86792466  1
  O  O270  1  0.50484312  0.76058384  0.37461989  1
  O  O271  1  0.50228202  0.75707478  0.86743964  1
  O  O272  1  0.24181137  0.13408436  0.49976805  1
  O  O273  1  0.24497733  0.12889240  0.99423008  1
  O  O274  1  0.24504848  0.63096477  0.49446724  1
  O  O275  1  0.23641055  0.62387313  0.99689550  1
  O  O276  1  0.74552888  0.13175597  0.49340923  1
  O  O277  1  0.74575608  0.12557391  0.99011335  1
  O  O278  1  0.74293044  0.63094358  0.49460264  1
  O  O279  1  0.74317413  0.62353743  0.99417180  1
  O  O280  1  0.25683662  0.36686814  0.00127606  1
  O  O281  1  0.25443649  0.36815007  0.50496488  1
  O  O282  1  0.26263354  0.87599774  0.00035080  1
  O  O283  1  0.25238006  0.86663798  0.50131880  1
  O  O284  1  0.75794356  0.37432104  0.00638823  1
  O  O285  1  0.75479153  0.37066569  0.50429631  1
  O  O286  1  0.75888451  0.87480723  0.00568744  1
  O  O287  1  0.75470984  0.86921706  0.50534763  1
  O  O288  1  0.12855321  0.50185326  0.23991563  1
  O  O289  1  0.13170213  0.49373634  0.74689376  1
  O  O290  1  0.13505123  1.00069850  0.24475677  1
  O  O291  1  0.13006308  0.99299316  0.74604583  1
  O  O292  1  0.63137799  0.49875534  0.24447583  1
  O  O293  1  0.63105889  0.49853398  0.74324479  1
  O  O294  1  0.63246579  0.99442933  0.24904929  1
  O  O295  1  0.62690814  0.99481019  0.73977083  1
  O  O296  1  0.36889720  0.00537924  0.25596098  1
  O  O297  1  0.37015896  0.00469093  0.75624346  1
  O  O298  1  0.36815507  0.50474517  0.25739217  1
  O  O299  1  0.37199229  0.50502130  0.75604055  1
  O  O300  1  0.86904056  0.00551874  0.25467685  1
  O  O301  1  0.87395148  0.00839632  0.75139074  1
  O  O302  1  0.86843587  0.50674788  0.25558716  1
  O  O303  1  0.86905413  0.50434011  0.75557983  1
  O  O304  1  0.11303840  0.37587221  0.37454249  1
  O  O305  1  0.12006328  0.36890087  0.87006124  1
  O  O306  1  0.12257734  0.86590801  0.36965003  1
  O  O307  1  0.12416740  0.86686563  0.86698486  1
  O  O308  1  0.61792884  0.36900338  0.37458052  1
  O  O309  1  0.61917637  0.36866726  0.87489146  1
  O  O310  1  0.61790370  0.87235537  0.37096519  1
  O  O311  1  0.61875643  0.87558044  0.86820319  1
  O  O312  1  0.38223329  0.13090764  0.12907251  1
  O  O313  1  0.37822748  0.12679183  0.63394465  1
  O  O314  1  0.38039246  0.62192064  0.13218561  1
  O  O315  1  0.38173765  0.63058345  0.63158889  1
  O  O316  1  0.87963245  0.12920324  0.12863927  1
  O  O317  1  0.88184354  0.12693189  0.63058555  1
  O  O318  1  0.87524658  0.63042832  0.13207719  1
  O  O319  1  0.87267359  0.63140475  0.63114010  1
  O  O320  1  0.25722195  0.24920589  0.11788270  1
  O  O321  1  0.25156095  0.25637061  0.61491215  1
  O  O322  1  0.25397346  0.75250661  0.12048133  1
  O  O323  1  0.25764077  0.75122137  0.61868890  1
  O  O324  1  0.75735701  0.25671615  0.12273071  1
  O  O325  1  0.75060325  0.25735626  0.61777047  1
  O  O326  1  0.75619565  0.75684082  0.12431583  1
  O  O327  1  0.75418650  0.75559834  0.61879874  1
  O  O328  1  0.24922201  0.24923277  0.38766651  1
  O  O329  1  0.24490370  0.24389538  0.88041636  1
  O  O330  1  0.24428504  0.74364032  0.37984758  1
  O  O331  1  0.23695541  0.74746055  0.87902367  1
  O  O332  1  0.74516586  0.24595426  0.37940854  1
  O  O333  1  0.74542472  0.23953291  0.87534423  1
  O  O334  1  0.74331499  0.74502923  0.38064335  1
  O  O335  1  0.74586658  0.73975932  0.87861245  1
  O  O336  1  0.00530759  0.11844862  0.00483304  1
  O  O337  1  0.01057348  0.12668651  0.50484339  1
  O  O338  1  0.00997059  0.61802132  -0.00024215  1
  O  O339  1  0.00879658  0.62182764  0.50206249  1
  O  O340  1  0.50530142  0.12008011  0.00382105  1
  O  O341  1  0.50930889  0.12396627  0.50247582  1
  O  O342  1  0.50421649  0.61748577  0.00628354  1
  O  O343  1  0.50437208  0.62035884  0.50565113  1
  O  O344  1  0.49436365  0.38067418  0.49562845  1
  O  O345  1  0.49440616  0.37986021  0.99554376  1
  O  O346  1  0.49814640  0.88001382  0.48656838  1
  O  O347  1  0.49287345  0.88047838  0.99477262  1
  O  O348  1  0.99353657  0.37718004  0.49083193  1
  O  O349  1  0.99509810  0.37966746  0.99265368  1
  O  O350  1  0.99147227  0.87756208  0.49746811  1
  O  O351  1  0.98906073  0.87905384  1.00082593  1
  O  O352  1  0.49431008  0.49546521  0.38202252  1
  O  O353  1  0.49497002  0.49430517  0.88144451  1
  O  O354  1  0.49119895  0.99393037  0.37392525  1
  O  O355  1  0.49439419  0.99517635  0.87972251  1
  O  O356  1  0.99216677  0.49211520  0.37646475  1
  O  O357  1  0.99490487  0.49290165  0.87926696  1
  O  O358  1  0.99138558  0.99778977  0.37642682  1
  O  O359  1  0.99755523  0.99592901  0.88418141  1
  O  O360  1  0.00530735  0.00473730  0.11949950  1
  O  O361  1  0.00863467  0.00844751  0.62102722  1
  O  O362  1  0.00783638  0.50149667  0.11840837  1
  O  O363  1  0.00971100  0.50108641  0.62281439  1
  O  O364  1  0.50196304  0.00849982  0.11859914  1
  O  O365  1  0.51292494  0.00148187  0.62300330  1
  O  O366  1  0.50473192  0.50386122  0.12035730  1
  O  O367  1  0.50448954  0.50594594  0.62018470  1
  O  O368  1  0.24694117  0.38357501  0.24824436  1
  O  O369  1  0.24587047  0.37938779  0.74600151  1
  O  O370  1  0.25116498  0.88789617  0.24780057  1
  O  O371  1  0.23943329  0.88146392  0.75015229  1
  O  O372  1  0.74954334  0.38270052  0.24339418  1
  O  O373  1  0.74916139  0.38079750  0.74360389  1
  O  O374  1  0.74491475  0.88085914  0.24567989  1
  O  O375  1  0.74331711  0.87635597  0.74289945  1
  O  O376  1  0.25700074  0.11469314  0.25104907  1
  O  O377  1  0.25450562  0.12039829  0.75610285  1
  O  O378  1  0.25427150  0.61813355  0.25696473  1
  O  O379  1  0.25840782  0.61767499  0.75221459  1
  O  O380  1  0.75576178  0.12057001  0.25509851  1
  O  O381  1  0.75709972  0.12532409  0.75843016  1
  O  O382  1  0.75342084  0.62050493  0.25653373  1
  O  O383  1  0.75492187  0.61803060  0.75590937  1
  O  O384  1  0.37546470  0.11581771  0.36799442  1
  O  O385  1  0.36906735  0.11904470  0.87077843  1
  O  O386  1  0.36917618  0.61891143  0.37135506  1
  O  O387  1  0.37541471  0.61828275  0.86988706  1
  O  O388  1  0.86965176  0.12050868  0.36931623  1
  O  O389  1  0.86737938  0.12459382  0.86916687  1
  O  O390  1  0.86708834  0.62086896  0.37077788  1
  O  O391  1  0.86982469  0.61833727  0.87033529  1
  O  O392  1  0.12525238  0.38751794  0.12372317  1
  O  O393  1  0.13188086  0.38012901  0.63115814  1
  O  O394  1  0.12683320  0.88281861  0.12818701  1
  O  O395  1  0.12690693  0.88030140  0.63408796  1
  O  O396  1  0.63169251  0.38132499  0.12604548  1
  O  O397  1  0.63194231  0.38319708  0.62556142  1
  O  O398  1  0.62999344  0.87629423  0.13186353  1
  O  O399  1  0.62959232  0.88299159  0.62861767  1
  O  O400  1  0.12220692  0.25285211  0.25282571  1
  O  O401  1  0.12185650  0.25511066  0.75559936  1
  O  O402  1  0.11527511  0.74712495  0.25513112  1
  O  O403  1  0.12655250  0.75737123  0.75714460  1
  O  O404  1  0.61827613  0.25165573  0.25673383  1
  O  O405  1  0.61590918  0.25108710  0.75666050  1
  O  O406  1  0.62234500  0.75782873  0.25836780  1
  O  O407  1  0.61743808  0.75734821  0.74981765  1
  O  O408  1  0.37998105  0.24485729  0.24532608  1
  O  O409  1  0.38404909  0.24426160  0.75092073  1
  O  O410  1  0.37662045  0.74037537  0.25028518  1
  O  O411  1  0.38028044  0.74516573  0.74582581  1
  O  O412  1  0.87700965  0.24221195  0.24229190  1
  O  O413  1  0.88392873  0.24281016  0.74755591  1
  O  O414  1  0.88055668  0.74500831  0.24659303  1
  O  O415  1  0.87507037  0.74351111  0.74344348  1
  O  O416  1  0.37955217  0.49588818  0.49570796  1
  O  O417  1  0.37967462  0.49434761  0.99562957  1
  O  O418  1  0.37454731  1.00099266  0.48749320  1
  O  O419  1  0.38084084  0.99328042  0.99405429  1
  O  O420  1  0.87419693  0.49408332  0.49273506  1
  O  O421  1  0.88103663  0.49453900  0.99423933  1
  O  O422  1  0.87521181  0.99444546  0.49327826  1
  O  O423  1  0.88054634  0.98866304  0.99993925  1
  O  O424  1  0.12040464  0.00442987  0.00440456  1
  O  O425  1  0.12734510  0.01058206  0.50429292  1
  O  O426  1  0.12054183  0.50583295  0.00508742  1
  O  O427  1  0.12649505  0.50718243  0.50834441  1
  O  O428  1  0.61786542  0.00678447  0.00083439  1
  O  O429  1  0.62530837  0.00648899  0.50877427  1
  O  O430  1  0.61814659  0.50470937  0.00679758  1
  O  O431  1  0.61860333  0.50702720  0.50531136  1
  O  O432  1  0.37402363  0.36796261  0.11839809  1
  O  O433  1  0.36864946  0.37411503  0.61851667  1
  O  O434  1  0.37564549  0.87525648  0.11303863  1
  O  O435  1  0.37361063  0.86865870  0.62274372  1
  O  O436  1  0.87092320  0.37062932  0.11929556  1
  O  O437  1  0.86835609  0.37450221  0.61792710  1
  O  O438  1  0.86875427  0.86931499  0.11751007  1
  O  O439  1  0.86876622  0.87034530  0.61951320  1
  O  O440  1  0.12697447  0.12643754  0.38623133  1
  O  O441  1  0.13023391  0.12971752  0.88023118  1
  O  O442  1  0.13096636  0.62936150  0.38128467  1
  O  O443  1  0.12534587  0.63173523  0.88225037  1
  O  O444  1  0.63161182  0.13109812  0.37964207  1
  O  O445  1  0.63349269  0.12925843  0.87874194  1
  O  O446  1  0.62862135  0.63097119  0.38112251  1
  O  O447  1  0.63071841  0.62373209  0.88258196  1
