# generated using pymatgen
data_V3Zn3O8
_symmetry_space_group_name_H-M   'P 1'
_cell_length_a   17.08957002
_cell_length_b   17.08846703
_cell_length_c   17.09079624
_cell_angle_alpha   90.00757755
_cell_angle_beta   89.98951815
_cell_angle_gamma   90.00443669
_symmetry_Int_Tables_number   1
_chemical_formula_structural   V3Zn3O8
_chemical_formula_sum   'V96 Zn96 O256'
_cell_volume   4991.10291260
_cell_formula_units_Z   32
loop_
 _symmetry_equiv_pos_site_id
 _symmetry_equiv_pos_as_xyz
  1  'x, y, z'
loop_
 _atom_site_type_symbol
 _atom_site_label
 _atom_site_symmetry_multiplicity
 _atom_site_fract_x
 _atom_site_fract_y
 _atom_site_fract_z
 _atom_site_occupancy
  V  V0  1  0.87400615  0.75138124  0.12537337  1
  V  V1  1  0.37558809  0.12508509  0.74839757  1
  V  V2  1  0.25038961  0.74884593  0.00088172  1
  V  V3  1  0.62536796  0.12486122  -0.00201869  1
  V  V4  1  0.24988771  0.87400710  0.62604181  1
  V  V5  1  0.62614458  0.49930917  0.62417290  1
  V  V6  1  0.12397420  0.75062393  0.37624005  1
  V  V7  1  0.75152841  0.25127479  0.49927079  1
  V  V8  1  0.74989734  -0.00113483  0.75028912  1
  V  V9  1  0.37588220  0.12653875  0.24834360  1
  V  V10  1  0.87355893  0.00030902  0.37508031  1
  V  V11  1  0.49942535  0.74970981  0.25037700  1
  V  V12  1  0.62535812  0.62521558  0.49950810  1
  V  V13  1  0.12266009  0.00294345  0.62341218  1
  V  V14  1  -0.00087406  0.24958966  0.74763020  1
  V  V15  1  0.00007847  0.25080605  0.24923716  1
  V  V16  1  0.12475774  0.00051967  0.12528492  1
  V  V17  1  0.87634984  0.37461407  -0.00178089  1
  V  V18  1  -0.00009736  0.74932578  0.75132693  1
  V  V19  1  0.25010247  0.37656359  0.62540080  1
  V  V20  1  0.25080390  0.12459244  0.87536500  1
  V  V21  1  0.25140492  0.62430293  0.87661793  1
  V  V22  1  0.25007177  0.50041023  0.24995481  1
  V  V23  1  0.87508290  0.87496910  0.00100165  1
  V  V24  1  0.37508245  0.37540004  0.50020417  1
  V  V25  1  0.24951030  0.62522490  0.37500316  1
  V  V26  1  0.74874780  0.00047523  0.24865451  1
  V  V27  1  -0.00161614  0.87661092  0.37605398  1
  V  V28  1  0.25004638  0.87444170  0.12595804  1
  V  V29  1  0.24940255  -0.00002580  0.25097098  1
  V  V30  1  0.74816115  0.12514212  0.37360453  1
  V  V31  1  0.00110895  0.62496748  0.62586448  1
  V  V32  1  0.25112138  0.37476298  0.12498909  1
  V  V33  1  0.49895275  0.87627902  0.37579592  1
  V  V34  1  0.75213139  0.49909740  0.74881458  1
  V  V35  1  0.37565214  0.74996743  0.12648175  1
  V  V36  1  0.12359272  0.62408134  0.50156417  1
  V  V37  1  0.62525681  0.00090560  0.12344378  1
  V  V38  1  0.87478769  0.62580647  0.25079844  1
  V  V39  1  0.50157479  0.49897862  0.00039304  1
  V  V40  1  0.37547596  -0.00132676  0.87550799  1
  V  V41  1  0.62594950  0.49979691  0.12455576  1
  V  V42  1  0.37579331  0.24917681  0.62532390  1
  V  V43  1  0.12560838  0.12477873  0.00052474  1
  V  V44  1  0.37544546  0.74898889  0.62628010  1
  V  V45  1  0.50022022  0.00009697  -0.00028484  1
  V  V46  1  0.37571397  0.49963095  0.87492789  1
  V  V47  1  0.62532600  0.37450384  0.74868892  1
  V  V48  1  -0.00085738  0.75053048  0.25094726  1
  V  V49  1  0.37591960  0.87547048  0.00038011  1
  V  V50  1  0.49968387  0.37502052  0.37273757  1
  V  V51  1  0.75030734  0.62545166  0.37494054  1
  V  V52  1  -0.00003758  0.62524137  0.12554967  1
  V  V53  1  0.62133218  0.00059715  0.62371135  1
  V  V54  1  0.24792707  0.25042732  0.49894969  1
  V  V55  1  0.12518005  0.25053412  0.37517679  1
  V  V56  1  0.62523436  0.62382750  0.00089889  1
  V  V57  1  0.25136091  0.25045439  0.00025396  1
  V  V58  1  -0.00126984  0.37678105  0.37537549  1
  V  V59  1  0.74955746  0.50003177  0.24926385  1
  V  V60  1  0.74982425  0.75027448  0.50032457  1
  V  V61  1  0.12636121  0.74923354  0.87702326  1
  V  V62  1  0.00106920  0.00093364  0.00049068  1
  V  V63  1  0.12600539  0.37596860  0.24897106  1
  V  V64  1  0.50154276  0.37439939  0.87323333  1
  V  V65  1  0.24914161  0.75002099  0.50136068  1
  V  V66  1  0.12550870  0.24995738  0.87406745  1
  V  V67  1  0.62319903  0.74949605  0.87538080  1
  V  V68  1  0.87530466  -0.00038780  0.87490162  1
  V  V69  1  0.37427888  0.62583090  0.25097674  1
  V  V70  1  0.25001170  -0.00024974  0.75056063  1
  V  V71  1  0.62445712  0.87242139  0.75122325  1
  V  V72  1  0.62593808  0.24966090  0.87317892  1
  V  V73  1  0.87595594  0.49964370  0.37611623  1
  V  V74  1  0.12553969  0.37485284  0.74997475  1
  V  V75  1  0.75039292  0.37582507  0.12460773  1
  V  V76  1  0.00122083  0.50071970  0.00021113  1
  V  V77  1  0.25046633  0.49968938  0.75102248  1
  V  V78  1  0.75157614  0.62360155  0.87549904  1
  V  V79  1  0.87542786  0.75024161  0.62664142  1
  V  V80  1  0.50039551  0.50000371  0.49909893  1
  V  V81  1  0.87592400  0.25035473  0.12449601  1
  V  V82  1  0.49998029  0.62565089  0.62467303  1
  V  V83  1  0.12427693  0.87552718  0.25114358  1
  V  V84  1  0.74976666  0.12489259  0.87416036  1
  V  V85  1  0.37338142  0.00042898  0.37727882  1
  V  V86  1  0.62417999  0.75108860  0.37436102  1
  V  V87  1  0.62352179  0.24956321  0.37239923  1
  V  V88  1  0.87462590  0.87661760  0.49985826  1
  V  V89  1  0.74958224  0.87412107  0.62579314  1
  V  V90  1  0.74985046  0.87552725  0.12485302  1
  V  V91  1  0.00053393  0.87444527  0.87622542  1
  V  V92  1  0.37532951  0.37375488  -0.00018610  1
  V  V93  1  0.12514138  0.87505819  0.75149182  1
  V  V94  1  0.87488063  0.12614147  0.24819246  1
  V  V95  1  0.87577568  0.12485045  0.74847572  1
  Zn  Zn96  1  0.87297308  0.25035244  0.62357112  1
  Zn  Zn97  1  0.50153047  0.24768277  0.74691461  1
  Zn  Zn98  1  0.49963306  0.74794768  0.75041317  1
  Zn  Zn99  1  0.74974104  0.74989195  0.00174218  1
  Zn  Zn100  1  0.49824367  0.00196210  0.50129232  1
  Zn  Zn101  1  0.75085093  0.24977698  -0.00079289  1
  Zn  Zn102  1  0.50080903  0.62434004  0.12656698  1
  Zn  Zn103  1  0.37722303  0.62401062  0.75159990  1
  Zn  Zn104  1  0.00068007  0.12596871  0.12461209  1
  Zn  Zn105  1  0.12633699  0.50167198  0.12493869  1
  Zn  Zn106  1  -0.00394371  0.12506922  0.62044851  1
  Zn  Zn107  1  0.75144102  0.37379342  0.62212419  1
  Zn  Zn108  1  0.37433018  0.87685027  0.50254626  1
  Zn  Zn109  1  0.24732663  0.12567011  0.37594546  1
  Zn  Zn110  1  0.62353818  0.37467715  0.24667172  1
  Zn  Zn111  1  0.12185410  0.12583204  0.49738931  1
  Zn  Zn112  1  0.62122347  0.12409673  0.49948374  1
  Zn  Zn113  1  -0.00152106  0.00333848  0.50006401  1
  Zn  Zn114  1  0.12603334  0.62442048  0.00252213  1
  Zn  Zn115  1  0.37438387  0.50081508  0.37528034  1
  Zn  Zn116  1  0.12398667  0.50010514  0.62529766  1
  Zn  Zn117  1  0.87580552  0.37640083  0.50189287  1
  Zn  Zn118  1  0.87727211  0.62369443  0.75062915  1
  Zn  Zn119  1  0.87705484  0.49997866  0.87339468  1
  Zn  Zn120  1  0.00030872  0.37714302  0.87308208  1
  Zn  Zn121  1  0.50143868  0.12784774  0.12385920  1
  Zn  Zn122  1  0.37856928  0.24938128  0.12440226  1
  Zn  Zn123  1  0.49981465  0.87338076  0.87486503  1
  Zn  Zn124  1  0.49852298  0.12522885  0.62284943  1
  Zn  Zn125  1  -0.00042972  0.49834572  0.50267263  1
  Zn  Zn126  1  0.49943647  0.25060008  0.24635487  1
  Zn  Zn127  1  0.62457413  0.87605378  0.24853461  1
  Zn  Zn128  1  0.18945912  0.18811725  0.18757071  1
  Zn  Zn129  1  0.18872744  0.18782723  0.68642897  1
  Zn  Zn130  1  0.18620062  0.68684176  0.18787889  1
  Zn  Zn131  1  0.18800440  0.68528891  0.69020379  1
  Zn  Zn132  1  0.68808643  0.18828873  0.18490594  1
  Zn  Zn133  1  0.68759394  0.18609832  0.68658115  1
  Zn  Zn134  1  0.68675117  0.68815996  0.18805099  1
  Zn  Zn135  1  0.68736363  0.68581624  0.68844163  1
  Zn  Zn136  1  0.31228327  0.31222790  0.31292926  1
  Zn  Zn137  1  0.31372915  0.31222098  0.81185411  1
  Zn  Zn138  1  0.31218065  0.81247751  0.31319081  1
  Zn  Zn139  1  0.31258059  0.81200913  0.81283297  1
  Zn  Zn140  1  0.81272409  0.31390589  0.31162324  1
  Zn  Zn141  1  0.81304895  0.31204329  0.81288066  1
  Zn  Zn142  1  0.81122708  0.81430519  0.31170526  1
  Zn  Zn143  1  0.81207734  0.81152683  0.81304516  1
  Zn  Zn144  1  0.18567627  0.43882093  0.43753457  1
  Zn  Zn145  1  0.18695040  0.43680524  0.93710222  1
  Zn  Zn146  1  0.18788413  0.93666307  0.43994828  1
  Zn  Zn147  1  0.18875668  0.93684599  0.93907614  1
  Zn  Zn148  1  0.68755527  0.43626019  0.43552869  1
  Zn  Zn149  1  0.68803990  0.43649135  0.93697281  1
  Zn  Zn150  1  0.68678833  0.93722603  0.43806407  1
  Zn  Zn151  1  0.68817362  0.93677853  0.93840931  1
  Zn  Zn152  1  0.31266857  0.06242032  0.06344664  1
  Zn  Zn153  1  0.30856318  0.06535447  0.56163007  1
  Zn  Zn154  1  0.31431922  0.56175645  0.06378158  1
  Zn  Zn155  1  0.31218402  0.56236146  0.56239648  1
  Zn  Zn156  1  0.81208748  0.06336838  0.06169971  1
  Zn  Zn157  1  0.80926013  0.06495756  0.56172789  1
  Zn  Zn158  1  0.81365732  0.56258320  0.06242537  1
  Zn  Zn159  1  0.81494320  0.56335610  0.56241638  1
  Zn  Zn160  1  0.43615426  0.43910712  0.18697134  1
  Zn  Zn161  1  0.43798019  0.43738490  0.68738846  1
  Zn  Zn162  1  0.43886665  0.93946853  0.18779938  1
  Zn  Zn163  1  0.43892967  0.93391832  0.69167093  1
  Zn  Zn164  1  0.93768097  0.43816570  0.18683199  1
  Zn  Zn165  1  0.93599992  0.43494998  0.68332413  1
  Zn  Zn166  1  0.93724185  0.93905901  0.18784103  1
  Zn  Zn167  1  0.93853533  0.93641586  0.68823401  1
  Zn  Zn168  1  0.06062254  0.06464325  0.31295938  1
  Zn  Zn169  1  0.06218295  0.06415255  0.81178296  1
  Zn  Zn170  1  0.06301168  0.56159012  0.31311492  1
  Zn  Zn171  1  0.06491913  0.56283032  0.81419508  1
  Zn  Zn172  1  0.56108274  0.06263158  0.31047513  1
  Zn  Zn173  1  0.56043354  0.06201968  0.81126756  1
  Zn  Zn174  1  0.56298852  0.56246499  0.31138415  1
  Zn  Zn175  1  0.56274266  0.56200025  0.81060526  1
  Zn  Zn176  1  0.43789459  0.18592054  0.43992519  1
  Zn  Zn177  1  0.43967206  0.18751986  0.93513598  1
  Zn  Zn178  1  0.43614441  0.68820489  0.43862864  1
  Zn  Zn179  1  0.43769370  0.68521383  0.94051168  1
  Zn  Zn180  1  0.93827018  0.18676084  0.43641667  1
  Zn  Zn181  1  0.93895830  0.18744559  0.93515256  1
  Zn  Zn182  1  0.93742411  0.68734716  0.43985355  1
  Zn  Zn183  1  0.93723403  0.68753978  0.93930797  1
  Zn  Zn184  1  0.06404234  0.31300585  0.06381104  1
  Zn  Zn185  1  0.06252600  0.31456338  0.56241546  1
  Zn  Zn186  1  0.06263592  0.81243289  0.06310429  1
  Zn  Zn187  1  0.06163769  0.81389540  0.56281851  1
  Zn  Zn188  1  0.56268741  0.31050563  0.06126200  1
  Zn  Zn189  1  0.56319117  0.31187062  0.56146875  1
  Zn  Zn190  1  0.56246454  0.81304315  0.06221796  1
  Zn  Zn191  1  0.56129608  0.81369758  0.56133321  1
  O  O192  1  0.12522974  0.11817552  0.11847868  1
  O  O193  1  0.12479801  0.11179080  0.62617095  1
  O  O194  1  0.11599629  0.62353459  0.12278233  1
  O  O195  1  0.11785176  0.62614625  0.61985459  1
  O  O196  1  0.62614947  0.11834902  0.11623036  1
  O  O197  1  0.62412776  0.11035207  0.62589085  1
  O  O198  1  0.62497451  0.61851472  0.11845922  1
  O  O199  1  0.62039037  0.62005600  0.61818522  1
  O  O200  1  0.38503472  0.37548917  0.38104223  1
  O  O201  1  0.38091991  0.38027084  0.88018511  1
  O  O202  1  0.38181674  0.88371400  0.37506859  1
  O  O203  1  0.37496997  0.88044254  0.88224461  1
  O  O204  1  0.88166642  0.38272410  0.37374214  1
  O  O205  1  0.87704316  0.37663356  0.88717334  1
  O  O206  1  0.87846425  0.88044498  0.38009605  1
  O  O207  1  0.88056887  0.87992033  0.88044227  1
  O  O208  1  0.25854653  -0.00179721  0.36934191  1
  O  O209  1  0.25502924  0.00472547  0.87043160  1
  O  O210  1  0.25116838  0.50757616  0.36850485  1
  O  O211  1  0.25624910  0.50445729  0.87165424  1
  O  O212  1  0.75345890  0.00484760  0.36890964  1
  O  O213  1  0.75581771  0.00398626  0.86900670  1
  O  O214  1  0.75446411  0.50674190  0.36916692  1
  O  O215  1  0.74884121  0.50894006  0.86646076  1
  O  O216  1  0.24918546  0.49338861  0.13152164  1
  O  O217  1  0.24963892  0.49393299  0.63258376  1
  O  O218  1  0.24413576  0.99300465  0.13044666  1
  O  O219  1  0.24249423  0.99390170  0.63116390  1
  O  O220  1  0.74607915  0.49576424  0.12990271  1
  O  O221  1  0.74459844  0.50238730  0.63447530  1
  O  O222  1  0.74551303  0.99487236  0.12932521  1
  O  O223  1  0.74200961  0.99311977  0.63103770  1
  O  O224  1  0.00567432  0.37049923  0.25422714  1
  O  O225  1  0.00561551  0.36611459  0.75114836  1
  O  O226  1  0.00459145  0.86985447  0.25575827  1
  O  O227  1  0.00557139  0.86912753  0.75759171  1
  O  O228  1  0.50023912  0.37454559  0.26158031  1
  O  O229  1  0.50828688  0.37545567  0.75644461  1
  O  O230  1  0.49996358  0.86955761  0.26086290  1
  O  O231  1  0.50856613  0.86822349  0.75565161  1
  O  O232  1  0.48748303  0.12566525  0.24860518  1
  O  O233  1  0.49021397  0.12598724  0.74607759  1
  O  O234  1  0.49297985  0.63201829  0.25020581  1
  O  O235  1  0.49816194  0.62707391  0.74075570  1
  O  O236  1  0.99227348  0.13254621  0.24779227  1
  O  O237  1  0.99422406  0.13373191  0.74937913  1
  O  O238  1  0.99406053  0.63160234  0.24644197  1
  O  O239  1  0.99986789  0.63203070  0.74493543  1
  O  O240  1  0.36849678  0.25605068  -0.00185551  1
  O  O241  1  0.36824749  0.25620786  0.50474727  1
  O  O242  1  0.37029732  0.75533901  0.00648242  1
  O  O243  1  0.36817840  0.75131357  0.51092864  1
  O  O244  1  0.87693294  0.25965481  0.00454300  1
  O  O245  1  0.86163121  0.25004381  0.49715281  1
  O  O246  1  0.87388197  0.75712753  0.00736260  1
  O  O247  1  0.86857505  0.75628188  0.50603137  1
  O  O248  1  0.13129309  0.25192421  0.49297264  1
  O  O249  1  0.13076965  0.24483538  0.99436321  1
  O  O250  1  0.12975815  0.74555121  0.49500329  1
  O  O251  1  0.13241289  0.75034924  0.99454785  1
  O  O252  1  0.63240392  0.24937614  0.48750541  1
  O  O253  1  0.62806657  0.24322041  0.99092604  1
  O  O254  1  0.63058474  0.74511685  0.49432494  1
  O  O255  1  0.62731677  0.74370601  0.99152211  1
  O  O256  1  0.49700887  0.24628952  0.12864819  1
  O  O257  1  0.49160826  0.24886037  0.62627753  1
  O  O258  1  0.49347944  0.74968480  0.13215660  1
  O  O259  1  0.49117702  0.74489948  0.62360918  1
  O  O260  1  0.99426587  0.24929865  0.13172668  1
  O  O261  1  1.00047921  0.24804374  0.63809611  1
  O  O262  1  0.99388188  0.74641210  0.13159833  1
  O  O263  1  0.99523197  0.74585614  0.63186652  1
  O  O264  1  0.00455385  0.25702939  0.36750287  1
  O  O265  1  0.00697862  0.25067076  0.86379759  1
  O  O266  1  0.00405402  0.75616636  0.37003938  1
  O  O267  1  0.00557785  0.75516700  0.87171344  1
  O  O268  1  0.50772846  0.25886601  0.37563733  1
  O  O269  1  0.50771558  0.25709108  0.87114631  1
  O  O270  1  0.50336911  0.75787823  0.37099688  1
  O  O271  1  0.51277955  0.74801863  0.87474900  1
  O  O272  1  0.24472107  0.13542760  0.49663089  1
  O  O273  1  0.24527620  0.12953940  0.99449272  1
  O  O274  1  0.24382503  0.63094179  0.49507934  1
  O  O275  1  0.24985999  0.63127581  0.99521327  1
  O  O276  1  0.74530050  0.13358049  0.49114031  1
  O  O277  1  0.74423163  0.12546749  0.99103941  1
  O  O278  1  0.74478384  0.63129907  0.49446402  1
  O  O279  1  0.74480663  0.62435405  0.99032010  1
  O  O280  1  0.25560265  0.36999266  0.00437411  1
  O  O281  1  0.25557191  0.37115918  0.50526787  1
  O  O282  1  0.25600534  0.86939866  0.00693977  1
  O  O283  1  0.25108245  0.86688820  0.50814925  1
  O  O284  1  0.76158213  0.37585887  0.00507456  1
  O  O285  1  0.75081290  0.36346599  0.49769033  1
  O  O286  1  0.75820483  0.87394679  0.00651932  1
  O  O287  1  0.75511510  0.86865249  0.50544434  1
  O  O288  1  0.13197249  0.49378368  0.24865478  1
  O  O289  1  0.13273872  0.49258494  0.75062779  1
  O  O290  1  0.12929145  0.99446156  0.24574767  1
  O  O291  1  0.13038649  0.99445917  0.74448204  1
  O  O292  1  0.63213400  0.49950095  0.24302592  1
  O  O293  1  0.63353555  0.49515912  0.74417352  1
  O  O294  1  0.63139867  0.99959557  0.24247668  1
  O  O295  1  0.63049141  0.99274009  0.74384712  1
  O  O296  1  0.36949088  0.00561733  0.25811724  1
  O  O297  1  0.36831078  0.00339546  0.75543452  1
  O  O298  1  0.36818994  0.50779627  0.25269118  1
  O  O299  1  0.36872987  0.49990084  0.75771527  1
  O  O300  1  0.86849269  0.00587509  0.25486411  1
  O  O301  1  0.86999030  0.00310482  0.75600851  1
  O  O302  1  0.86945497  0.50732320  0.25490571  1
  O  O303  1  0.86389578  0.50111888  0.75246588  1
  O  O304  1  0.11907075  0.37043272  0.36786335  1
  O  O305  1  0.12404962  0.36682005  0.86819505  1
  O  O306  1  0.11915593  0.87005818  0.37032872  1
  O  O307  1  0.12033216  0.86989355  0.87106824  1
  O  O308  1  0.61561360  0.36717538  0.37296069  1
  O  O309  1  0.62115388  0.37001456  0.86930982  1
  O  O310  1  0.61529900  0.87017435  0.37366604  1
  O  O311  1  0.62700768  0.86399838  0.87115874  1
  O  O312  1  0.37614041  0.12425252  0.13632956  1
  O  O313  1  0.37265341  0.13089813  0.63177193  1
  O  O314  1  0.37670348  0.63256656  0.13245890  1
  O  O315  1  0.38064446  0.63427571  0.62494956  1
  O  O316  1  0.87623649  0.13177837  0.13017178  1
  O  O317  1  0.87506183  0.12764914  0.63383755  1
  O  O318  1  0.87948768  0.63146980  0.13158823  1
  O  O319  1  0.88245881  0.63331257  0.62721301  1
  O  O320  1  0.25297317  0.25670585  0.11732744  1
  O  O321  1  0.25532147  0.25713455  0.61930762  1
  O  O322  1  0.25528650  0.75571579  0.12136498  1
  O  O323  1  0.25667607  0.75361612  0.62169271  1
  O  O324  1  0.75780000  0.25752953  0.12172720  1
  O  O325  1  0.74739490  0.24958537  0.61107719  1
  O  O326  1  0.75669825  0.75640314  0.12480433  1
  O  O327  1  0.75427377  0.75451835  0.62019416  1
  O  O328  1  0.24263637  0.25154273  0.38195416  1
  O  O329  1  0.24508449  0.24387777  0.88011040  1
  O  O330  1  0.24332690  0.74587837  0.38057361  1
  O  O331  1  0.24625910  0.74504847  0.88154523  1
  O  O332  1  0.74186865  0.24590872  0.37868659  1
  O  O333  1  0.74415427  0.24260561  0.87560746  1
  O  O334  1  0.74476129  0.74556500  0.38017403  1
  O  O335  1  0.74085507  0.74016341  0.87547214  1
  O  O336  1  0.00761700  0.11852576  0.00018984  1
  O  O337  1  0.00363438  0.12135447  0.50337180  1
  O  O338  1  -0.00118880  0.61596389  0.00638266  1
  O  O339  1  0.00645766  0.62644757  0.50856360  1
  O  O340  1  0.50737080  0.11730524  -0.00112865  1
  O  O341  1  0.50404976  0.11919485  0.50454218  1
  O  O342  1  0.50728665  0.61638701  0.00251369  1
  O  O343  1  0.50629436  0.62019881  0.50371653  1
  O  O344  1  0.49571927  0.38046489  0.49145111  1
  O  O345  1  0.49554121  0.38025755  0.99265519  1
  O  O346  1  0.49624091  0.87690116  0.48676413  1
  O  O347  1  0.49286011  0.88121023  0.99794960  1
  O  O348  1  0.99770760  0.37698766  0.49069230  1
  O  O349  1  0.99212794  0.38321131  1.00077044  1
  O  O350  1  0.99206977  0.87663789  0.49347420  1
  O  O351  1  0.99522315  0.88074033  0.99510637  1
  O  O352  1  0.50078120  0.49078416  0.38082992  1
  O  O353  1  0.49652617  0.49445182  0.88040170  1
  O  O354  1  0.49082895  0.99137511  0.37382969  1
  O  O355  1  0.49281094  0.99716350  0.88139717  1
  O  O356  1  0.99309786  0.49459386  0.37498449  1
  O  O357  1  0.99716030  0.49924479  0.88595534  1
  O  O358  1  0.99167237  0.99318948  0.37452838  1
  O  O359  1  0.99562048  0.99392428  0.88018131  1
  O  O360  1  0.00710323  0.00099363  0.11858291  1
  O  O361  1  0.01127470  -0.00027857  0.62552820  1
  O  O362  1  0.00027310  0.50644710  0.11651224  1
  O  O363  1  0.00199013  0.51034974  0.62459461  1
  O  O364  1  0.50715243  0.00167378  0.11779626  1
  O  O365  1  0.51106199  -0.00401242  0.62484474  1
  O  O366  1  0.50743432  0.50062487  0.11829435  1
  O  O367  1  0.50622313  0.50537809  0.61824899  1
  O  O368  1  0.24628458  0.38063527  0.24522064  1
  O  O369  1  0.24538646  0.37966297  0.74519499  1
  O  O370  1  0.24367096  0.87942988  0.24538829  1
  O  O371  1  0.24401615  0.88013947  0.74585180  1
  O  O372  1  0.74910103  0.38291710  0.24247822  1
  O  O373  1  0.74429697  0.38562445  0.75126116  1
  O  O374  1  0.74867519  0.88273671  0.24308280  1
  O  O375  1  0.74481956  0.87958040  0.74495974  1
  O  O376  1  0.25880245  0.11776067  0.25228433  1
  O  O377  1  0.25506138  0.11904041  0.75657733  1
  O  O378  1  0.25415411  0.62144175  0.25580840  1
  O  O379  1  0.25271515  0.61805688  0.75865228  1
  O  O380  1  0.75542419  0.12005089  0.25417119  1
  O  O381  1  0.75580028  0.11802472  0.75549823  1
  O  O382  1  0.75579756  0.62072019  0.25590444  1
  O  O383  1  0.74990765  0.61548260  0.75867018  1
  O  O384  1  0.37354137  0.11467645  0.36727130  1
  O  O385  1  0.36882129  0.11843597  0.86954613  1
  O  O386  1  0.36714310  0.62556248  0.36949217  1
  O  O387  1  0.36967891  0.61775215  0.87503297  1
  O  O388  1  0.86794747  0.11982050  0.36741669  1
  O  O389  1  0.87007973  0.11811223  0.86933901  1
  O  O390  1  0.86937156  0.62157553  0.36977280  1
  O  O391  1  0.86259525  0.62465491  0.87368411  1
  O  O392  1  0.13315393  0.37669457  0.13177157  1
  O  O393  1  0.13261809  0.37641140  0.63275890  1
  O  O394  1  0.13020513  0.88001138  0.13161022  1
  O  O395  1  0.12978147  0.88190340  0.63222657  1
  O  O396  1  0.63252697  0.38154258  0.12419852  1
  O  O397  1  0.62816046  0.38238799  0.62978407  1
  O  O398  1  0.63203998  0.88194980  0.12529739  1
  O  O399  1  0.63065629  0.87979998  0.63029701  1
  O  O400  1  0.12054970  0.25655793  0.25447804  1
  O  O401  1  0.11877088  0.25384299  0.75469390  1
  O  O402  1  0.11889063  0.75624279  0.25648419  1
  O  O403  1  0.12054458  0.75610318  0.75725941  1
  O  O404  1  0.62422156  0.25201636  0.26141073  1
  O  O405  1  0.62536353  0.25660589  0.75506624  1
  O  O406  1  0.61820443  0.75212417  0.25729695  1
  O  O407  1  0.62591344  0.75349580  0.75950706  1
  O  O408  1  0.37478125  0.23771903  0.25035661  1
  O  O409  1  0.37512095  0.24321522  0.74315640  1
  O  O410  1  0.37904876  0.74561046  0.24540853  1
  O  O411  1  0.37545789  0.74775479  0.73788042  1
  O  O412  1  0.88001292  0.24556115  0.24424435  1
  O  O413  1  0.88399527  0.24389395  0.75110478  1
  O  O414  1  0.88009184  0.74557006  0.24572307  1
  O  O415  1  0.88170643  0.74943593  0.74445186  1
  O  O416  1  0.38227947  0.49383053  0.49795271  1
  O  O417  1  0.38144056  0.49347803  0.99446442  1
  O  O418  1  0.37333959  0.99851925  0.48852969  1
  O  O419  1  0.37904389  0.99459163  0.99511978  1
  O  O420  1  0.87673002  0.49931863  0.49029880  1
  O  O421  1  0.88398404  0.49122018  1.00019460  1
  O  O422  1  0.87255619  0.99360035  0.49315960  1
  O  O423  1  0.88129581  0.99503416  0.99432186  1
  O  O424  1  0.12089754  0.00459195  0.00532517  1
  O  O425  1  0.12388547  -0.00060882  0.51221132  1
  O  O426  1  0.11300469  0.50011856  0.00211871  1
  O  O427  1  0.12242068  0.50932680  0.50325418  1
  O  O428  1  0.62021817  0.00507031  0.00340486  1
  O  O429  1  0.62483585  -0.00108552  0.51258915  1
  O  O430  1  0.62091369  0.50415883  0.00462973  1
  O  O431  1  0.62107034  0.50603463  0.50412066  1
  O  O432  1  0.36888341  0.37383919  0.11737385  1
  O  O433  1  0.36989707  0.36989916  0.61930145  1
  O  O434  1  0.36904339  0.87050315  0.12108365  1
  O  O435  1  0.36898862  0.86599086  0.62520235  1
  O  O436  1  0.87054941  0.37062303  0.11665287  1
  O  O437  1  0.86877130  0.36857493  0.61989857  1
  O  O438  1  0.87023216  0.87089071  0.12030174  1
  O  O439  1  0.86907740  0.87015025  0.62061391  1
  O  O440  1  0.12706686  0.13457966  0.37480021  1
  O  O441  1  0.13179932  0.12938494  0.88044030  1
  O  O442  1  0.12942553  0.63232475  0.38014723  1
  O  O443  1  0.13292585  0.63243764  0.87910801  1
  O  O444  1  0.62938969  0.13379628  0.37365910  1
  O  O445  1  0.63096426  0.12889859  0.87755547  1
  O  O446  1  0.63075473  0.63107688  0.38037888  1
  O  O447  1  0.63308184  0.63053140  0.87965557  1
