# generated using pymatgen
data_V3Zn3O8
_symmetry_space_group_name_H-M   'P 1'
_cell_length_a   17.09123569
_cell_length_b   17.09067640
_cell_length_c   17.09144942
_cell_angle_alpha   89.98915016
_cell_angle_beta   90.00802595
_cell_angle_gamma   90.00465108
_symmetry_Int_Tables_number   1
_chemical_formula_structural   V3Zn3O8
_chemical_formula_sum   'V96 Zn96 O256'
_cell_volume   4992.42552720
_cell_formula_units_Z   32
loop_
 _symmetry_equiv_pos_site_id
 _symmetry_equiv_pos_as_xyz
  1  'x, y, z'
loop_
 _atom_site_type_symbol
 _atom_site_label
 _atom_site_symmetry_multiplicity
 _atom_site_fract_x
 _atom_site_fract_y
 _atom_site_fract_z
 _atom_site_occupancy
  V  V0  1  0.24943720  0.75043693  0.49894576  1
  V  V1  1  0.24974111  0.50065602  0.25107991  1
  V  V2  1  0.37489188  0.00060977  0.87522100  1
  V  V3  1  0.00022334  0.50152786  0.50159136  1
  V  V4  1  0.37642711  0.87567223  0.49927189  1
  V  V5  1  0.37503377  0.62555819  0.74950340  1
  V  V6  1  0.25007748  -0.00007002  0.24881111  1
  V  V7  1  0.87528654  0.37425054  0.50136927  1
  V  V8  1  0.12405041  0.50186610  0.62655157  1
  V  V9  1  0.62376195  0.37423576  0.25102160  1
  V  V10  1  0.49952336  0.87442293  0.37379909  1
  V  V11  1  0.87556706  0.12486107  0.24941717  1
  V  V12  1  0.62594957  -0.00096385  0.12434968  1
  V  V13  1  0.62503407  0.37581580  0.75007468  1
  V  V14  1  0.25080500  0.12482376  0.87440467  1
  V  V15  1  0.50029609  0.74960333  0.24906947  1
  V  V16  1  0.87552375  -0.00037453  0.87511390  1
  V  V17  1  0.00013180  0.25060226  0.24969819  1
  V  V18  1  0.49946774  0.62505119  0.12559637  1
  V  V19  1  0.87720403  0.62578932  0.74863838  1
  V  V20  1  0.37371186  0.50087141  0.87393317  1
  V  V21  1  0.50098926  0.87418267  0.87461763  1
  V  V22  1  0.12489462  0.75128469  0.87467634  1
  V  V23  1  0.49876143  0.49969754  0.00026536  1
  V  V24  1  0.62439229  0.75075121  0.87158818  1
  V  V25  1  0.87610202  -0.00068305  0.37464097  1
  V  V26  1  0.49728279  0.24836114  0.74844947  1
  V  V27  1  0.75105063  0.87402484  0.12465000  1
  V  V28  1  0.87559506  0.74982152  0.12554574  1
  V  V29  1  0.00035799  0.12510591  0.12458990  1
  V  V30  1  0.50064153  0.24944939  0.25092699  1
  V  V31  1  0.12570890  0.00001568  0.62457226  1
  V  V32  1  0.74955189  0.24966147  0.00100811  1
  V  V33  1  -0.00043008  0.00049692  -0.00062955  1
  V  V34  1  0.49944104  0.62609253  0.62503131  1
  V  V35  1  0.62717545  0.49858474  0.62649459  1
  V  V36  1  0.12539995  0.75143039  0.37420338  1
  V  V37  1  0.37556543  -0.00089497  0.37493429  1
  V  V38  1  0.75093430  -0.00033068  0.24965126  1
  V  V39  1  0.25030865  0.12496817  0.37471743  1
  V  V40  1  0.75028989  0.62527144  0.37529121  1
  V  V41  1  0.24937824  0.74982397  -0.00074626  1
  V  V42  1  -0.00168882  0.49982548  0.00050124  1
  V  V43  1  0.37495056  0.75065771  0.62536955  1
  V  V44  1  0.12513832  0.12533753  0.49987377  1
  V  V45  1  -0.00069908  -0.00020017  0.49846269  1
  V  V46  1  0.87457610  0.12500858  0.74990943  1
  V  V47  1  0.75035201  0.24977761  0.49960235  1
  V  V48  1  0.62558956  0.24989991  0.37499077  1
  V  V49  1  0.37552508  0.87432330  -0.00049404  1
  V  V50  1  0.75049220  0.49947521  0.24978097  1
  V  V51  1  0.24972837  0.87650161  0.62450947  1
  V  V52  1  0.37573631  0.12563314  0.24969025  1
  V  V53  1  0.62424419  0.25006119  0.87578789  1
  V  V54  1  0.25006706  0.87546842  0.12470432  1
  V  V55  1  0.50083087  0.12238054  0.62310374  1
  V  V56  1  0.74724430  -0.00343728  0.74651459  1
  V  V57  1  0.12524470  0.37544661  0.25005431  1
  V  V58  1  0.62433309  0.49943383  0.12545506  1
  V  V59  1  0.49955411  0.12465130  0.12567435  1
  V  V60  1  0.12518810  0.24969711  0.37471266  1
  V  V61  1  0.25215745  0.37452669  0.62402478  1
  V  V62  1  0.62651792  0.62711939  0.49913853  1
  V  V63  1  0.75147293  0.74983826  0.00073631  1
  V  V64  1  0.37334110  0.37532346  0.00046030  1
  V  V65  1  0.62453668  0.87405528  0.24988024  1
  V  V66  1  0.62477255  0.62424070  0.00006933  1
  V  V67  1  0.12546508  0.12599399  -0.00019946  1
  V  V68  1  0.25106481  0.62453538  0.37490374  1
  V  V69  1  0.24988640  0.25071289  0.00057826  1
  V  V70  1  0.75006162  0.12568792  0.37476341  1
  V  V71  1  0.49748318  0.49729944  0.49722469  1
  V  V72  1  0.87423619  0.25026980  0.12479186  1
  V  V73  1  0.50061974  -0.00072224  -0.00011529  1
  V  V74  1  0.24997373  0.25092772  0.50073269  1
  V  V75  1  0.12453985  0.50051324  0.12470814  1
  V  V76  1  0.00022374  0.37512801  0.37575572  1
  V  V77  1  0.37552535  0.74934914  0.12458995  1
  V  V78  1  0.87516769  0.62441227  0.25001734  1
  V  V79  1  -0.00068130  0.25090210  0.75121661  1
  V  V80  1  0.12514071  0.87586502  0.74921740  1
  V  V81  1  0.74961207  0.37397530  0.12520703  1
  V  V82  1  0.49896404  0.37517839  0.87536590  1
  V  V83  1  0.00061049  0.12563616  0.62498462  1
  V  V84  1  0.74927882  0.12453707  0.87496918  1
  V  V85  1  0.75157399  0.62194909  0.87398420  1
  V  V86  1  0.62415923  0.12435645  0.00006833  1
  V  V87  1  0.00094376  0.87593209  0.87401826  1
  V  V88  1  0.24998855  0.37501933  0.12493745  1
  V  V89  1  0.12520415  0.62570846  -0.00071807  1
  V  V90  1  0.25017788  0.50002975  0.74988369  1
  V  V91  1  0.00045434  0.74977221  0.24983245  1
  V  V92  1  -0.00043309  0.37360933  0.87572591  1
  V  V93  1  0.12566289  -0.00004541  0.12489140  1
  V  V94  1  0.00029407  0.87532144  0.37495589  1
  V  V95  1  0.87440063  0.25025218  0.62473696  1
  Zn  Zn96  1  0.00016357  0.62559659  0.12585349  1
  Zn  Zn97  1  0.12541988  0.25004242  0.87397919  1
  Zn  Zn98  1  0.62495355  0.12400453  0.50014852  1
  Zn  Zn99  1  0.75524873  0.75123047  0.50207746  1
  Zn  Zn100  1  0.87573828  0.49902120  0.37546697  1
  Zn  Zn101  1  0.87628362  0.87399732  -0.00073112  1
  Zn  Zn102  1  0.49719168  0.37397966  0.37469940  1
  Zn  Zn103  1  0.75042258  0.37298401  0.62709437  1
  Zn  Zn104  1  0.87712320  0.75423852  0.62270018  1
  Zn  Zn105  1  0.62523522  0.75141381  0.37523079  1
  Zn  Zn106  1  0.37577608  0.37337245  0.49719301  1
  Zn  Zn107  1  0.62358605  0.87528334  0.74547370  1
  Zn  Zn108  1  0.37579198  0.62371705  0.25010272  1
  Zn  Zn109  1  0.37533950  0.25066644  0.12609180  1
  Zn  Zn110  1  0.75254334  0.49662777  0.75108358  1
  Zn  Zn111  1  0.12521385  0.87481383  0.24892177  1
  Zn  Zn112  1  0.62519591  -0.00370937  0.62032292  1
  Zn  Zn113  1  0.00003258  0.75033470  0.74756616  1
  Zn  Zn114  1  0.74798001  0.86977644  0.61947998  1
  Zn  Zn115  1  0.37438424  0.24847840  0.62322929  1
  Zn  Zn116  1  -0.00100725  0.62821206  0.62610936  1
  Zn  Zn117  1  0.25144479  0.00167348  0.74858453  1
  Zn  Zn118  1  0.50295579  0.00016699  0.50005149  1
  Zn  Zn119  1  0.37536699  0.49822232  0.37322114  1
  Zn  Zn120  1  0.12400287  0.62737413  0.50172635  1
  Zn  Zn121  1  0.87326411  0.37552673  0.00034162  1
  Zn  Zn122  1  0.87224883  0.87251279  0.50176356  1
  Zn  Zn123  1  0.87419727  0.49838156  0.87552988  1
  Zn  Zn124  1  0.12516711  0.37382944  0.75176663  1
  Zn  Zn125  1  0.24966181  0.62573991  0.87369729  1
  Zn  Zn126  1  0.49953835  0.75186818  0.74857796  1
  Zn  Zn127  1  0.37346409  0.12396856  0.74795900  1
  Zn  Zn128  1  0.18830758  0.18798560  0.18704073  1
  Zn  Zn129  1  0.18477589  0.18918374  0.68946929  1
  Zn  Zn130  1  0.18644577  0.68732125  0.18737015  1
  Zn  Zn131  1  0.18827538  0.68866862  0.68880646  1
  Zn  Zn132  1  0.68671966  0.18670141  0.18825787  1
  Zn  Zn133  1  0.68623861  0.18578572  0.68681341  1
  Zn  Zn134  1  0.68727765  0.68751437  0.18819468  1
  Zn  Zn135  1  0.69243361  0.68713208  0.68600357  1
  Zn  Zn136  1  0.31519879  0.31375828  0.31422041  1
  Zn  Zn137  1  0.31227106  0.31252224  0.81166830  1
  Zn  Zn138  1  0.31331476  0.81192934  0.31065580  1
  Zn  Zn139  1  0.31154674  0.81336196  0.81127375  1
  Zn  Zn140  1  0.81319219  0.31349676  0.31361615  1
  Zn  Zn141  1  0.81265647  0.31302588  0.81281451  1
  Zn  Zn142  1  0.81359624  0.81207622  0.31418922  1
  Zn  Zn143  1  0.81439918  0.81248236  0.81080972  1
  Zn  Zn144  1  0.18612407  0.43806920  0.43855176  1
  Zn  Zn145  1  0.18573800  0.43794248  0.93663652  1
  Zn  Zn146  1  0.18688192  0.93713039  0.43717874  1
  Zn  Zn147  1  0.18729046  0.93818155  0.93760632  1
  Zn  Zn148  1  0.68763230  0.43639116  0.43753305  1
  Zn  Zn149  1  0.68543969  0.43590277  0.93897953  1
  Zn  Zn150  1  0.68593085  0.93795831  0.43918886  1
  Zn  Zn151  1  0.68930043  0.93613320  0.93637844  1
  Zn  Zn152  1  0.31349230  0.06265037  0.06189296  1
  Zn  Zn153  1  0.31545412  0.06285246  0.56193606  1
  Zn  Zn154  1  0.31151362  0.56348354  0.06256195  1
  Zn  Zn155  1  0.31234773  0.56375074  0.56193980  1
  Zn  Zn156  1  0.81333091  0.06228833  0.06170704  1
  Zn  Zn157  1  0.81326365  0.06229457  0.56154145  1
  Zn  Zn158  1  0.81324621  0.56349454  0.06348368  1
  Zn  Zn159  1  0.81340354  0.56302564  0.56365491  1
  Zn  Zn160  1  0.43535788  0.43749898  0.18915932  1
  Zn  Zn161  1  0.43790020  0.43865683  0.68645905  1
  Zn  Zn162  1  0.43723789  0.93733670  0.18759295  1
  Zn  Zn163  1  0.43705544  0.93848360  0.69037630  1
  Zn  Zn164  1  0.93629033  0.43751433  0.18712282  1
  Zn  Zn165  1  0.93538843  0.43870556  0.68995842  1
  Zn  Zn166  1  0.93816034  0.93532909  0.18772583  1
  Zn  Zn167  1  0.93570371  0.93597929  0.68588229  1
  Zn  Zn168  1  0.06360452  0.06193956  0.31118059  1
  Zn  Zn169  1  0.06394392  0.06198744  0.81133480  1
  Zn  Zn170  1  0.06344188  0.56437175  0.31435307  1
  Zn  Zn171  1  0.06257664  0.56243850  0.81407197  1
  Zn  Zn172  1  0.56323965  0.06182092  0.31330269  1
  Zn  Zn173  1  0.56247262  0.06212107  0.81112500  1
  Zn  Zn174  1  0.56311145  0.56252772  0.31248108  1
  Zn  Zn175  1  0.56100767  0.56395296  0.81138058  1
  Zn  Zn176  1  0.43637090  0.18886276  0.43878954  1
  Zn  Zn177  1  0.43566696  0.18825362  0.93889137  1
  Zn  Zn178  1  0.43775658  0.68810043  0.43757443  1
  Zn  Zn179  1  0.43700985  0.68680724  0.93691874  1
  Zn  Zn180  1  0.93689307  0.18692706  0.43732679  1
  Zn  Zn181  1  0.93590475  0.18767482  0.93748508  1
  Zn  Zn182  1  0.93703587  0.68804494  0.43702318  1
  Zn  Zn183  1  0.93847723  0.68842210  0.93641729  1
  Zn  Zn184  1  0.06367158  0.31244461  0.06172962  1
  Zn  Zn185  1  0.06345361  0.31385766  0.56395590  1
  Zn  Zn186  1  0.06200024  0.81367056  0.06215129  1
  Zn  Zn187  1  0.05959095  0.81159301  0.56254106  1
  Zn  Zn188  1  0.56148715  0.31198313  0.06415273  1
  Zn  Zn189  1  0.56415033  0.31112897  0.56200397  1
  Zn  Zn190  1  0.56371986  0.81140622  0.06147339  1
  Zn  Zn191  1  0.56315061  0.81472112  0.56384639  1
  O  O192  1  0.11961374  0.12009941  0.11991274  1
  O  O193  1  0.12000323  0.12061633  0.61919299  1
  O  O194  1  0.12269653  0.61810220  0.11771565  1
  O  O195  1  0.12538344  0.61198474  0.62388828  1
  O  O196  1  0.62006752  0.11819087  0.11967098  1
  O  O197  1  0.61223938  0.12390979  0.62439817  1
  O  O198  1  0.62014607  0.61904426  0.11912891  1
  O  O199  1  0.62044896  0.61662811  0.61802480  1
  O  O200  1  0.37872256  0.38056376  0.37972777  1
  O  O201  1  0.38017983  0.38109828  0.88035057  1
  O  O202  1  0.37936501  0.87956722  0.37934648  1
  O  O203  1  0.38039903  0.87955571  0.88142933  1
  O  O204  1  0.88268961  0.37680502  0.38195076  1
  O  O205  1  0.88565442  0.37648089  0.87931369  1
  O  O206  1  0.88309435  0.88350206  0.37336111  1
  O  O207  1  0.88233775  0.88199417  0.87660958  1
  O  O208  1  0.25496704  0.00585909  0.36923244  1
  O  O209  1  0.25579458  0.01025173  0.87717564  1
  O  O210  1  0.24713972  0.50975111  0.37072272  1
  O  O211  1  0.25615376  0.49994786  0.86796791  1
  O  O212  1  0.75628350  0.00627260  0.36687597  1
  O  O213  1  0.75509768  0.00614678  0.86912705  1
  O  O214  1  0.75041723  0.50899361  0.36877151  1
  O  O215  1  0.74842748  0.51208105  0.87798817  1
  O  O216  1  0.24351221  0.49465980  0.12986444  1
  O  O217  1  0.24278748  0.49332788  0.62807902  1
  O  O218  1  0.24554102  0.99543563  0.12872519  1
  O  O219  1  0.24357049  0.99458487  0.62387664  1
  O  O220  1  0.74367482  0.49462114  0.12933713  1
  O  O221  1  0.73577312  0.49828005  0.62507491  1
  O  O222  1  0.74537238  0.99508366  0.12975592  1
  O  O223  1  0.74951810  1.00484623  0.63852224  1
  O  O224  1  0.00555072  0.36997050  0.25509553  1
  O  O225  1  -0.00098115  0.37008334  0.76030119  1
  O  O226  1  0.00249410  0.86807071  0.25634477  1
  O  O227  1  0.00791285  0.87636965  0.75729411  1
  O  O228  1  0.50704431  0.36835636  0.24952118  1
  O  O229  1  0.50420342  0.36749242  0.75503114  1
  O  O230  1  0.50504898  0.86946372  0.25326786  1
  O  O231  1  0.50259348  0.87150125  0.75990606  1
  O  O232  1  0.49531608  0.12913681  0.24458282  1
  O  O233  1  0.49923155  0.13484274  0.74445310  1
  O  O234  1  0.49981261  0.63054591  0.24279979  1
  O  O235  1  0.49304633  0.62699292  0.74257793  1
  O  O236  1  0.99556443  0.13102823  0.24410976  1
  O  O237  1  0.99418601  0.12994124  0.74487904  1
  O  O238  1  0.99329770  0.63074310  0.24974548  1
  O  O239  1  0.98898597  0.62475968  0.75195890  1
  O  O240  1  0.36875652  0.25802961  0.00254718  1
  O  O241  1  0.36492851  0.25285334  0.50334027  1
  O  O242  1  0.37011959  0.75533547  0.00468175  1
  O  O243  1  0.36921434  0.75567416  0.50565678  1
  O  O244  1  0.86708005  0.24957725  0.00771104  1
  O  O245  1  0.87117368  0.25488236  0.50528024  1
  O  O246  1  0.86867704  0.75033335  0.00679906  1
  O  O247  1  0.87371109  0.75211256  0.50176801  1
  O  O248  1  0.12905792  0.24465418  0.49420033  1
  O  O249  1  0.13148778  0.24302283  0.99827164  1
  O  O250  1  0.13207742  0.74904993  0.49273747  1
  O  O251  1  0.13012785  0.74569737  0.99514384  1
  O  O252  1  0.63262931  0.24814165  0.49281307  1
  O  O253  1  0.62921850  0.24419175  0.99536188  1
  O  O254  1  0.62352135  0.73356908  0.49861585  1
  O  O255  1  0.63057337  0.74355194  0.99174007  1
  O  O256  1  0.49951591  0.24194030  0.13192362  1
  O  O257  1  0.49967864  0.24390347  0.63435318  1
  O  O258  1  0.49539555  0.74463704  0.12831477  1
  O  O259  1  0.49262568  0.74329120  0.62548213  1
  O  O260  1  0.99529741  0.24491674  0.13034247  1
  O  O261  1  0.99476864  0.24506411  0.63003118  1
  O  O262  1  0.99386059  0.74902309  0.13096301  1
  O  O263  1  0.99784704  0.74451471  0.62984391  1
  O  O264  1  0.00573051  0.25460937  0.36920316  1
  O  O265  1  -0.00054061  0.25785538  0.87096260  1
  O  O266  1  0.00626890  0.75490369  0.36913483  1
  O  O267  1  0.00791142  0.75826619  0.87460344  1
  O  O268  1  0.50750355  0.24968214  0.36827563  1
  O  O269  1  0.50439464  0.25472475  0.86839345  1
  O  O270  1  0.50103264  0.75573317  0.36721694  1
  O  O271  1  0.50995765  0.75432132  0.87646720  1
  O  O272  1  0.24409665  0.13042813  0.49424107  1
  O  O273  1  0.24572701  0.13004481  0.99336412  1
  O  O274  1  0.24851131  0.63118663  0.49123038  1
  O  O275  1  0.24341713  0.63199519  0.99796092  1
  O  O276  1  0.75140798  0.13261938  0.49149933  1
  O  O277  1  0.74333474  0.12961151  0.99513612  1
  O  O278  1  0.74141488  0.62022239  0.49076421  1
  O  O279  1  0.74443884  0.62957650  0.99312567  1
  O  O280  1  0.25383975  0.37101130  0.00482131  1
  O  O281  1  0.24798702  0.36989246  0.50932795  1
  O  O282  1  0.25614206  0.87021557  0.00531601  1
  O  O283  1  0.25614283  0.86983987  0.50444023  1
  O  O284  1  0.74957234  0.36764798  0.00689681  1
  O  O285  1  0.75735286  0.36842170  0.50165988  1
  O  O286  1  0.75166975  0.86790838  0.00674610  1
  O  O287  1  0.75268129  0.86999690  0.49787678  1
  O  O288  1  0.12897404  0.49433548  0.24484945  1
  O  O289  1  0.13010045  0.49798823  0.74156446  1
  O  O290  1  0.13253115  1.00002119  0.24220540  1
  O  O291  1  0.12791447  0.99476036  0.74188624  1
  O  O292  1  0.63034053  0.49458465  0.24382606  1
  O  O293  1  0.62312226  0.49527725  0.74060866  1
  O  O294  1  0.63129759  0.99430151  0.24323414  1
  O  O295  1  0.63668210  0.99958866  0.75116980  1
  O  O296  1  0.36920892  0.00569105  0.25466094  1
  O  O297  1  0.37125590  0.00346408  0.76052033  1
  O  O298  1  0.36553652  0.50381389  0.25182238  1
  O  O299  1  0.37059138  0.50525829  0.75445757  1
  O  O300  1  0.87053887  0.00617242  0.25363850  1
  O  O301  1  0.86774372  0.00705710  0.75627855  1
  O  O302  1  0.86811313  0.50546453  0.25119321  1
  O  O303  1  0.87110372  0.50900357  0.75587808  1
  O  O304  1  0.12010173  0.36873724  0.36949131  1
  O  O305  1  0.11224649  0.37281888  0.87405457  1
  O  O306  1  0.11933353  0.86933872  0.37179911  1
  O  O307  1  0.12077420  0.87179822  0.86965994  1
  O  O308  1  0.62394965  0.36816095  0.36765682  1
  O  O309  1  0.61770502  0.36959539  0.87099030  1
  O  O310  1  0.61784899  0.87309877  0.36626871  1
  O  O311  1  0.62027213  0.86382120  0.87657851  1
  O  O312  1  0.38204105  0.12535384  0.13140038  1
  O  O313  1  0.38458366  0.12810298  0.62852580  1
  O  O314  1  0.38200502  0.63183363  0.12460705  1
  O  O315  1  0.37963903  0.63080464  0.62958024  1
  O  O316  1  0.88064174  0.13014699  0.13042114  1
  O  O317  1  0.88214686  0.13085531  0.63044370  1
  O  O318  1  0.87609057  0.63190905  0.13247240  1
  O  O319  1  0.87591176  0.62200979  0.63892582  1
  O  O320  1  0.25126516  0.25720221  0.11894179  1
  O  O321  1  0.24773366  0.25955129  0.62074852  1
  O  O322  1  0.25524373  0.75562529  0.11928562  1
  O  O323  1  0.25486686  0.75621987  0.61848377  1
  O  O324  1  0.75399910  0.25392950  0.12063732  1
  O  O325  1  0.75675495  0.24941461  0.61880033  1
  O  O326  1  0.75491678  0.75451844  0.12063996  1
  O  O327  1  0.75606552  0.74991208  0.62093520  1
  O  O328  1  0.24355271  0.24425158  0.37941767  1
  O  O329  1  0.24968970  0.24135971  0.88125891  1
  O  O330  1  0.24607253  0.74355856  0.37858672  1
  O  O331  1  0.24363723  0.75039702  0.88254979  1
  O  O332  1  0.74611606  0.24488362  0.37924138  1
  O  O333  1  0.74375383  0.24433243  0.88057962  1
  O  O334  1  0.74689035  0.73470939  0.37352561  1
  O  O335  1  0.74269890  0.74096402  0.88013059  1
  O  O336  1  0.00508200  0.12066371  0.00556467  1
  O  O337  1  0.00631028  0.12102723  0.50489769  1
  O  O338  1  0.00559707  0.61457871  0.00023934  1
  O  O339  1  0.00184496  0.61118669  0.50089283  1
  O  O340  1  0.50516739  0.11930882  0.00497178  1
  O  O341  1  0.50011622  0.12552621  0.51138977  1
  O  O342  1  0.50532367  0.61888890  0.00516206  1
  O  O343  1  0.50792131  0.61718087  0.50414312  1
  O  O344  1  0.50044464  0.38597853  0.50018752  1
  O  O345  1  0.49470250  0.38010925  0.99519677  1
  O  O346  1  0.49287027  0.87485424  0.49175326  1
  O  O347  1  0.49530423  0.88013234  0.99527091  1
  O  O348  1  0.99602021  0.38191072  0.49568096  1
  O  O349  1  0.99928833  0.38279988  0.99362603  1
  O  O350  1  1.00070550  0.88439167  0.49148823  1
  O  O351  1  0.99945714  0.88370876  0.99298952  1
  O  O352  1  0.50036179  0.49992583  0.38593910  1
  O  O353  1  0.49486284  0.49473246  0.88055653  1
  O  O354  1  0.49188643  0.99256916  0.37272484  1
  O  O355  1  0.49574722  0.99524430  0.88171807  1
  O  O356  1  1.00186853  0.49343430  0.38567560  1
  O  O357  1  1.00039890  0.49118935  0.88562810  1
  O  O358  1  0.99607402  0.99642972  0.37825576  1
  O  O359  1  0.99532121  0.99684655  0.88021718  1
  O  O360  1  0.00490192  0.00611921  0.12027418  1
  O  O361  1  0.00604418  0.00736411  0.61886784  1
  O  O362  1  0.00591143  0.49896067  0.11553873  1
  O  O363  1  0.00891717  0.49804840  0.61799747  1
  O  O364  1  0.50644818  0.00425868  0.11944733  1
  O  O365  1  0.50010217  0.01133723  0.62580942  1
  O  O366  1  0.50498064  0.50475543  0.11969689  1
  O  O367  1  0.50895931  0.50509521  0.61771944  1
  O  O368  1  0.24343806  0.37976461  0.24542981  1
  O  O369  1  0.24848535  0.38057396  0.74079729  1
  O  O370  1  0.24991942  0.88223581  0.24221416  1
  O  O371  1  0.24378784  0.87799445  0.74197128  1
  O  O372  1  0.74427145  0.37953647  0.24454573  1
  O  O373  1  0.74104886  0.37739816  0.74920403  1
  O  O374  1  0.74496393  0.88022041  0.24457758  1
  O  O375  1  0.74838711  0.88776492  0.75309946  1
  O  O376  1  0.25530429  0.12017669  0.25511719  1
  O  O377  1  0.25063226  0.12564262  0.76256157  1
  O  O378  1  0.24969276  0.61981813  0.25902785  1
  O  O379  1  0.25740225  0.61747250  0.75055749  1
  O  O380  1  0.75652345  0.11942583  0.25358118  1
  O  O381  1  0.75483020  0.11917707  0.75681557  1
  O  O382  1  0.75333941  0.61881279  0.25682853  1
  O  O383  1  0.75626077  0.62129095  0.76104295  1
  O  O384  1  0.36903794  0.11953135  0.36929901  1
  O  O385  1  0.36531000  0.11975089  0.87726624  1
  O  O386  1  0.36179227  0.62415451  0.37382429  1
  O  O387  1  0.37387813  0.61810149  0.86862108  1
  O  O388  1  0.87078552  0.12049767  0.36727513  1
  O  O389  1  0.86889186  0.12016930  0.86949446  1
  O  O390  1  0.86544477  0.62081446  0.36892629  1
  O  O391  1  0.86487842  0.62417612  0.87005364  1
  O  O392  1  0.13015322  0.38038904  0.13088538  1
  O  O393  1  0.13409754  0.38501727  0.62648095  1
  O  O394  1  0.13247873  0.88252830  0.12519137  1
  O  O395  1  0.13048604  0.88119560  0.62886692  1
  O  O396  1  0.63013880  0.38021832  0.13047429  1
  O  O397  1  0.62496799  0.38386566  0.63113911  1
  O  O398  1  0.63082513  0.88026368  0.12922754  1
  O  O399  1  0.62910113  0.87838593  0.62943554  1
  O  O400  1  0.11952293  0.25513017  0.25499242  1
  O  O401  1  0.11462837  0.25330064  0.75370309  1
  O  O402  1  0.11877307  0.75175017  0.25583954  1
  O  O403  1  0.12554764  0.75777980  0.75711803  1
  O  O404  1  0.62057394  0.25502006  0.25468125  1
  O  O405  1  0.61583506  0.25477337  0.75620541  1
  O  O406  1  0.61802472  0.75678370  0.24938844  1
  O  O407  1  0.62480149  0.74768852  0.76390071  1
  O  O408  1  0.38166234  0.24284070  0.24875452  1
  O  O409  1  0.38772999  0.24937161  0.74856554  1
  O  O410  1  0.38207116  0.74817670  0.24136582  1
  O  O411  1  0.37510389  0.74377404  0.74293995  1
  O  O412  1  0.88084671  0.24473123  0.24469930  1
  O  O413  1  0.87923164  0.24392540  0.74476364  1
  O  O414  1  0.88030030  0.74375155  0.24524827  1
  O  O415  1  0.87680976  0.73658511  0.75224720  1
  O  O416  1  0.38797556  0.50095092  0.50081870  1
  O  O417  1  0.37969518  0.49499357  0.99432583  1
  O  O418  1  0.37687285  0.99296283  0.49170670  1
  O  O419  1  0.38170446  0.99358631  0.99571356  1
  O  O420  1  0.88547759  0.49364239  0.50126386  1
  O  O421  1  0.88641976  0.49857447  0.99986806  1
  O  O422  1  0.88338151  1.00290551  0.49050867  1
  O  O423  1  0.88169337  0.99985771  0.99314057  1
  O  O424  1  0.11954286  0.00669241  0.00596321  1
  O  O425  1  0.11983310  0.00699404  0.50428000  1
  O  O426  1  0.11712613  0.50463187  0.00494692  1
  O  O427  1  0.11600899  0.49964805  0.50957991  1
  O  O428  1  0.62049097  0.00480726  0.00457570  1
  O  O429  1  0.62018003  0.00697944  0.50142705  1
  O  O430  1  0.61794591  0.50444486  0.00592499  1
  O  O431  1  0.61795738  0.50693276  0.50722891  1
  O  O432  1  0.36745158  0.37475283  0.11792226  1
  O  O433  1  0.36167553  0.37601548  0.62269001  1
  O  O434  1  0.37044718  0.86974499  0.11821897  1
  O  O435  1  0.36997904  0.87055961  0.61956869  1
  O  O436  1  0.86742439  0.36743738  0.12440847  1
  O  O437  1  0.87373915  0.36790466  0.61985657  1
  O  O438  1  0.86804444  0.86842360  0.12360557  1
  O  O439  1  0.86890031  0.87485772  0.62103469  1
  O  O440  1  0.13048099  0.13027599  0.37968560  1
  O  O441  1  0.13492724  0.12456108  0.88177408  1
  O  O442  1  0.13581173  0.63185658  0.37729756  1
  O  O443  1  0.12732133  0.63209883  0.88140504  1
  O  O444  1  0.63357705  0.13247291  0.37245540  1
  O  O445  1  0.62902508  0.13075988  0.88142523  1
  O  O446  1  0.63328920  0.62391835  0.38308254  1
  O  O447  1  0.63117817  0.63126977  0.87996613  1
