# generated using pymatgen
data_V3Zn3O8
_symmetry_space_group_name_H-M   'P 1'
_cell_length_a   17.09048937
_cell_length_b   17.08975059
_cell_length_c   17.08962236
_cell_angle_alpha   90.01958989
_cell_angle_beta   89.98530609
_cell_angle_gamma   90.00815935
_symmetry_Int_Tables_number   1
_chemical_formula_structural   V3Zn3O8
_chemical_formula_sum   'V96 Zn96 O256'
_cell_volume   4991.40310973
_cell_formula_units_Z   32
loop_
 _symmetry_equiv_pos_site_id
 _symmetry_equiv_pos_as_xyz
  1  'x, y, z'
loop_
 _atom_site_type_symbol
 _atom_site_label
 _atom_site_symmetry_multiplicity
 _atom_site_fract_x
 _atom_site_fract_y
 _atom_site_fract_z
 _atom_site_occupancy
  V  V0  1  0.12373268  0.37615994  0.74890163  1
  V  V1  1  -0.00102483  0.25144158  0.74887170  1
  V  V2  1  0.87440234  0.50140262  0.87489325  1
  V  V3  1  0.75003856  0.50014857  0.74927627  1
  V  V4  1  0.25085849  0.74909794  0.50080715  1
  V  V5  1  0.87348761  0.37518315  -0.00033352  1
  V  V6  1  0.75051710  0.87586082  0.62613512  1
  V  V7  1  0.62521175  0.87468685  0.75138008  1
  V  V8  1  0.24889381  0.37554621  0.62299450  1
  V  V9  1  0.62426208  0.12440863  0.50052417  1
  V  V10  1  0.50079727  -0.00019159  0.50106197  1
  V  V11  1  0.87615457  0.87671660  -0.00019300  1
  V  V12  1  0.62576095  0.74993201  0.87660682  1
  V  V13  1  0.75048788  0.74979359  0.50134411  1
  V  V14  1  0.12423116  0.00091710  0.12253242  1
  V  V15  1  -0.00110910  0.37622391  0.87444318  1
  V  V16  1  0.75081351  0.87537192  0.12572526  1
  V  V17  1  0.74937121  0.25043227  0.49909913  1
  V  V18  1  0.37258063  0.00082925  0.37349702  1
  V  V19  1  0.87594023  0.00079625  0.87577158  1
  V  V20  1  0.87586910  0.00010927  0.37567879  1
  V  V21  1  0.12584118  0.12489488  0.49825789  1
  V  V22  1  0.25081814  0.62461233  0.87517140  1
  V  V23  1  0.74951286  0.12515307  0.37425663  1
  V  V24  1  0.87540304  0.62617038  0.75134736  1
  V  V25  1  0.50076908  0.62432043  0.62557335  1
  V  V26  1  0.50058492  0.49923877  0.00036927  1
  V  V27  1  0.50004089  0.49818024  0.49793842  1
  V  V28  1  -0.00130317  0.62691647  0.12739241  1
  V  V29  1  -0.00107096  0.50112366  0.00063869  1
  V  V30  1  0.62444053  0.12551435  -0.00131578  1
  V  V31  1  0.49733970  0.24818443  0.24789257  1
  V  V32  1  0.12574957  0.62545006  0.49990456  1
  V  V33  1  0.87353628  0.50068263  0.37412625  1
  V  V34  1  0.37594776  0.62380002  0.25023953  1
  V  V35  1  0.62443711  0.50000232  0.12528207  1
  V  V36  1  0.62545507  0.62442429  0.00121884  1
  V  V37  1  0.25132101  0.87544962  0.62634470  1
  V  V38  1  0.62371708  0.24940980  0.37370483  1
  V  V39  1  0.12740400  0.87747382  0.75036546  1
  V  V40  1  0.49803182  0.12368342  0.12483302  1
  V  V41  1  0.25005312  0.50136655  0.74955537  1
  V  V42  1  0.74825449  0.25026427  -0.00128063  1
  V  V43  1  0.25018315  0.74744902  0.00102210  1
  V  V44  1  0.75037021  0.00055140  0.24990033  1
  V  V45  1  0.75009806  0.50045012  0.25156464  1
  V  V46  1  0.37559105  0.87379508  0.50080881  1
  V  V47  1  0.37374395  0.00005415  0.87375631  1
  V  V48  1  0.00092589  0.62594023  0.62568295  1
  V  V49  1  0.12419874  0.75089807  0.37552598  1
  V  V50  1  0.49901009  0.37511822  0.87495063  1
  V  V51  1  0.24981129  0.87351410  0.12619043  1
  V  V52  1  0.37470651  0.24972085  0.62425042  1
  V  V53  1  0.00016657  0.37448173  0.37333508  1
  V  V54  1  0.87582127  0.75172257  0.62652831  1
  V  V55  1  0.24978693  0.62399295  0.37451313  1
  V  V56  1  0.37607682  0.62418505  0.75026955  1
  V  V57  1  0.00113632  0.75139145  0.75167510  1
  V  V58  1  0.00041799  0.00069625  0.50062199  1
  V  V59  1  0.12353482  0.50073989  0.12436803  1
  V  V60  1  0.87537400  0.12560988  0.24838908  1
  V  V61  1  0.00011261  0.12587043  0.62321298  1
  V  V62  1  0.74990396  0.00177321  0.75000560  1
  V  V63  1  0.37675204  0.74880337  0.62600453  1
  V  V64  1  0.37235209  0.37299740  -0.00002291  1
  V  V65  1  0.87408460  0.12582273  0.74963424  1
  V  V66  1  0.62545163  0.87400646  0.25143706  1
  V  V67  1  0.50018091  -0.00141565  -0.00022769  1
  V  V68  1  0.24936561  0.49944103  0.24933236  1
  V  V69  1  0.87463925  0.25069260  0.62401204  1
  V  V70  1  0.74900118  0.37489809  0.12479566  1
  V  V71  1  0.50096551  0.87333540  0.37546519  1
  V  V72  1  0.62379630  0.25035110  0.87382232  1
  V  V73  1  0.49880099  0.25065113  0.74840870  1
  V  V74  1  0.87638495  0.87653273  0.50107901  1
  V  V75  1  0.37620983  0.74935163  0.12587256  1
  V  V76  1  0.12429661  0.87457608  0.25178055  1
  V  V77  1  0.62400688  0.37412750  0.24972218  1
  V  V78  1  -0.00106338  0.25025857  0.24845507  1
  V  V79  1  0.87596756  0.75075544  0.12646854  1
  V  V80  1  0.12642929  0.74988587  0.87577822  1
  V  V81  1  0.12665897  0.24876861  0.87619155  1
  V  V82  1  -0.00012434  0.49988290  0.49927818  1
  V  V83  1  0.24880066  0.37371273  0.12287251  1
  V  V84  1  0.12492546  0.50086898  0.62432191  1
  V  V85  1  0.50158715  0.87401995  0.87590981  1
  V  V86  1  0.74979509  0.37643411  0.62514658  1
  V  V87  1  0.74986589  0.74978753  0.00084091  1
  V  V88  1  0.87431273  0.24944690  0.12434320  1
  V  V89  1  0.62430471  0.00049678  0.62528805  1
  V  V90  1  0.87512076  0.37494763  0.49889428  1
  V  V91  1  0.24982623  0.25031691  0.49709139  1
  V  V92  1  0.12397126  0.37393204  0.24868232  1
  V  V93  1  0.62629381  0.75021861  0.37658031  1
  V  V94  1  0.62629282  0.62527732  0.50131167  1
  V  V95  1  0.62466185  -0.00085691  0.12489693  1
  Zn  Zn96  1  0.62427769  0.37736878  0.74852136  1
  Zn  Zn97  1  0.37569719  0.37515413  0.49529175  1
  Zn  Zn98  1  0.37068088  0.12490423  0.75012300  1
  Zn  Zn99  1  0.87315726  0.62810578  0.25383693  1
  Zn  Zn100  1  0.37589659  0.87358755  0.00027759  1
  Zn  Zn101  1  0.37486700  0.50018111  0.87434124  1
  Zn  Zn102  1  0.00046542  0.00159763  0.00021010  1
  Zn  Zn103  1  0.37171710  0.12300101  0.24696931  1
  Zn  Zn104  1  0.37018134  0.24483295  0.12370827  1
  Zn  Zn105  1  0.12438987  0.12358284  -0.00118298  1
  Zn  Zn106  1  0.24974396  0.00370092  0.24911318  1
  Zn  Zn107  1  0.50240285  0.74795987  0.25056226  1
  Zn  Zn108  1  0.49840953  0.12420131  0.62574976  1
  Zn  Zn109  1  0.75051594  0.62544451  0.87553895  1
  Zn  Zn110  1  -0.00273101  0.74985808  0.25424110  1
  Zn  Zn111  1  0.37492505  0.49712326  0.37447584  1
  Zn  Zn112  1  0.00010612  0.87406516  0.37670056  1
  Zn  Zn113  1  0.62514895  0.49935659  0.62630725  1
  Zn  Zn114  1  0.12820129  0.00143813  0.62629957  1
  Zn  Zn115  1  0.00030877  0.12457951  0.12209522  1
  Zn  Zn116  1  0.75153638  0.62511319  0.37577009  1
  Zn  Zn117  1  0.00249035  0.87577152  0.87746808  1
  Zn  Zn118  1  0.12536653  0.62528969  0.00013798  1
  Zn  Zn119  1  0.24828736  0.12290496  0.87425185  1
  Zn  Zn120  1  0.49775479  0.37455580  0.37397228  1
  Zn  Zn121  1  0.12600629  0.24931150  0.37157126  1
  Zn  Zn122  1  0.25196242  0.00302432  0.74865353  1
  Zn  Zn123  1  0.50106955  0.62440753  0.12638114  1
  Zn  Zn124  1  0.25044437  0.12565270  0.37176373  1
  Zn  Zn125  1  0.74889721  0.12731818  0.87359243  1
  Zn  Zn126  1  0.50183769  0.74757101  0.75155204  1
  Zn  Zn127  1  0.24853204  0.24523643  0.00009312  1
  Zn  Zn128  1  0.18890067  0.18621155  0.18724247  1
  Zn  Zn129  1  0.18866902  0.18629577  0.68894236  1
  Zn  Zn130  1  0.18662737  0.68754150  0.18868696  1
  Zn  Zn131  1  0.18910672  0.68890429  0.68862998  1
  Zn  Zn132  1  0.68593616  0.18653329  0.18591531  1
  Zn  Zn133  1  0.68625534  0.18816396  0.68683696  1
  Zn  Zn134  1  0.68923857  0.68628849  0.18888982  1
  Zn  Zn135  1  0.68744614  0.68672875  0.68848611  1
  Zn  Zn136  1  0.31449247  0.31442268  0.31196586  1
  Zn  Zn137  1  0.31149364  0.31508288  0.81172519  1
  Zn  Zn138  1  0.31098159  0.81253905  0.31280800  1
  Zn  Zn139  1  0.31441823  0.81176780  0.81321765  1
  Zn  Zn140  1  0.81199431  0.31306508  0.31176545  1
  Zn  Zn141  1  0.81128480  0.31405100  0.81236769  1
  Zn  Zn142  1  0.81263825  0.81274360  0.31402246  1
  Zn  Zn143  1  0.81177441  0.81435836  0.81453476  1
  Zn  Zn144  1  0.18647091  0.43715443  0.43483320  1
  Zn  Zn145  1  0.18626075  0.43836454  0.93689123  1
  Zn  Zn146  1  0.18826869  0.93728203  0.43925577  1
  Zn  Zn147  1  0.19127013  0.93441094  0.93984823  1
  Zn  Zn148  1  0.68506027  0.43744220  0.43646896  1
  Zn  Zn149  1  0.68633877  0.43709204  0.93521416  1
  Zn  Zn150  1  0.68905721  0.93718418  0.43808807  1
  Zn  Zn151  1  0.68953422  0.93771347  0.93755384  1
  Zn  Zn152  1  0.30913848  0.06287010  0.05809994  1
  Zn  Zn153  1  0.31247015  0.06231210  0.56236079  1
  Zn  Zn154  1  0.31235073  0.56094115  0.06210847  1
  Zn  Zn155  1  0.31511864  0.56244810  0.56235481  1
  Zn  Zn156  1  0.81065286  0.06426039  0.06120558  1
  Zn  Zn157  1  0.81171401  0.06343678  0.56246261  1
  Zn  Zn158  1  0.81178107  0.56362731  0.06460410  1
  Zn  Zn159  1  0.81358983  0.56315103  0.56358702  1
  Zn  Zn160  1  0.43670800  0.43543865  0.18467664  1
  Zn  Zn161  1  0.43617147  0.43719964  0.68422670  1
  Zn  Zn162  1  0.43904980  0.93531919  0.18939055  1
  Zn  Zn163  1  0.43938759  0.93556536  0.68990925  1
  Zn  Zn164  1  0.93566974  0.43826955  0.18776366  1
  Zn  Zn165  1  0.93603393  0.43886654  0.68702322  1
  Zn  Zn166  1  0.94010220  0.93753999  0.18810316  1
  Zn  Zn167  1  0.94037635  0.93929454  0.68825338  1
  Zn  Zn168  1  0.06141765  0.06219405  0.31133519  1
  Zn  Zn169  1  0.06006035  0.06389549  0.81118801  1
  Zn  Zn170  1  0.06208384  0.56201238  0.31182920  1
  Zn  Zn171  1  0.06339501  0.56415173  0.81318865  1
  Zn  Zn172  1  0.56065868  0.06196421  0.31297225  1
  Zn  Zn173  1  0.55940171  0.06423917  0.81239282  1
  Zn  Zn174  1  0.56384671  0.56385810  0.31451565  1
  Zn  Zn175  1  0.56371908  0.56219487  0.81443410  1
  Zn  Zn176  1  0.43818139  0.18538481  0.43651356  1
  Zn  Zn177  1  0.43733130  0.18592467  0.93652665  1
  Zn  Zn178  1  0.43910160  0.68561790  0.43743713  1
  Zn  Zn179  1  0.43904360  0.68538819  0.93812390  1
  Zn  Zn180  1  0.93795637  0.18783050  0.43490156  1
  Zn  Zn181  1  0.94032292  0.18531003  0.93879942  1
  Zn  Zn182  1  0.93767928  0.68784147  0.43797993  1
  Zn  Zn183  1  0.93840124  0.68888552  0.93868194  1
  Zn  Zn184  1  0.06039237  0.31328382  0.06179675  1
  Zn  Zn185  1  0.06299165  0.31229283  0.56099878  1
  Zn  Zn186  1  0.06191929  0.81360234  0.06152111  1
  Zn  Zn187  1  0.06324453  0.81346302  0.56406451  1
  Zn  Zn188  1  0.56059200  0.31236840  0.06248128  1
  Zn  Zn189  1  0.56388251  0.31487547  0.56277191  1
  Zn  Zn190  1  0.56184790  0.81176810  0.06303087  1
  Zn  Zn191  1  0.56235090  0.81221578  0.56351529  1
  O  O192  1  0.12459507  0.11102282  0.12558246  1
  O  O193  1  0.11912510  0.12588246  0.61433824  1
  O  O194  1  0.11544316  0.61955442  0.12469252  1
  O  O195  1  0.12060775  0.62057614  0.61992026  1
  O  O196  1  0.61916995  0.11802740  0.11882359  1
  O  O197  1  0.62379636  0.11824357  0.61800321  1
  O  O198  1  0.62386435  0.61805259  0.11969743  1
  O  O199  1  0.61859010  0.62422206  0.61886167  1
  O  O200  1  0.38009861  0.37963133  0.37767137  1
  O  O201  1  0.37972470  0.37715748  0.88339840  1
  O  O202  1  0.37994742  0.88002968  0.38148129  1
  O  O203  1  0.38307974  0.88160193  0.87677667  1
  O  O204  1  0.88029239  0.37991799  0.38047747  1
  O  O205  1  0.88037111  0.38096598  0.88016893  1
  O  O206  1  0.87599219  0.88263285  0.38306594  1
  O  O207  1  0.87552770  0.88544437  0.88008651  1
  O  O208  1  0.26266106  -0.00057809  0.37631242  1
  O  O209  1  0.26348192  -0.00377949  0.87382451  1
  O  O210  1  0.25023691  0.50694435  0.36761480  1
  O  O211  1  0.24945323  0.50625168  0.86663626  1
  O  O212  1  0.75548016  0.00590529  0.36977591  1
  O  O213  1  0.75966144  0.00228639  0.86857414  1
  O  O214  1  0.75599297  0.49942744  0.36952981  1
  O  O215  1  0.75732457  0.50072290  0.86780962  1
  O  O216  1  0.24289483  0.49465380  0.13012237  1
  O  O217  1  0.24361715  0.49584971  0.62853281  1
  O  O218  1  0.24166086  0.99109186  0.12597272  1
  O  O219  1  0.24918101  0.99095346  0.62731394  1
  O  O220  1  0.74443777  0.49315367  0.13040178  1
  O  O221  1  0.75189372  0.49396374  0.63206188  1
  O  O222  1  0.74423681  0.99499567  0.13046890  1
  O  O223  1  0.74481041  0.99508416  0.63018026  1
  O  O224  1  0.00413016  0.37059142  0.25397751  1
  O  O225  1  0.00391384  0.37136721  0.75409486  1
  O  O226  1  0.01284645  0.87275427  0.25301069  1
  O  O227  1  0.01079485  0.86929895  0.75025042  1
  O  O228  1  0.50607410  0.36432178  0.24786151  1
  O  O229  1  0.49882471  0.36541851  0.75435507  1
  O  O230  1  0.50850506  0.87199326  0.25778091  1
  O  O231  1  0.50905184  0.87141423  0.75741707  1
  O  O232  1  0.50025989  0.13310622  0.24336538  1
  O  O233  1  0.49616714  0.13957697  0.74721072  1
  O  O234  1  0.48863670  0.62622637  0.24878089  1
  O  O235  1  0.49425883  0.62464031  0.74407501  1
  O  O236  1  0.99235315  0.13198809  0.24782825  1
  O  O237  1  0.99350793  0.13201259  0.74226896  1
  O  O238  1  0.99770847  0.62570724  0.23810744  1
  O  O239  1  0.99559991  0.63108017  0.74432072  1
  O  O240  1  0.37443181  0.26239069  -0.00034919  1
  O  O241  1  0.36638629  0.24939542  0.50704373  1
  O  O242  1  0.37039166  0.74811774  0.01186160  1
  O  O243  1  0.36990810  0.75384206  0.50509280  1
  O  O244  1  0.86898589  0.25604210  0.00383908  1
  O  O245  1  0.86931597  0.25504544  0.50393361  1
  O  O246  1  0.86966654  0.75656622  0.00586715  1
  O  O247  1  0.87107016  0.75626805  0.50779807  1
  O  O248  1  0.13319568  0.24234048  0.49909621  1
  O  O249  1  0.12331638  0.25356165  0.98600313  1
  O  O250  1  0.13115516  0.74452370  0.49663245  1
  O  O251  1  0.13207563  0.74894202  0.99384185  1
  O  O252  1  0.62999256  0.24464980  0.49423792  1
  O  O253  1  0.62821639  0.24545912  0.99421968  1
  O  O254  1  0.63131168  0.74616874  0.49654524  1
  O  O255  1  0.63079436  0.74491365  0.99695483  1
  O  O256  1  0.50030913  0.24260713  0.13378109  1
  O  O257  1  0.49088174  0.25204334  0.63116441  1
  O  O258  1  0.48886609  0.74760546  0.12812054  1
  O  O259  1  0.49383205  0.74300556  0.62614939  1
  O  O260  1  0.99134345  0.25093010  0.13110614  1
  O  O261  1  0.99382374  0.24635829  0.62886818  1
  O  O262  1  0.99494255  0.74090361  0.12546557  1
  O  O263  1  0.99539896  0.74489794  0.63110619  1
  O  O264  1  0.00016274  0.25755819  0.36705920  1
  O  O265  1  0.00541538  0.25733187  0.86793673  1
  O  O266  1  0.00867807  0.75277745  0.37507966  1
  O  O267  1  0.00719775  0.75167593  0.86861365  1
  O  O268  1  0.50606092  0.24802339  0.36426842  1
  O  O269  1  0.50312053  0.25522203  0.86638251  1
  O  O270  1  0.50735341  0.75633799  0.37509567  1
  O  O271  1  0.50790396  0.75588063  0.87541946  1
  O  O272  1  0.24166693  0.13410791  0.50040558  1
  O  O273  1  0.24247444  0.12862991  0.99178768  1
  O  O274  1  0.24463842  0.62928932  0.49514301  1
  O  O275  1  0.24836214  0.62962867  0.99390217  1
  O  O276  1  0.74478627  0.13095716  0.49392875  1
  O  O277  1  0.74167047  0.13308242  0.99812271  1
  O  O278  1  0.74477613  0.63262964  0.50149032  1
  O  O279  1  0.74395445  0.63194964  0.99996514  1
  O  O280  1  0.25815987  0.37571821  0.00379777  1
  O  O281  1  0.24764672  0.36540923  0.50507432  1
  O  O282  1  0.25440496  0.86448955  0.00886037  1
  O  O283  1  0.25598256  0.86789203  0.50629508  1
  O  O284  1  0.75426951  0.36988529  0.00527222  1
  O  O285  1  0.75580183  0.36930000  0.50381083  1
  O  O286  1  0.75553775  0.86997098  0.00723144  1
  O  O287  1  0.75637792  0.87064571  0.50753713  1
  O  O288  1  0.12969371  0.49397816  0.24388690  1
  O  O289  1  0.12918052  0.49568733  0.74318518  1
  O  O290  1  0.12638820  0.99027356  0.24369677  1
  O  O291  1  0.12546285  0.98804980  0.74965367  1
  O  O292  1  0.62930029  0.49401603  0.24534804  1
  O  O293  1  0.63476776  0.49846710  0.74810103  1
  O  O294  1  0.63079411  0.99473157  0.24526322  1
  O  O295  1  0.62977312  0.99570019  0.74561545  1
  O  O296  1  0.37467387  -0.00214064  0.26233782  1
  O  O297  1  0.37660912  0.00080216  0.76094889  1
  O  O298  1  0.36879161  0.50954414  0.24766618  1
  O  O299  1  0.36716539  0.50555244  0.74949288  1
  O  O300  1  0.86946019  0.00500536  0.25507414  1
  O  O301  1  0.87003388  0.00543413  0.75626821  1
  O  O302  1  0.86764609  0.49941288  0.25699447  1
  O  O303  1  0.87078985  0.50645730  0.75530323  1
  O  O304  1  0.11756381  0.37365742  0.36674228  1
  O  O305  1  0.11766704  0.37005921  0.86761765  1
  O  O306  1  0.12571453  0.86998440  0.36795890  1
  O  O307  1  0.12582775  0.86887662  0.86577089  1
  O  O308  1  0.62255591  0.36652395  0.36725838  1
  O  O309  1  0.61654663  0.36765481  0.87297816  1
  O  O310  1  0.62100215  0.87058573  0.37127000  1
  O  O311  1  0.62148538  0.87045185  0.87079968  1
  O  O312  1  0.38318393  0.12492412  0.12522528  1
  O  O313  1  0.37606261  0.13854902  0.62567273  1
  O  O314  1  0.37364685  0.63258444  0.13456906  1
  O  O315  1  0.38056895  0.63029412  0.63043745  1
  O  O316  1  0.87366822  0.13176012  0.13145302  1
  O  O317  1  0.87981165  0.13175925  0.62887032  1
  O  O318  1  0.88387972  0.63114278  0.12670632  1
  O  O319  1  0.88229035  0.63188976  0.63078716  1
  O  O320  1  0.25034344  0.25882300  0.12076613  1
  O  O321  1  0.25582716  0.25527164  0.61714125  1
  O  O322  1  0.25754527  0.75258150  0.12135396  1
  O  O323  1  0.25694742  0.75443204  0.61929314  1
  O  O324  1  0.75376755  0.25569346  0.11902458  1
  O  O325  1  0.75587859  0.25507541  0.61835233  1
  O  O326  1  0.75565268  0.75665174  0.12043159  1
  O  O327  1  0.75668417  0.75688477  0.62173318  1
  O  O328  1  0.24942430  0.24917364  0.38686129  1
  O  O329  1  0.23581167  0.25343664  0.87357705  1
  O  O330  1  0.24461121  0.74381877  0.38191295  1
  O  O331  1  0.24647941  0.74410529  0.88097958  1
  O  O332  1  0.74443761  0.24450022  0.37954279  1
  O  O333  1  0.74280691  0.25040563  0.88088088  1
  O  O334  1  0.74431110  0.75043291  0.38439054  1
  O  O335  1  0.74409451  0.74993991  0.88337884  1
  O  O336  1  0.00575788  0.12011828  0.00453942  1
  O  O337  1  0.00721090  0.12232635  0.50382242  1
  O  O338  1  0.00064698  0.61966747  0.01101199  1
  O  O339  1  0.00628783  0.61954191  0.50652105  1
  O  O340  1  0.50606842  0.11902744  0.00534667  1
  O  O341  1  0.50739290  0.11805539  0.50205993  1
  O  O342  1  0.50682401  0.61686218  0.00307281  1
  O  O343  1  0.50571597  0.61765396  0.50551899  1
  O  O344  1  0.49963154  0.38570279  0.49840233  1
  O  O345  1  0.49163597  0.37899115  0.99563096  1
  O  O346  1  0.49499608  0.88011649  0.49527304  1
  O  O347  1  0.49978561  0.88153192  0.99417257  1
  O  O348  1  0.99510911  0.38035364  0.49450410  1
  O  O349  1  0.99211339  0.38184237  0.99440134  1
  O  O350  1  0.99403957  0.88252718  0.50153808  1
  O  O351  1  0.99112673  0.87886924  0.99710168  1
  O  O352  1  0.49938287  0.49975765  0.38643374  1
  O  O353  1  0.49862888  0.49255783  0.88223476  1
  O  O354  1  0.49307986  0.99317764  0.38123677  1
  O  O355  1  0.49441976  0.99396096  0.88030950  1
  O  O356  1  0.99516093  0.49426107  0.38063613  1
  O  O357  1  0.99476223  0.49582118  0.87995983  1
  O  O358  1  0.99281071  0.99923772  0.38282810  1
  O  O359  1  0.98625793  0.99862249  0.87401057  1
  O  O360  1  0.01187055  0.00039144  0.12439782  1
  O  O361  1  0.00220390  0.00889787  0.61856207  1
  O  O362  1  0.00279631  0.50742441  0.12018457  1
  O  O363  1  0.00524519  0.50576678  0.61928664  1
  O  O364  1  0.50598943  0.00303273  0.12030002  1
  O  O365  1  0.50622757  0.00057910  0.61901820  1
  O  O366  1  0.50740886  0.50003153  0.11840076  1
  O  O367  1  0.50123529  0.50552200  0.61519018  1
  O  O368  1  0.24412313  0.37988610  0.24332294  1
  O  O369  1  0.24319893  0.38150878  0.74251928  1
  O  O370  1  0.23888088  0.87511959  0.24508625  1
  O  O371  1  0.24103368  0.87362669  0.74459756  1
  O  O372  1  0.74353158  0.37921387  0.24389694  1
  O  O373  1  0.75105739  0.38280739  0.74279593  1
  O  O374  1  0.74511433  0.88192101  0.24520732  1
  O  O375  1  0.74505519  0.88196155  0.74461627  1
  O  O376  1  0.25426247  0.12186456  0.25526900  1
  O  O377  1  0.25268564  0.12101376  0.75564689  1
  O  O378  1  0.25645814  0.61947785  0.25473380  1
  O  O379  1  0.25577945  0.62006543  0.75435241  1
  O  O380  1  0.75451055  0.11989786  0.25482326  1
  O  O381  1  0.75657536  0.11978060  0.74991532  1
  O  O382  1  0.75262210  0.61561435  0.25343419  1
  O  O383  1  0.75846069  0.61858048  0.75107027  1
  O  O384  1  0.37506796  0.11090466  0.37493647  1
  O  O385  1  0.37604712  0.11166982  0.87376176  1
  O  O386  1  0.36837501  0.62547500  0.36447878  1
  O  O387  1  0.36883486  0.62270499  0.86870281  1
  O  O388  1  0.86845946  0.12021656  0.36902744  1
  O  O389  1  0.87301538  0.11763734  0.86810798  1
  O  O390  1  0.87345361  0.61658864  0.37478994  1
  O  O391  1  0.87475196  0.61942173  0.86904484  1
  O  O392  1  0.12820445  0.38151082  0.12954147  1
  O  O393  1  0.12847471  0.38104951  0.62933881  1
  O  O394  1  0.12964513  0.87950406  0.13351459  1
  O  O395  1  0.13234138  0.87476937  0.63490434  1
  O  O396  1  0.63040202  0.37977306  0.12956799  1
  O  O397  1  0.63504781  0.37749088  0.62745516  1
  O  O398  1  0.63085004  0.88006303  0.13087542  1
  O  O399  1  0.63097376  0.88074668  0.63058465  1
  O  O400  1  0.11742086  0.25658504  0.24991293  1
  O  O401  1  0.11790910  0.25725994  0.75485230  1
  O  O402  1  0.12438150  0.75877548  0.25635565  1
  O  O403  1  0.12118190  0.75806463  0.75500782  1
  O  O404  1  0.61736622  0.25361667  0.25360106  1
  O  O405  1  0.61487495  0.25218679  0.75386466  1
  O  O406  1  0.62575200  0.75650541  0.25713362  1
  O  O407  1  0.62589043  0.75680222  0.75780018  1
  O  O408  1  0.38737560  0.24797097  0.24747331  1
  O  O409  1  0.38138007  0.25185703  0.74083594  1
  O  O410  1  0.37336078  0.74055494  0.24238175  1
  O  O411  1  0.37728371  0.74231937  0.74340239  1
  O  O412  1  0.87824190  0.24537985  0.24387785  1
  O  O413  1  0.87970898  0.24617063  0.74406369  1
  O  O414  1  0.87726732  0.74963400  0.24262065  1
  O  O415  1  0.88034085  0.74702880  0.74564227  1
  O  O416  1  0.38632910  0.49985564  0.49777920  1
  O  O417  1  0.38049512  0.48910354  0.99930600  1
  O  O418  1  0.38085466  0.99337793  0.49367450  1
  O  O419  1  0.38259883  0.99611585  0.99147328  1
  O  O420  1  0.88117561  0.49414211  0.49538886  1
  O  O421  1  0.87864130  0.49453893  0.99521437  1
  O  O422  1  0.87964659  0.99646998  0.49553979  1
  O  O423  1  0.87235784  0.99590265  0.99080736  1
  O  O424  1  0.12379278  -0.00451561  0.01122702  1
  O  O425  1  0.12044371  0.00947014  0.50203323  1
  O  O426  1  0.11653667  0.50128476  0.00637714  1
  O  O427  1  0.11951863  0.50568640  0.50494029  1
  O  O428  1  0.62079308  0.00489644  0.00539183  1
  O  O429  1  0.62087130  0.00429753  0.50521812  1
  O  O430  1  0.62093410  0.50381995  0.00584942  1
  O  O431  1  0.61699912  0.50635748  0.50188386  1
  O  O432  1  0.36787354  0.37289155  0.11491352  1
  O  O433  1  0.36736648  0.36447321  0.62058617  1
  O  O434  1  0.36988072  0.86341602  0.12772440  1
  O  O435  1  0.37184321  0.86876031  0.61978956  1
  O  O436  1  0.86811500  0.36989089  0.11896931  1
  O  O437  1  0.87097301  0.36959938  0.61791577  1
  O  O438  1  0.86964324  0.87136678  0.12059631  1
  O  O439  1  0.87018423  0.87130781  0.62160611  1
  O  O440  1  0.12595608  0.12702713  0.38740875  1
  O  O441  1  0.12199076  0.13865341  0.87275841  1
  O  O442  1  0.12992918  0.62976660  0.38050527  1
  O  O443  1  0.13226608  0.63229283  0.87582701  1
  O  O444  1  0.63081096  0.12908257  0.38018240  1
  O  O445  1  0.62519231  0.13200440  0.88094024  1
  O  O446  1  0.62793189  0.63291235  0.38331191  1
  O  O447  1  0.62802591  0.63158051  0.88330986  1
