# generated using pymatgen
data_V3Zn3O8
_symmetry_space_group_name_H-M   'P 1'
_cell_length_a   17.08598186
_cell_length_b   17.08464940
_cell_length_c   17.08414976
_cell_angle_alpha   90.00634068
_cell_angle_beta   90.00630891
_cell_angle_gamma   90.01390787
_symmetry_Int_Tables_number   1
_chemical_formula_structural   V3Zn3O8
_chemical_formula_sum   'V96 Zn96 O256'
_cell_volume   4986.99994343
_cell_formula_units_Z   32
loop_
 _symmetry_equiv_pos_site_id
 _symmetry_equiv_pos_as_xyz
  1  'x, y, z'
loop_
 _atom_site_type_symbol
 _atom_site_label
 _atom_site_symmetry_multiplicity
 _atom_site_fract_x
 _atom_site_fract_y
 _atom_site_fract_z
 _atom_site_occupancy
  V  V0  1  0.62467684  -0.00135160  0.12565777  1
  V  V1  1  0.25122013  0.12455666  0.87562236  1
  V  V2  1  0.87314520  0.12506743  0.25016132  1
  V  V3  1  0.24896069  0.62618385  0.37678544  1
  V  V4  1  0.49920510  0.12602642  0.62413932  1
  V  V5  1  -0.00107202  0.37572099  0.37573397  1
  V  V6  1  0.37586025  -0.00011332  0.87504488  1
  V  V7  1  0.62392535  0.25114364  0.37410616  1
  V  V8  1  0.50118648  0.75013803  0.75035719  1
  V  V9  1  0.12379748  0.24954000  0.37561483  1
  V  V10  1  0.25124372  0.37383853  0.62532589  1
  V  V11  1  0.37545092  0.37509348  0.50011275  1
  V  V12  1  0.24910452  0.00046857  0.25042318  1
  V  V13  1  0.24804956  0.12491513  0.37521852  1
  V  V14  1  0.50124663  0.87405048  0.87498556  1
  V  V15  1  0.62644532  0.37447468  0.75002829  1
  V  V16  1  0.50084493  0.49941089  0.00006183  1
  V  V17  1  0.50102182  0.62528627  0.62435934  1
  V  V18  1  0.25107547  0.25072022  0.00148762  1
  V  V19  1  0.25137476  0.49961015  0.75073670  1
  V  V20  1  0.12572928  0.74945041  0.87452138  1
  V  V21  1  0.62631988  0.24884741  0.87424964  1
  V  V22  1  0.87538739  0.37582592  -0.00033145  1
  V  V23  1  -0.00004444  0.87447245  0.87498036  1
  V  V24  1  0.74944488  0.37488200  0.12474979  1
  V  V25  1  0.75063967  0.87357321  0.12509606  1
  V  V26  1  0.87473627  0.12473540  0.74944056  1
  V  V27  1  0.87670107  0.62478984  0.74898859  1
  V  V28  1  -0.00083078  0.00051814  0.50049821  1
  V  V29  1  0.87520762  0.37632624  0.49961754  1
  V  V30  1  0.50052961  -0.00061046  0.00112257  1
  V  V31  1  0.75004769  0.62698609  0.37527379  1
  V  V32  1  0.87572408  0.50063751  0.37562410  1
  V  V33  1  -0.00072787  0.87547581  0.37495247  1
  V  V34  1  0.24976307  0.87553826  0.62591399  1
  V  V35  1  0.50024133  0.12363165  0.12482186  1
  V  V36  1  0.37352809  0.12469145  0.25075938  1
  V  V37  1  0.49912859  0.87484733  0.37379091  1
  V  V38  1  0.74972148  0.24872595  -0.00099884  1
  V  V39  1  0.87526753  0.62481894  0.25075941  1
  V  V40  1  0.37439948  0.25037973  0.62576036  1
  V  V41  1  0.62711219  0.62521866  0.00034235  1
  V  V42  1  0.87528065  0.75028248  0.62403285  1
  V  V43  1  0.12473747  0.49989322  0.12548136  1
  V  V44  1  0.12428408  0.50113847  0.62294205  1
  V  V45  1  0.12524245  0.74992897  0.37562966  1
  V  V46  1  0.62523463  0.50099706  0.62511583  1
  V  V47  1  0.49940559  0.24971638  0.24927507  1
  V  V48  1  0.12438877  0.87508636  0.24919290  1
  V  V49  1  0.87507655  0.75047054  0.12398972  1
  V  V50  1  0.87412384  0.24986831  0.12469465  1
  V  V51  1  0.37587240  0.37506517  0.00050162  1
  V  V52  1  0.62531766  0.49964128  0.12398242  1
  V  V53  1  0.74895249  0.25133603  0.49935886  1
  V  V54  1  0.12607450  0.37396119  0.75109696  1
  V  V55  1  0.00058077  0.75040530  0.24945504  1
  V  V56  1  0.12498546  0.37507671  0.25023541  1
  V  V57  1  0.74888504  0.00035084  0.24966178  1
  V  V58  1  0.37504253  0.75088278  0.62550132  1
  V  V59  1  0.24956330  0.49924537  0.25051466  1
  V  V60  1  0.24933579  0.87491444  0.12463787  1
  V  V61  1  0.87500107  -0.00104995  0.87471377  1
  V  V62  1  0.50136359  0.25085740  0.75062564  1
  V  V63  1  0.12710252  0.87609778  0.74895303  1
  V  V64  1  0.37682068  0.49912996  0.87609923  1
  V  V65  1  0.62509721  0.62671198  0.49902081  1
  V  V66  1  0.62442571  0.37573993  0.24876302  1
  V  V67  1  0.12599372  0.24966783  0.87569775  1
  V  V68  1  0.75068842  0.12381240  0.87495389  1
  V  V69  1  0.37510956  0.12504150  0.75105192  1
  V  V70  1  0.74852356  0.12540039  0.37359398  1
  V  V71  1  0.62803366  0.74970977  0.87448847  1
  V  V72  1  0.87478840  0.24954472  0.62537195  1
  V  V73  1  0.12533596  0.62385025  0.00065915  1
  V  V74  1  0.37491730  0.25037809  0.12446576  1
  V  V75  1  0.12501313  0.12507517  0.00073691  1
  V  V76  1  0.37573487  0.74913535  0.12551823  1
  V  V77  1  0.37542795  0.87390682  0.00018932  1
  V  V78  1  0.12409407  0.00053608  0.12423231  1
  V  V79  1  0.37642970  0.62449426  0.74999007  1
  V  V80  1  0.75052803  0.37504864  0.62447503  1
  V  V81  1  -0.00065952  0.12523895  0.62476020  1
  V  V82  1  0.12313877  0.12507736  0.50033646  1
  V  V83  1  0.75233825  0.50057446  0.74965528  1
  V  V84  1  0.62293803  0.12685963  0.49974884  1
  V  V85  1  -0.00135743  0.25028294  0.25034732  1
  V  V86  1  0.87292780  0.87527470  0.50018765  1
  V  V87  1  0.25104067  0.74942971  -0.00021939  1
  V  V88  1  -0.00027512  0.37547528  0.87614893  1
  V  V89  1  0.00001266  0.12483231  0.12496559  1
  V  V90  1  0.00067007  0.62519098  0.12463417  1
  V  V91  1  0.37699210  0.62523706  0.24948076  1
  V  V92  1  0.49844961  0.37598329  0.37545694  1
  V  V93  1  0.62485348  -0.00059655  0.62498936  1
  V  V94  1  0.25108729  0.62421904  0.87576983  1
  V  V95  1  0.37285424  0.87721822  0.49953587  1
  Zn  Zn96  1  0.12565350  0.00155191  0.62601537  1
  Zn  Zn97  1  0.00058063  0.24845501  0.75001542  1
  Zn  Zn98  1  0.37529204  0.50016149  0.37634998  1
  Zn  Zn99  1  0.25098816  0.00122213  0.74998307  1
  Zn  Zn100  1  0.49802409  0.50134067  0.49845945  1
  Zn  Zn101  1  0.25003625  0.37497266  0.12656886  1
  Zn  Zn102  1  0.87565803  0.50213929  0.87641614  1
  Zn  Zn103  1  0.75346745  0.62431661  0.87514936  1
  Zn  Zn104  1  0.37384253  0.00143467  0.37546688  1
  Zn  Zn105  1  0.00110254  0.74757982  0.74845750  1
  Zn  Zn106  1  0.62618923  0.87412632  0.74606372  1
  Zn  Zn107  1  0.00055476  -0.00003763  0.00042113  1
  Zn  Zn108  1  0.00219419  0.62540830  0.62211426  1
  Zn  Zn109  1  0.24870812  0.24872226  0.50100721  1
  Zn  Zn110  1  0.24729285  0.75007486  0.50157835  1
  Zn  Zn111  1  0.49778729  0.00273448  0.49835749  1
  Zn  Zn112  1  0.87567443  0.87298908  -0.00139977  1
  Zn  Zn113  1  0.50192660  0.37470171  0.87480147  1
  Zn  Zn114  1  0.74806098  0.75339919  0.49944632  1
  Zn  Zn115  1  0.62306645  0.75053527  0.37312387  1
  Zn  Zn116  1  0.87283147  0.00012418  0.37496159  1
  Zn  Zn117  1  0.75313398  0.74944778  -0.00096783  1
  Zn  Zn118  1  0.50196109  0.62664360  0.12686767  1
  Zn  Zn119  1  0.00110531  0.50200234  0.49991387  1
  Zn  Zn120  1  0.74687359  -0.00246693  0.75062954  1
  Zn  Zn121  1  0.74951691  0.50028249  0.24938564  1
  Zn  Zn122  1  0.74880148  0.87650443  0.62551044  1
  Zn  Zn123  1  0.62553130  0.12379800  -0.00078859  1
  Zn  Zn124  1  0.62382779  0.87197443  0.25232481  1
  Zn  Zn125  1  0.50194609  0.75065842  0.24908447  1
  Zn  Zn126  1  -0.00131631  0.50117938  0.00064926  1
  Zn  Zn127  1  0.12399849  0.62668802  0.50137922  1
  Zn  Zn128  1  0.18726869  0.18849183  0.18809728  1
  Zn  Zn129  1  0.18719324  0.18761405  0.68832846  1
  Zn  Zn130  1  0.18848742  0.68731025  0.18852063  1
  Zn  Zn131  1  0.19013031  0.68801647  0.68847008  1
  Zn  Zn132  1  0.68579905  0.18708142  0.18608065  1
  Zn  Zn133  1  0.68891029  0.18534024  0.68849257  1
  Zn  Zn134  1  0.68643373  0.68949006  0.19000376  1
  Zn  Zn135  1  0.69109165  0.68822699  0.68665507  1
  Zn  Zn136  1  0.31163629  0.31136155  0.31386859  1
  Zn  Zn137  1  0.31351285  0.31273544  0.81390849  1
  Zn  Zn138  1  0.31279064  0.81144770  0.31253335  1
  Zn  Zn139  1  0.31312286  0.81209282  0.81246409  1
  Zn  Zn140  1  0.81109709  0.31353414  0.31185145  1
  Zn  Zn141  1  0.81335548  0.31159393  0.81221458  1
  Zn  Zn142  1  0.81279295  0.81179345  0.31161598  1
  Zn  Zn143  1  0.80971330  0.81380186  0.80706141  1
  Zn  Zn144  1  0.18972907  0.43643215  0.43798913  1
  Zn  Zn145  1  0.18866679  0.43743031  0.93967839  1
  Zn  Zn146  1  0.18610261  0.93884799  0.43820120  1
  Zn  Zn147  1  0.18850910  0.93892946  0.93746250  1
  Zn  Zn148  1  0.68716477  0.44042287  0.43696001  1
  Zn  Zn149  1  0.69019572  0.43763108  0.93495164  1
  Zn  Zn150  1  0.68535156  0.93992840  0.43848457  1
  Zn  Zn151  1  0.68789236  0.93642439  0.94014938  1
  Zn  Zn152  1  0.31277930  0.06226021  0.06265495  1
  Zn  Zn153  1  0.30904079  0.06150540  0.56382050  1
  Zn  Zn154  1  0.31212191  0.56085927  0.06421354  1
  Zn  Zn155  1  0.31242922  0.56105605  0.56193470  1
  Zn  Zn156  1  0.81278316  0.06081800  0.06058419  1
  Zn  Zn157  1  0.81040724  0.06301133  0.56150588  1
  Zn  Zn158  1  0.81245524  0.56112542  0.06266826  1
  Zn  Zn159  1  0.81254651  0.56284804  0.56194613  1
  Zn  Zn160  1  0.43785611  0.43889535  0.18650477  1
  Zn  Zn161  1  0.43990132  0.43753165  0.68674207  1
  Zn  Zn162  1  0.43602449  0.93792885  0.18871996  1
  Zn  Zn163  1  0.43984623  0.93831029  0.68804372  1
  Zn  Zn164  1  0.93726236  0.43900961  0.18815727  1
  Zn  Zn165  1  0.93961098  0.43671267  0.68835469  1
  Zn  Zn166  1  0.93583860  0.93893068  0.18802570  1
  Zn  Zn167  1  0.93908965  0.93833631  0.68768152  1
  Zn  Zn168  1  0.06069749  0.06150510  0.31318018  1
  Zn  Zn169  1  0.06166345  0.06204970  0.81190839  1
  Zn  Zn170  1  0.06253186  0.56190787  0.31235585  1
  Zn  Zn171  1  0.06138686  0.56101767  0.81083535  1
  Zn  Zn172  1  0.56124907  0.05937893  0.31219047  1
  Zn  Zn173  1  0.56228676  0.06306133  0.81157593  1
  Zn  Zn174  1  0.56178768  0.55967979  0.31314804  1
  Zn  Zn175  1  0.56364554  0.56216679  0.81311095  1
  Zn  Zn176  1  0.43550216  0.18955211  0.43734887  1
  Zn  Zn177  1  0.43955079  0.18758121  0.93785887  1
  Zn  Zn178  1  0.43626824  0.69067457  0.43793484  1
  Zn  Zn179  1  0.44046963  0.68627205  0.93844119  1
  Zn  Zn180  1  0.93551945  0.18777027  0.43743607  1
  Zn  Zn181  1  0.93824746  0.18772266  0.93787860  1
  Zn  Zn182  1  0.94044513  0.68666185  0.44007176  1
  Zn  Zn183  1  0.93878379  0.68874603  0.93711649  1
  Zn  Zn184  1  0.06268313  0.31277742  0.06322755  1
  Zn  Zn185  1  0.06139493  0.31241081  0.56237383  1
  Zn  Zn186  1  0.06248553  0.81155953  0.06067872  1
  Zn  Zn187  1  0.06101728  0.81183462  0.56168099  1
  Zn  Zn188  1  0.56256224  0.31198120  0.06060359  1
  Zn  Zn189  1  0.56115916  0.31367432  0.56244229  1
  Zn  Zn190  1  0.56292168  0.81145658  0.06370875  1
  Zn  Zn191  1  0.55940587  0.81347460  0.55894275  1
  O  O192  1  0.11950381  0.12050201  0.12089417  1
  O  O193  1  0.11799400  0.12508420  0.61919083  1
  O  O194  1  0.12020909  0.62103045  0.12082908  1
  O  O195  1  0.12767628  0.61333039  0.62609361  1
  O  O196  1  0.61779781  0.11751883  0.12333536  1
  O  O197  1  0.61899103  0.12039581  0.61950764  1
  O  O198  1  0.62529313  0.61988990  0.11570149  1
  O  O199  1  0.62189699  0.62143094  0.61754423  1
  O  O200  1  0.38053651  0.37428292  0.38189740  1
  O  O201  1  0.37705534  0.38197745  0.88181392  1
  O  O202  1  0.37864138  0.87632107  0.38386141  1
  O  O203  1  0.38114454  0.87878729  0.88093824  1
  O  O204  1  0.87867229  0.38004353  0.37960949  1
  O  O205  1  0.88507130  0.37383399  0.87994985  1
  O  O206  1  0.88047464  0.87451348  0.38439344  1
  O  O207  1  0.88366792  0.88080238  0.87265145  1
  O  O208  1  0.24888299  0.00684034  0.36716877  1
  O  O209  1  0.25850906  0.00672962  0.87508470  1
  O  O210  1  0.25031534  0.51007747  0.36861390  1
  O  O211  1  0.25620042  0.50523656  0.87035408  1
  O  O212  1  0.74974159  0.00794831  0.36826889  1
  O  O213  1  0.75932623  0.00400512  0.87536900  1
  O  O214  1  0.75590284  0.51121651  0.37358777  1
  O  O215  1  0.75448036  0.50250082  0.86482518  1
  O  O216  1  0.24244765  0.49851074  0.13278308  1
  O  O217  1  0.24388697  0.49403133  0.63191204  1
  O  O218  1  0.24395453  0.99428080  0.12996967  1
  O  O219  1  0.24592353  0.99115012  0.63021907  1
  O  O220  1  0.74310449  0.49212193  0.12627884  1
  O  O221  1  0.74475511  0.49405489  0.62978297  1
  O  O222  1  0.74578924  0.99275457  0.12936656  1
  O  O223  1  0.73642830  1.00183500  0.62559142  1
  O  O224  1  0.00412895  0.36894760  0.25577701  1
  O  O225  1  0.00666197  0.37250480  0.76049226  1
  O  O226  1  0.00489790  0.87025190  0.25446043  1
  O  O227  1  0.00927919  0.87357422  0.75938510  1
  O  O228  1  0.50463690  0.36871341  0.25435841  1
  O  O229  1  0.50835024  0.36867166  0.75065981  1
  O  O230  1  0.49801026  0.87451060  0.26142790  1
  O  O231  1  0.50255402  0.86735508  0.75698970  1
  O  O232  1  0.49388206  0.13016226  0.24492586  1
  O  O233  1  0.49401412  0.13200045  0.74436938  1
  O  O234  1  0.48696880  0.62530581  0.25058218  1
  O  O235  1  0.49509766  0.63015036  0.74459786  1
  O  O236  1  0.99384090  0.13087049  0.24489467  1
  O  O237  1  0.99342776  0.12643812  0.74358880  1
  O  O238  1  0.99526124  0.63142623  0.24485933  1
  O  O239  1  0.99011709  0.62619401  0.74584331  1
  O  O240  1  0.37071693  0.25466339  0.00492885  1
  O  O241  1  0.37258103  0.25725912  0.50830441  1
  O  O242  1  0.36990482  0.75416232  0.00424236  1
  O  O243  1  0.37207497  0.76126601  0.50701392  1
  O  O244  1  0.86948670  0.25499585  0.00592235  1
  O  O245  1  0.86769236  0.25614559  0.50497113  1
  O  O246  1  0.87279739  0.75199097  0.00782572  1
  O  O247  1  0.87597146  0.75959036  0.50716792  1
  O  O248  1  0.12474393  0.24340622  0.49285958  1
  O  O249  1  0.13130932  0.24452531  0.99598219  1
  O  O250  1  0.12774345  0.74862394  0.49160141  1
  O  O251  1  0.13212218  0.74387074  0.99446818  1
  O  O252  1  0.62991497  0.24667821  0.49413536  1
  O  O253  1  0.63215192  0.24782645  0.99303356  1
  O  O254  1  0.62656400  0.73727553  0.49878263  1
  O  O255  1  0.62482591  0.74093788  0.99165825  1
  O  O256  1  0.49499374  0.24389815  0.12990068  1
  O  O257  1  0.49477805  0.24540771  0.63126990  1
  O  O258  1  0.49068634  0.74698817  0.12680170  1
  O  O259  1  0.49478758  0.74474540  0.63069007  1
  O  O260  1  0.99393488  0.24490638  0.13097779  1
  O  O261  1  0.99214584  0.24378699  0.62618658  1
  O  O262  1  0.99603191  0.74523537  0.13035339  1
  O  O263  1  0.98776413  0.74900164  0.62736191  1
  O  O264  1  0.00352556  0.25557806  0.36901482  1
  O  O265  1  0.00694732  0.25966755  0.87477416  1
  O  O266  1  0.00512638  0.75578454  0.36825521  1
  O  O267  1  0.00707916  0.75926914  0.87254765  1
  O  O268  1  0.50528707  0.25533324  0.36823434  1
  O  O269  1  0.50757079  0.25060513  0.86816944  1
  O  O270  1  0.49870695  0.76278526  0.37358990  1
  O  O271  1  0.50818822  0.75404136  0.87046895  1
  O  O272  1  0.24171153  0.12586272  0.49376026  1
  O  O273  1  0.24527672  0.13084181  0.99530046  1
  O  O274  1  0.24994332  0.62674333  0.48746828  1
  O  O275  1  0.24567027  0.62995757  0.99478325  1
  O  O276  1  0.74374059  0.13267868  0.49348637  1
  O  O277  1  0.74980677  0.13149130  0.99333155  1
  O  O278  1  0.74194231  0.62586958  0.49178578  1
  O  O279  1  0.73835330  0.62591602  0.99793629  1
  O  O280  1  0.25707093  0.36807639  0.00246963  1
  O  O281  1  0.25737027  0.37186816  0.50712486  1
  O  O282  1  0.25547532  0.86913837  0.00465275  1
  O  O283  1  0.25738481  0.87419583  0.50564152  1
  O  O284  1  0.75558136  0.36846560  0.00498946  1
  O  O285  1  0.75429604  0.37045485  0.50464894  1
  O  O286  1  0.75250337  0.87310551  0.01373339  1
  O  O287  1  0.76163113  0.87476175  0.50049707  1
  O  O288  1  0.12978922  0.49434987  0.24502347  1
  O  O289  1  0.13243009  0.49416216  0.74330882  1
  O  O290  1  0.12906899  0.99446288  0.24366752  1
  O  O291  1  0.12712386  0.98698778  0.75059460  1
  O  O292  1  0.62585434  0.49330641  0.24225341  1
  O  O293  1  0.63171225  0.49553546  0.74430440  1
  O  O294  1  0.63171253  0.99697992  0.24299061  1
  O  O295  1  0.62342565  0.99891626  0.73759677  1
  O  O296  1  0.36582307  0.00748382  0.24991759  1
  O  O297  1  0.37585372  0.00692426  0.75779904  1
  O  O298  1  0.36862825  0.50964925  0.25053858  1
  O  O299  1  0.37095535  0.50509912  0.75510786  1
  O  O300  1  0.86730925  0.00791047  0.25172094  1
  O  O301  1  0.87464737  0.00508998  0.76077586  1
  O  O302  1  0.87303614  0.50742046  0.25694902  1
  O  O303  1  0.87047461  0.50946081  0.74745718  1
  O  O304  1  0.11923431  0.36975169  0.37005863  1
  O  O305  1  0.11912050  0.37009243  0.87191130  1
  O  O306  1  0.11921863  0.87031435  0.36827900  1
  O  O307  1  0.12014533  0.87035542  0.86858706  1
  O  O308  1  0.62004771  0.37008537  0.36956762  1
  O  O309  1  0.62589981  0.36730649  0.86710122  1
  O  O310  1  0.61308353  0.87354479  0.37739386  1
  O  O311  1  0.61920080  0.86398458  0.87714049  1
  O  O312  1  0.38020579  0.13031011  0.13065328  1
  O  O313  1  0.37903088  0.13040252  0.63057647  1
  O  O314  1  0.37391188  0.63012787  0.13469067  1
  O  O315  1  0.38000258  0.63017910  0.63036414  1
  O  O316  1  0.87962539  0.13046676  0.12985425  1
  O  O317  1  0.87880177  0.13011872  0.62901013  1
  O  O318  1  0.88025705  0.62993882  0.13072264  1
  O  O319  1  0.87567610  0.63296653  0.63141385  1
  O  O320  1  0.25686430  0.25059539  0.11920698  1
  O  O321  1  0.25688558  0.25659902  0.62545091  1
  O  O322  1  0.25458019  0.75573551  0.11902774  1
  O  O323  1  0.25799718  0.75705774  0.62458881  1
  O  O324  1  0.75495030  0.25481907  0.11938794  1
  O  O325  1  0.75451737  0.25535965  0.61863650  1
  O  O326  1  0.75622829  0.75906352  0.12603885  1
  O  O327  1  0.76305089  0.75268446  0.62064490  1
  O  O328  1  0.24105022  0.24243066  0.37570927  1
  O  O329  1  0.24573975  0.24431334  0.88175259  1
  O  O330  1  0.24357998  0.74088481  0.37407787  1
  O  O331  1  0.24629163  0.74364895  0.88072103  1
  O  O332  1  0.74301542  0.24591551  0.37960132  1
  O  O333  1  0.74620744  0.24381837  0.87967787  1
  O  O334  1  0.74992606  0.73719891  0.37737149  1
  O  O335  1  0.73886674  0.74887032  0.87649591  1
  O  O336  1  0.00722559  0.12481728  0.00720582  1
  O  O337  1  0.00279042  0.12013355  0.50471500  1
  O  O338  1  0.00789628  0.62472802  0.00636473  1
  O  O339  1  0.00597285  0.61930437  0.50398238  1
  O  O340  1  0.50031685  0.11708825  0.00726604  1
  O  O341  1  0.50512024  0.12666495  0.50597669  1
  O  O342  1  0.51156323  0.61859856  0.00128685  1
  O  O343  1  0.50832051  0.62516549  0.50520328  1
  O  O344  1  0.49330190  0.37579845  0.49387664  1
  O  O345  1  0.49394037  0.38124716  0.99753842  1
  O  O346  1  0.48781301  0.87692270  0.49223712  1
  O  O347  1  0.49395197  0.87948118  0.99540700  1
  O  O348  1  0.99251911  0.37606274  0.49281149  1
  O  O349  1  0.99517425  0.37498615  0.99144907  1
  O  O350  1  0.99171951  0.88038162  0.49474292  1
  O  O351  1  1.00079761  0.87679642  0.98645273  1
  O  O352  1  0.49640987  0.49100539  0.37757054  1
  O  O353  1  0.49427719  0.49860212  0.88129222  1
  O  O354  1  0.49505095  0.99020796  0.37776576  1
  O  O355  1  0.49552414  0.99436857  0.88102957  1
  O  O356  1  0.99391992  0.49272283  0.37517735  1
  O  O357  1  0.99958463  0.48695558  0.87719516  1
  O  O358  1  0.99618690  0.99310311  0.38111455  1
  O  O359  1  0.99264779  0.99116288  0.87557733  1
  O  O360  1  0.00613252  0.00645001  0.12383817  1
  O  O361  1  0.00165879  0.00718971  0.61836582  1
  O  O362  1  0.00680701  0.50771199  0.12476344  1
  O  O363  1  0.01407863  0.49871556  0.62487708  1
  O  O364  1  0.50426564  0.00359636  0.12057135  1
  O  O365  1  0.50789346  0.00793096  0.62264452  1
  O  O366  1  0.50761400  0.50274337  0.11766110  1
  O  O367  1  0.50801486  0.50807300  0.62417977  1
  O  O368  1  0.24281471  0.38076934  0.25030799  1
  O  O369  1  0.24598988  0.38060839  0.74597995  1
  O  O370  1  0.24406074  0.87971956  0.24412919  1
  O  O371  1  0.24208573  0.87538789  0.74608749  1
  O  O372  1  0.74241217  0.37570492  0.24283307  1
  O  O373  1  0.74631080  0.37956851  0.74310100  1
  O  O374  1  0.75074788  0.88081168  0.24038922  1
  O  O375  1  0.74345095  0.88013940  0.74351969  1
  O  O376  1  0.25357231  0.12003515  0.25497022  1
  O  O377  1  0.25697571  0.12447814  0.75800909  1
  O  O378  1  0.25726468  0.62044168  0.25763197  1
  O  O379  1  0.25753172  0.61949390  0.75660136  1
  O  O380  1  0.75383464  0.12108006  0.25405425  1
  O  O381  1  0.75749827  0.12186587  0.75721804  1
  O  O382  1  0.75624070  0.62383093  0.25949585  1
  O  O383  1  0.76096939  0.61913971  0.74947889  1
  O  O384  1  0.36733937  0.12499992  0.36859990  1
  O  O385  1  0.37087331  0.11994328  0.87097568  1
  O  O386  1  0.36568189  0.62617738  0.36678067  1
  O  O387  1  0.37075749  0.61953347  0.87027080  1
  O  O388  1  0.86627140  0.12540706  0.36817269  1
  O  O389  1  0.87189980  0.11753027  0.87038948  1
  O  O390  1  0.86844923  0.62124586  0.37141268  1
  O  O391  1  0.87503246  0.62532199  0.86277046  1
  O  O392  1  0.12559759  0.38051383  0.13277195  1
  O  O393  1  0.13093661  0.38073292  0.63099485  1
  O  O394  1  0.12995555  0.87962249  0.12937322  1
  O  O395  1  0.12930327  0.87381816  0.63503678  1
  O  O396  1  0.63001371  0.37905179  0.12913133  1
  O  O397  1  0.63136228  0.38018232  0.62978897  1
  O  O398  1  0.63447159  0.87974065  0.12653270  1
  O  O399  1  0.62390033  0.88673291  0.62091775  1
  O  O400  1  0.11773338  0.25489068  0.25534820  1
  O  O401  1  0.12454948  0.25650844  0.75839616  1
  O  O402  1  0.11958360  0.75628367  0.25419219  1
  O  O403  1  0.12508171  0.75959827  0.75622427  1
  O  O404  1  0.61855562  0.25544037  0.25451230  1
  O  O405  1  0.62126252  0.25498570  0.75400601  1
  O  O406  1  0.61953541  0.75355969  0.25518884  1
  O  O407  1  0.61959827  0.74802972  0.75906664  1
  O  O408  1  0.38015895  0.24446660  0.24424950  1
  O  O409  1  0.38105772  0.24510423  0.74576336  1
  O  O410  1  0.37308928  0.73976483  0.24349436  1
  O  O411  1  0.38120953  0.74368858  0.74615860  1
  O  O412  1  0.87900610  0.24508814  0.24408848  1
  O  O413  1  0.87601345  0.24300421  0.74262411  1
  O  O414  1  0.88195605  0.74437851  0.24424164  1
  O  O415  1  0.87541375  0.74188778  0.74077727  1
  O  O416  1  0.37736199  0.49051259  0.49842084  1
  O  O417  1  0.38027865  0.49556599  0.99578346  1
  O  O418  1  0.37476662  0.98839935  0.49963078  1
  O  O419  1  0.38034824  0.99313328  0.99543600  1
  O  O420  1  0.87587211  0.49295574  0.49386943  1
  O  O421  1  0.87783137  0.49185031  0.99746627  1
  O  O422  1  0.87965006  0.99087224  0.49941596  1
  O  O423  1  0.87877930  0.99725031  0.98663874  1
  O  O424  1  0.12497817  0.00724139  0.00665083  1
  O  O425  1  0.11620814  0.00657697  0.50155597  1
  O  O426  1  0.12509080  0.50710565  0.00706725  1
  O  O427  1  0.12687479  0.49968062  0.51291231  1
  O  O428  1  0.61767299  0.00077331  0.00713713  1
  O  O429  1  0.62168914  0.00954644  0.50848170  1
  O  O430  1  0.62167292  0.50669011  0.00296947  1
  O  O431  1  0.62426059  0.51121079  0.50640096  1
  O  O432  1  0.37389902  0.36790833  0.11898476  1
  O  O433  1  0.37071274  0.37015344  0.62101893  1
  O  O434  1  0.36820730  0.87010445  0.11935411  1
  O  O435  1  0.37119617  0.87091198  0.61893068  1
  O  O436  1  0.87026275  0.36900607  0.12050954  1
  O  O437  1  0.86967105  0.36993191  0.62000318  1
  O  O438  1  0.86718455  0.87009593  0.12417901  1
  O  O439  1  0.87629735  0.86850847  0.61629439  1
  O  O440  1  0.12763357  0.13055184  0.37968772  1
  O  O441  1  0.13029964  0.12966954  0.88035424  1
  O  O442  1  0.13516566  0.63076496  0.37223575  1
  O  O443  1  0.13128046  0.62913908  0.87899561  1
  O  O444  1  0.62837196  0.13187051  0.37903415  1
  O  O445  1  0.63246696  0.13037351  0.87572084  1
  O  O446  1  0.63257740  0.62339603  0.38295302  1
  O  O447  1  0.62563080  0.63386054  0.88269238  1
