# generated using pymatgen
data_V3Zn3O8
_symmetry_space_group_name_H-M   'P 1'
_cell_length_a   17.08752831
_cell_length_b   17.08652924
_cell_length_c   17.08744137
_cell_angle_alpha   90.00223625
_cell_angle_beta   89.99167409
_cell_angle_gamma   89.99713207
_symmetry_Int_Tables_number   1
_chemical_formula_structural   V3Zn3O8
_chemical_formula_sum   'V96 Zn96 O256'
_cell_volume   4988.96127931
_cell_formula_units_Z   32
loop_
 _symmetry_equiv_pos_site_id
 _symmetry_equiv_pos_as_xyz
  1  'x, y, z'
loop_
 _atom_site_type_symbol
 _atom_site_label
 _atom_site_symmetry_multiplicity
 _atom_site_fract_x
 _atom_site_fract_y
 _atom_site_fract_z
 _atom_site_occupancy
  V  V0  1  0.87493615  0.49873940  0.87657799  1
  V  V1  1  0.12450996  0.25177524  0.87583996  1
  V  V2  1  0.62560438  0.37480287  0.75026932  1
  V  V3  1  0.87544146  0.37443323  0.00056274  1
  V  V4  1  0.24994202  0.12593173  0.37656243  1
  V  V5  1  0.75001063  0.49809119  0.25043194  1
  V  V6  1  0.12548369  0.37625352  0.75148596  1
  V  V7  1  0.62580817  0.74955947  0.37369020  1
  V  V8  1  0.49947095  0.50070958  -0.00024197  1
  V  V9  1  0.37566261  0.37614303  0.50020661  1
  V  V10  1  0.37237695  0.75292441  0.12359607  1
  V  V11  1  0.25190558  0.37621033  0.62520866  1
  V  V12  1  0.87444232  0.74895815  0.12442395  1
  V  V13  1  0.24960930  0.12702767  0.87474022  1
  V  V14  1  0.62497018  0.49969972  0.12576555  1
  V  V15  1  0.12495975  -0.00006734  0.62492670  1
  V  V16  1  0.37399544  0.12605236  0.74935847  1
  V  V17  1  0.75011527  0.87398742  0.62444459  1
  V  V18  1  -0.00129668  0.74796870  0.24802314  1
  V  V19  1  0.87665776  0.49644720  0.37607175  1
  V  V20  1  0.75109854  0.24958788  0.50164221  1
  V  V21  1  0.25023029  0.62651864  0.37493760  1
  V  V22  1  0.74901844  0.62580792  0.87536630  1
  V  V23  1  0.37530898  0.75067944  0.62321547  1
  V  V24  1  0.50261558  0.87391739  0.37412661  1
  V  V25  1  0.37468220  0.25144498  0.62424184  1
  V  V26  1  0.12543600  -0.00003017  0.12557257  1
  V  V27  1  0.74892806  0.12347711  0.87384604  1
  V  V28  1  0.12467942  0.37509463  0.25128718  1
  V  V29  1  0.75112289  0.62252664  0.37493150  1
  V  V30  1  0.74902147  0.74965579  -0.00120188  1
  V  V31  1  0.87504067  0.12413838  0.25106485  1
  V  V32  1  0.49853239  0.87495598  0.87352605  1
  V  V33  1  0.00109672  0.25032710  0.25305989  1
  V  V34  1  0.24946597  -0.00184836  0.24895015  1
  V  V35  1  0.37581655  -0.00042989  0.37486612  1
  V  V36  1  0.24867477  0.00107056  0.74869290  1
  V  V37  1  -0.00121713  0.12488985  0.12630196  1
  V  V38  1  0.50086610  0.62498019  0.62492891  1
  V  V39  1  0.25016564  0.50027836  0.24992811  1
  V  V40  1  0.74827132  0.37419361  0.12573136  1
  V  V41  1  0.87587546  0.62422169  0.75068752  1
  V  V42  1  0.12317997  0.12639230  0.00076911  1
  V  V43  1  0.75078491  0.12375373  0.37503969  1
  V  V44  1  0.87519107  0.87303442  0.49978104  1
  V  V45  1  0.24902962  0.25186563  0.00144579  1
  V  V46  1  0.25056350  0.50157124  0.75037001  1
  V  V47  1  0.37591932  0.50165447  0.87522722  1
  V  V48  1  0.49931072  0.12533354  0.12409924  1
  V  V49  1  0.37476867  0.00086811  0.87481866  1
  V  V50  1  0.00051395  -0.00062698  0.49987077  1
  V  V51  1  0.62395518  0.24959549  0.87511839  1
  V  V52  1  0.87530746  0.87640850  -0.00154827  1
  V  V53  1  -0.00193287  0.00066956  -0.00034210  1
  V  V54  1  0.50082008  0.49932569  0.49879397  1
  V  V55  1  0.49895716  0.62577000  0.12493462  1
  V  V56  1  0.37541750  0.87443166  0.50018086  1
  V  V57  1  0.62548873  -0.00159652  0.62461303  1
  V  V58  1  0.49967117  0.25028396  0.75027098  1
  V  V59  1  0.12623065  0.50106761  0.62602044  1
  V  V60  1  0.12415128  0.50134975  0.12479734  1
  V  V61  1  0.37620264  0.50041763  0.37511610  1
  V  V62  1  0.62398569  -0.00139826  0.12515741  1
  V  V63  1  -0.00082657  0.24962042  0.74972435  1
  V  V64  1  0.12439523  0.74950518  0.37473099  1
  V  V65  1  0.50065881  -0.00009908  0.49933840  1
  V  V66  1  0.62353006  0.12485125  -0.00002390  1
  V  V67  1  0.75068112  -0.00078632  0.75049002  1
  V  V68  1  0.49956174  0.12466386  0.62455740  1
  V  V69  1  0.24986056  0.37511622  0.12536662  1
  V  V70  1  0.62448987  0.24912416  0.37455145  1
  V  V71  1  0.62697472  0.62331508  0.49977285  1
  V  V72  1  0.62525862  0.12428918  0.49962870  1
  V  V73  1  0.00048315  0.75068028  0.75152899  1
  V  V74  1  0.75119004  0.37278766  0.62461830  1
  V  V75  1  0.24949624  0.62745382  0.87513777  1
  V  V76  1  0.75055393  0.49950784  0.75031017  1
  V  V77  1  0.37616915  0.62633845  0.74903865  1
  V  V78  1  0.75191848  0.74849636  0.50025105  1
  V  V79  1  0.62596914  0.49960777  0.62474446  1
  V  V80  1  0.12481656  0.62663301  -0.00004817  1
  V  V81  1  0.62499518  0.62612482  -0.00050212  1
  V  V82  1  0.50016877  0.25045389  0.25062662  1
  V  V83  1  0.12595901  0.12492196  0.49978067  1
  V  V84  1  0.12581451  0.62561721  0.49980849  1
  V  V85  1  0.00013355  0.12563543  0.62545527  1
  V  V86  1  0.00094446  0.62405941  0.62670461  1
  V  V87  1  0.37588007  0.62591992  0.24960016  1
  V  V88  1  0.49957075  0.37634895  0.87559726  1
  V  V89  1  0.00070213  0.49855506  0.50050291  1
  V  V90  1  0.12449027  0.87561948  0.75043090  1
  V  V91  1  0.37446842  0.25047981  0.12508955  1
  V  V92  1  0.74899902  0.24936168  0.00044893  1
  V  V93  1  0.00035137  0.87350501  0.37480880  1
  V  V94  1  0.74787968  0.87474311  0.12407253  1
  V  V95  1  0.87493790  -0.00071004  0.37464704  1
  Zn  Zn96  1  0.50253381  0.75047855  0.74994885  1
  Zn  Zn97  1  0.37427114  0.37676824  0.00021744  1
  Zn  Zn98  1  0.12673385  0.75289472  0.87702433  1
  Zn  Zn99  1  0.25028658  0.87509695  0.62256853  1
  Zn  Zn100  1  0.49608647  -0.00034031  0.00002752  1
  Zn  Zn101  1  0.00368715  0.37387485  0.37874657  1
  Zn  Zn102  1  0.24986331  0.25161707  0.49941918  1
  Zn  Zn103  1  0.87268959  0.24908252  0.12685301  1
  Zn  Zn104  1  0.62532469  0.87103154  0.75024398  1
  Zn  Zn105  1  0.87911878  0.37128603  0.50312484  1
  Zn  Zn106  1  0.62503826  0.37487681  0.25163802  1
  Zn  Zn107  1  0.87446226  0.74831807  0.62497307  1
  Zn  Zn108  1  -0.00023122  0.49992018  0.00071123  1
  Zn  Zn109  1  0.00049000  0.37580109  0.87679852  1
  Zn  Zn110  1  0.24890997  0.75250392  0.49827389  1
  Zn  Zn111  1  0.87543712  0.00085060  0.87446057  1
  Zn  Zn112  1  0.50084385  0.37485018  0.37474272  1
  Zn  Zn113  1  0.62220295  0.75058277  0.87303376  1
  Zn  Zn114  1  0.37156482  0.87774952  -0.00069776  1
  Zn  Zn115  1  0.50210055  0.75156655  0.24863998  1
  Zn  Zn116  1  0.75051236  -0.00184052  0.25009005  1
  Zn  Zn117  1  0.12543544  0.87316370  0.24790133  1
  Zn  Zn118  1  -0.00213441  0.62320506  0.12264608  1
  Zn  Zn119  1  -0.00169949  0.87795137  0.87486845  1
  Zn  Zn120  1  0.24898157  0.87632906  0.12068252  1
  Zn  Zn121  1  0.87463750  0.12532534  0.74997232  1
  Zn  Zn122  1  0.87513415  0.62180265  0.24648422  1
  Zn  Zn123  1  0.12698652  0.25291540  0.37817097  1
  Zn  Zn124  1  0.62594394  0.87311136  0.24963992  1
  Zn  Zn125  1  0.24806323  0.75587127  -0.00243334  1
  Zn  Zn126  1  0.37450392  0.12470184  0.24956425  1
  Zn  Zn127  1  0.87467659  0.24875482  0.62483243  1
  Zn  Zn128  1  0.18661083  0.18686057  0.18899030  1
  Zn  Zn129  1  0.18654213  0.18917839  0.68625056  1
  Zn  Zn130  1  0.18778605  0.68758634  0.18700898  1
  Zn  Zn131  1  0.18922354  0.68945531  0.68703902  1
  Zn  Zn132  1  0.68721638  0.18586148  0.18774854  1
  Zn  Zn133  1  0.68654157  0.18607544  0.68714330  1
  Zn  Zn134  1  0.68828036  0.68613502  0.18844215  1
  Zn  Zn135  1  0.68724999  0.68877256  0.68891807  1
  Zn  Zn136  1  0.31404033  0.31333111  0.31230179  1
  Zn  Zn137  1  0.31288778  0.31430868  0.81321516  1
  Zn  Zn138  1  0.31444826  0.81237972  0.31151985  1
  Zn  Zn139  1  0.31266058  0.81312590  0.81079834  1
  Zn  Zn140  1  0.81275151  0.31206833  0.31375756  1
  Zn  Zn141  1  0.81276913  0.31136546  0.81363506  1
  Zn  Zn142  1  0.81191905  0.81229375  0.31057187  1
  Zn  Zn143  1  0.81358982  0.81297450  0.81376740  1
  Zn  Zn144  1  0.18866615  0.43854747  0.43733002  1
  Zn  Zn145  1  0.18792788  0.43961858  0.93826391  1
  Zn  Zn146  1  0.18758543  0.93568612  0.43648619  1
  Zn  Zn147  1  0.18737725  0.93931071  0.93750513  1
  Zn  Zn148  1  0.68818264  0.43329245  0.43724046  1
  Zn  Zn149  1  0.68742398  0.43812879  0.93843716  1
  Zn  Zn150  1  0.68849495  0.93602266  0.43747263  1
  Zn  Zn151  1  0.68451296  0.93628828  0.93758414  1
  Zn  Zn152  1  0.31277261  0.06471992  0.06199978  1
  Zn  Zn153  1  0.31275041  0.06152432  0.56222733  1
  Zn  Zn154  1  0.31138672  0.56485216  0.06184805  1
  Zn  Zn155  1  0.31279245  0.56400262  0.56099122  1
  Zn  Zn156  1  0.81158297  0.06239520  0.06323789  1
  Zn  Zn157  1  0.81488021  0.06303488  0.56392241  1
  Zn  Zn158  1  0.81147218  0.56233426  0.06323648  1
  Zn  Zn159  1  0.81472213  0.56039310  0.56304564  1
  Zn  Zn160  1  0.43715051  0.43661765  0.18706479  1
  Zn  Zn161  1  0.43843192  0.43883964  0.68766865  1
  Zn  Zn162  1  0.43810067  0.93607858  0.18964341  1
  Zn  Zn163  1  0.43753702  0.93694865  0.68896850  1
  Zn  Zn164  1  0.93796114  0.43619738  0.18690686  1
  Zn  Zn165  1  0.93724758  0.43560213  0.68755332  1
  Zn  Zn166  1  0.93662528  0.93586903  0.18632469  1
  Zn  Zn167  1  0.93586883  0.93726254  0.68557593  1
  Zn  Zn168  1  0.06384882  0.06220506  0.31319640  1
  Zn  Zn169  1  0.06214827  0.06340250  0.81425099  1
  Zn  Zn170  1  0.06204061  0.56314270  0.31259813  1
  Zn  Zn171  1  0.06124181  0.56184033  0.81659846  1
  Zn  Zn172  1  0.56315783  0.06295786  0.31031208  1
  Zn  Zn173  1  0.56266406  0.06007163  0.81146957  1
  Zn  Zn174  1  0.56249069  0.56328697  0.31109151  1
  Zn  Zn175  1  0.56282271  0.56366694  0.81219500  1
  Zn  Zn176  1  0.43605069  0.18764746  0.43748831  1
  Zn  Zn177  1  0.43612894  0.18836082  0.93894540  1
  Zn  Zn178  1  0.43954445  0.68773524  0.43754881  1
  Zn  Zn179  1  0.43615067  0.69008771  0.93877348  1
  Zn  Zn180  1  0.93701906  0.18684689  0.43820317  1
  Zn  Zn181  1  0.93484799  0.18670839  0.93559074  1
  Zn  Zn182  1  0.93777468  0.68455331  0.43668845  1
  Zn  Zn183  1  0.93798848  0.68842572  0.93694889  1
  Zn  Zn184  1  0.06095499  0.31270388  0.06637789  1
  Zn  Zn185  1  0.06570396  0.31246765  0.56338566  1
  Zn  Zn186  1  0.06269500  0.81458142  0.06327756  1
  Zn  Zn187  1  0.06174360  0.81145835  0.56387740  1
  Zn  Zn188  1  0.56202017  0.31358485  0.06264485  1
  Zn  Zn189  1  0.56307397  0.31250478  0.56175889  1
  Zn  Zn190  1  0.55857259  0.81314285  0.05848593  1
  Zn  Zn191  1  0.56362974  0.81179354  0.56068674  1
  O  O192  1  0.11863409  0.12047020  0.11971643  1
  O  O193  1  0.12034840  0.11900195  0.61963046  1
  O  O194  1  0.12533923  0.61954925  0.11552247  1
  O  O195  1  0.12101701  0.61983791  0.62075043  1
  O  O196  1  0.61986720  0.11744486  0.11941957  1
  O  O197  1  0.61839090  0.11889032  0.61897863  1
  O  O198  1  0.61967086  0.61919407  0.11908366  1
  O  O199  1  0.62129463  0.61838447  0.61916480  1
  O  O200  1  0.37628980  0.38282326  0.38173761  1
  O  O201  1  0.38190895  0.38331973  0.87552212  1
  O  O202  1  0.38180912  0.88016721  0.38054747  1
  O  O203  1  0.38160675  0.88336069  0.87213283  1
  O  O204  1  0.87703104  0.38684374  0.37832609  1
  O  O205  1  0.87299291  0.37974890  0.88573398  1
  O  O206  1  0.88048846  0.87936411  0.38064883  1
  O  O207  1  0.87711033  0.87889294  0.88358508  1
  O  O208  1  0.25469966  0.00712789  0.36821459  1
  O  O209  1  0.25363041  0.00874029  0.86755567  1
  O  O210  1  0.25649985  0.50682519  0.36912956  1
  O  O211  1  0.25629935  0.50654380  0.86894853  1
  O  O212  1  0.75683462  0.00589383  0.37452735  1
  O  O213  1  0.74699576  0.00507781  0.86521124  1
  O  O214  1  0.75738868  0.50257476  0.37138442  1
  O  O215  1  0.75464831  0.50535883  0.86931758  1
  O  O216  1  0.24518505  0.49526154  0.13130037  1
  O  O217  1  0.24592737  0.49654780  0.63116584  1
  O  O218  1  0.24499703  1.00431031  0.13521495  1
  O  O219  1  0.24309642  0.99980315  0.63169142  1
  O  O220  1  0.74411826  0.49460802  0.13075316  1
  O  O221  1  0.74442858  0.49436112  0.63097349  1
  O  O222  1  0.73936472  0.99419785  0.12479486  1
  O  O223  1  0.74519371  0.99515855  0.63095358  1
  O  O224  1  0.00564479  0.36503306  0.25107365  1
  O  O225  1  0.00731660  0.36570041  0.75088760  1
  O  O226  1  -0.00060475  0.86360609  0.25606399  1
  O  O227  1  0.00711535  0.86778506  0.74837999  1
  O  O228  1  0.50143082  0.36202753  0.25055356  1
  O  O229  1  0.50613606  0.37031372  0.75508605  1
  O  O230  1  0.50428398  0.87280065  0.25982574  1
  O  O231  1  0.50201779  0.87466749  0.76013735  1
  O  O232  1  0.49853109  0.13541788  0.24384971  1
  O  O233  1  0.49441381  0.13068085  0.74430964  1
  O  O234  1  0.49303857  0.62583160  0.24219796  1
  O  O235  1  0.49332065  0.62447019  0.74207672  1
  O  O236  1  0.99597864  0.13185448  0.24676174  1
  O  O237  1  1.00232463  0.13479974  0.74479917  1
  O  O238  1  0.99797715  0.63733242  0.24857357  1
  O  O239  1  0.99673342  0.63188239  0.74645923  1
  O  O240  1  0.36681466  0.25281325  0.00637034  1
  O  O241  1  0.37384410  0.25712146  0.50717259  1
  O  O242  1  0.37055578  0.74959367  0.01277833  1
  O  O243  1  0.37515630  0.75502562  0.50800904  1
  O  O244  1  0.86745372  0.25858676  0.00087392  1
  O  O245  1  0.86713307  0.25103856  0.50255666  1
  O  O246  1  0.86958475  0.75564920  0.00472552  1
  O  O247  1  0.87014920  0.75460057  0.50085311  1
  O  O248  1  0.12973865  0.24139019  0.49822686  1
  O  O249  1  0.12882311  0.24602766  0.99617153  1
  O  O250  1  0.12465972  0.74317431  0.49364603  1
  O  O251  1  0.12625513  0.74015788  0.99848272  1
  O  O252  1  0.62937481  0.24253695  0.49501853  1
  O  O253  1  0.62927514  0.24520996  0.99398550  1
  O  O254  1  0.63225549  0.74230926  0.49434142  1
  O  O255  1  0.63113223  0.74274898  0.99840469  1
  O  O256  1  0.49588573  0.24565325  0.13196536  1
  O  O257  1  0.49520962  0.24458695  0.63092318  1
  O  O258  1  0.49029832  0.74355252  0.12486665  1
  O  O259  1  0.49078075  0.74353115  0.62315228  1
  O  O260  1  0.99838527  0.24340836  0.13751123  1
  O  O261  1  1.00301489  0.24452203  0.63563864  1
  O  O262  1  0.99379563  0.75020251  0.13412760  1
  O  O263  1  0.99919471  0.74303254  0.63602991  1
  O  O264  1  0.00282044  0.24990583  0.36400997  1
  O  O265  1  0.00641551  0.25060809  0.86591521  1
  O  O266  1  0.00387937  0.75330364  0.36730569  1
  O  O267  1  0.00328359  0.75173162  0.86106439  1
  O  O268  1  0.50447409  0.24863489  0.36598533  1
  O  O269  1  0.50437699  0.25565265  0.86939028  1
  O  O270  1  0.50812287  0.75574722  0.37538243  1
  O  O271  1  0.49763517  0.76101610  0.87242394  1
  O  O272  1  0.24535868  0.12358353  0.49073846  1
  O  O273  1  0.24250845  0.13252047  0.99451960  1
  O  O274  1  0.24329733  0.62637172  0.49247955  1
  O  O275  1  0.23945597  0.62617262  0.99351555  1
  O  O276  1  0.74434725  0.12902968  0.49548953  1
  O  O277  1  0.74310900  0.13013089  0.99460790  1
  O  O278  1  0.74584435  0.62802862  0.49521923  1
  O  O279  1  0.74451152  0.62986512  0.99462237  1
  O  O280  1  0.25015009  0.36925225  0.00747169  1
  O  O281  1  0.25753816  0.37617543  0.50777640  1
  O  O282  1  0.25323638  0.87359090  0.00223199  1
  O  O283  1  0.25881603  0.87317718  0.50222622  1
  O  O284  1  0.75618335  0.36954109  0.00477478  1
  O  O285  1  0.75016752  0.36667589  0.50795466  1
  O  O286  1  0.75458338  0.86930595  0.00475884  1
  O  O287  1  0.75627627  0.86834532  0.50454253  1
  O  O288  1  0.13107997  0.49614148  0.24526406  1
  O  O289  1  0.13070179  0.49639562  0.74569205  1
  O  O290  1  0.13340142  0.99952249  0.24483622  1
  O  O291  1  0.12806410  0.99382679  0.74467493  1
  O  O292  1  0.63122903  0.49795426  0.24354490  1
  O  O293  1  0.63080322  0.49432488  0.74474297  1
  O  O294  1  0.62717295  0.99958701  0.23622164  1
  O  O295  1  0.63539943  0.99882209  0.74237431  1
  O  O296  1  0.36637216  0.00281950  0.25625098  1
  O  O297  1  0.36827624  0.00774943  0.75363999  1
  O  O298  1  0.36965773  0.50529163  0.25477046  1
  O  O299  1  0.37018585  0.50654743  0.75467169  1
  O  O300  1  0.87538876  0.00614340  0.25719026  1
  O  O301  1  0.86191032  0.00135311  0.75006744  1
  O  O302  1  0.86990504  0.49945486  0.25919580  1
  O  O303  1  0.86969871  0.50412169  0.75618162  1
  O  O304  1  0.12512606  0.37357133  0.36671511  1
  O  O305  1  0.12443103  0.36989712  0.86931992  1
  O  O306  1  0.11727183  0.86808754  0.37285517  1
  O  O307  1  0.12186942  0.87591269  0.86086029  1
  O  O308  1  0.62135285  0.36502780  0.37253529  1
  O  O309  1  0.61987979  0.36973025  0.86963729  1
  O  O310  1  0.62022395  0.86782996  0.37572879  1
  O  O311  1  0.61208164  0.87404640  0.87366409  1
  O  O312  1  0.38130384  0.13307486  0.12671098  1
  O  O313  1  0.38044851  0.13061381  0.62981372  1
  O  O314  1  0.37909418  0.63204480  0.13029910  1
  O  O315  1  0.38088654  0.63162239  0.62813455  1
  O  O316  1  0.88097840  0.12654730  0.13240165  1
  O  O317  1  0.88476320  0.12737874  0.62868576  1
  O  O318  1  0.87718518  0.63280798  0.12573441  1
  O  O319  1  0.88290863  0.62400157  0.63311082  1
  O  O320  1  0.25389406  0.25473294  0.12133609  1
  O  O321  1  0.25749188  0.25798826  0.62507112  1
  O  O322  1  0.26102188  0.75247315  0.12634331  1
  O  O323  1  0.26323697  0.75061036  0.62158587  1
  O  O324  1  0.74975132  0.25507661  0.11807058  1
  O  O325  1  0.74932634  0.25475216  0.61997679  1
  O  O326  1  0.75436359  0.75441681  0.11833470  1
  O  O327  1  0.75202765  0.75507452  0.61770297  1
  O  O328  1  0.25071646  0.23707452  0.37521800  1
  O  O329  1  0.24455282  0.24628855  0.88020293  1
  O  O330  1  0.24320918  0.74385168  0.37426868  1
  O  O331  1  0.24751834  0.74174502  0.87465487  1
  O  O332  1  0.74453751  0.24312246  0.38093312  1
  O  O333  1  0.74197994  0.24426272  0.87932739  1
  O  O334  1  0.74671964  0.74294400  0.38091286  1
  O  O335  1  0.74924534  0.74266911  0.88164006  1
  O  O336  1  0.00409566  0.12234980  0.00644236  1
  O  O337  1  0.00616239  0.11843096  0.50451137  1
  O  O338  1  0.01206875  0.62365427  -0.00001519  1
  O  O339  1  0.00627032  0.61888870  0.50664563  1
  O  O340  1  0.50656676  0.12533500  0.00618251  1
  O  O341  1  0.50504536  0.11957670  0.50527110  1
  O  O342  1  0.50503817  0.61943382  0.00504967  1
  O  O343  1  0.50727236  0.61825946  0.50530530  1
  O  O344  1  0.49371856  0.38207527  0.49981012  1
  O  O345  1  0.49879302  0.38242525  0.99290242  1
  O  O346  1  0.49548568  0.88167480  0.49407091  1
  O  O347  1  0.49373653  0.87877060  0.98726661  1
  O  O348  1  1.00054475  0.38263363  0.49910106  1
  O  O349  1  0.98703200  0.37376188  1.00017965  1
  O  O350  1  0.99510764  0.87962575  0.49508555  1
  O  O351  1  0.99368049  0.88224797  0.99896532  1
  O  O352  1  0.49391780  0.49942957  0.38097400  1
  O  O353  1  0.49548471  0.49575668  0.87981847  1
  O  O354  1  0.49603019  0.99617839  0.38026092  1
  O  O355  1  0.49262164  0.99342295  0.87425035  1
  O  O356  1  0.99197724  0.49973587  0.38073830  1
  O  O357  1  0.99056914  0.49564590  0.87845798  1
  O  O358  1  0.99537272  0.99396893  0.38068319  1
  O  O359  1  0.99694229  1.00043851  0.88383777  1
  O  O360  1  0.00533719  0.00602039  0.12040793  1
  O  O361  1  0.00546155  0.00517936  0.61928076  1
  O  O362  1  0.00838364  0.50236584  0.12310840  1
  O  O363  1  0.00731198  0.50498830  0.62201050  1
  O  O364  1  0.50737930  0.00618880  0.12437040  1
  O  O365  1  0.50454115  0.00559234  0.61927103  1
  O  O366  1  0.50436743  0.50521335  0.11960068  1
  O  O367  1  0.50658140  0.50516523  0.61934226  1
  O  O368  1  0.24495359  0.38068033  0.24477878  1
  O  O369  1  0.24550479  0.38215253  0.74516774  1
  O  O370  1  0.24902032  0.88935963  0.25082080  1
  O  O371  1  0.24010506  0.88186302  0.74692260  1
  O  O372  1  0.74870102  0.37967191  0.24340001  1
  O  O373  1  0.74404840  0.37966671  0.74604112  1
  O  O374  1  0.74726033  0.87742127  0.24035036  1
  O  O375  1  0.74972091  0.88346289  0.74381372  1
  O  O376  1  0.24993065  0.11569296  0.25957190  1
  O  O377  1  0.25416411  0.12171597  0.75501580  1
  O  O378  1  0.25562398  0.61887452  0.25569533  1
  O  O379  1  0.25587013  0.61984508  0.75408919  1
  O  O380  1  0.75707450  0.12373326  0.25733591  1
  O  O381  1  0.74883668  0.11550094  0.75456804  1
  O  O382  1  0.75248170  0.61618782  0.25743827  1
  O  O383  1  0.75608415  0.61840410  0.75477352  1
  O  O384  1  0.36560378  0.11775171  0.37536066  1
  O  O385  1  0.36906476  0.12266306  0.86794488  1
  O  O386  1  0.37061724  0.62018545  0.37007858  1
  O  O387  1  0.37034783  0.62048666  0.86879780  1
  O  O388  1  0.87019727  0.11800366  0.37094709  1
  O  O389  1  0.86410292  0.12212063  0.87136578  1
  O  O390  1  0.86950293  0.61170478  0.37460477  1
  O  O391  1  0.86899677  0.61898798  0.87029779  1
  O  O392  1  0.13081542  0.38096468  0.13146893  1
  O  O393  1  0.13258783  0.38225080  0.63177738  1
  O  O394  1  0.12814379  0.88469592  0.12832456  1
  O  O395  1  0.12531885  0.88090482  0.63435703  1
  O  O396  1  0.63118686  0.38237219  0.12535549  1
  O  O397  1  0.63003603  0.38014721  0.63131856  1
  O  O398  1  0.62822828  0.88385827  0.12258845  1
  O  O399  1  0.63211111  0.88171342  0.62388468  1
  O  O400  1  0.11621148  0.25517771  0.25167929  1
  O  O401  1  0.11837052  0.25584052  0.75565388  1
  O  O402  1  0.11541038  0.75033021  0.25529030  1
  O  O403  1  0.11755266  0.75878231  0.74866439  1
  O  O404  1  0.61550525  0.24902119  0.25536320  1
  O  O405  1  0.61864611  0.25486958  0.75530772  1
  O  O406  1  0.62348410  0.75055770  0.25851886  1
  O  O407  1  0.62071078  0.75257713  0.75401153  1
  O  O408  1  0.38390537  0.24799480  0.24435710  1
  O  O409  1  0.38055131  0.24568992  0.74464606  1
  O  O410  1  0.37750316  0.74348800  0.24146525  1
  O  O411  1  0.37691620  0.74425451  0.73821584  1
  O  O412  1  0.88476300  0.24369130  0.25067583  1
  O  O413  1  0.88774042  0.24931556  0.74971942  1
  O  O414  1  0.88333127  0.74772988  0.24425767  1
  O  O415  1  0.88442600  0.74372790  0.74858228  1
  O  O416  1  0.38130384  0.49619319  0.49508049  1
  O  O417  1  0.38135514  0.50055617  0.99321721  1
  O  O418  1  0.38191977  0.99484551  0.49526323  1
  O  O419  1  0.37570123  1.00161030  0.98954385  1
  O  O420  1  0.88201450  0.49791768  0.49204239  1
  O  O421  1  0.87300567  0.48950355  0.99550821  1
  O  O422  1  0.88126356  0.99384735  0.49432339  1
  O  O423  1  0.88065628  0.99393638  1.00080006  1
  O  O424  1  0.11898845  0.00832843  0.00519859  1
  O  O425  1  0.11924523  0.00394360  0.50513649  1
  O  O426  1  0.12439254  0.50904577  0.00620739  1
  O  O427  1  0.12085726  0.50617971  0.50643606  1
  O  O428  1  0.62245702  0.00655280  0.01036428  1
  O  O429  1  0.61999000  0.00556005  0.50471408  1
  O  O430  1  0.61972134  0.50614205  0.00581400  1
  O  O431  1  0.62124475  0.50414998  0.50520037  1
  O  O432  1  0.36730688  0.36874967  0.12356716  1
  O  O433  1  0.37102324  0.37138760  0.62077847  1
  O  O434  1  0.37412516  0.86491696  0.12450116  1
  O  O435  1  0.37611489  0.86636206  0.61935913  1
  O  O436  1  0.86741001  0.37325762  0.11560762  1
  O  O437  1  0.86597440  0.37177728  0.62395572  1
  O  O438  1  0.86816193  0.86899427  0.11827643  1
  O  O439  1  0.86846302  0.87280211  0.61660119  1
  O  O440  1  0.13558813  0.12389771  0.38144302  1
  O  O441  1  0.13096720  0.13214852  0.88107963  1
  O  O442  1  0.13038283  0.62979751  0.38033183  1
  O  O443  1  0.13152929  0.62510501  0.88369560  1
  O  O444  1  0.63061295  0.12885329  0.38071858  1
  O  O445  1  0.62836189  0.13061881  0.87976547  1
  O  O446  1  0.63159260  0.62832673  0.38123759  1
  O  O447  1  0.63145906  0.62446858  0.88218744  1
