# generated using pymatgen
data_V3Zn3O8
_symmetry_space_group_name_H-M   'P 1'
_cell_length_a   17.08648660
_cell_length_b   17.08681501
_cell_length_c   17.08790783
_cell_angle_alpha   90.00256452
_cell_angle_beta   89.98283353
_cell_angle_gamma   90.00048807
_symmetry_Int_Tables_number   1
_chemical_formula_structural   V3Zn3O8
_chemical_formula_sum   'V96 Zn96 O256'
_cell_volume   4988.87658658
_cell_formula_units_Z   32
loop_
 _symmetry_equiv_pos_site_id
 _symmetry_equiv_pos_as_xyz
  1  'x, y, z'
loop_
 _atom_site_type_symbol
 _atom_site_label
 _atom_site_symmetry_multiplicity
 _atom_site_fract_x
 _atom_site_fract_y
 _atom_site_fract_z
 _atom_site_occupancy
  V  V0  1  0.12429150  0.62428869  0.50055944  1
  V  V1  1  0.75077109  0.49996700  0.75120214  1
  V  V2  1  0.74916321  0.62661218  0.37667155  1
  V  V3  1  -0.00149310  0.62701131  0.12585570  1
  V  V4  1  0.25094021  0.37365633  0.62526253  1
  V  V5  1  0.00161102  0.12545782  0.62361110  1
  V  V6  1  0.37560293  0.24946409  0.12495563  1
  V  V7  1  0.87456079  0.62495017  0.75066960  1
  V  V8  1  0.62587752  0.37367974  0.75033250  1
  V  V9  1  0.49945108  0.49923264  0.00050070  1
  V  V10  1  0.12499936  0.37393981  0.74944993  1
  V  V11  1  0.87480503  0.75050360  0.12682736  1
  V  V12  1  0.12616087  0.25074947  0.37252851  1
  V  V13  1  0.87544983  0.37487610  0.49957111  1
  V  V14  1  -0.00025577  0.12568448  0.12426462  1
  V  V15  1  -0.00047196  0.74974856  0.75039806  1
  V  V16  1  0.12521908  0.12578013  -0.00084731  1
  V  V17  1  -0.00022880  0.87568036  0.87352494  1
  V  V18  1  -0.00125625  0.50015412  -0.00045719  1
  V  V19  1  0.25006903  0.49990639  0.75204038  1
  V  V20  1  0.74949475  0.87564435  0.12457650  1
  V  V21  1  0.50010582  0.74908428  0.75120148  1
  V  V22  1  0.12230354  0.75317194  0.37480876  1
  V  V23  1  0.50030567  0.12579177  0.12542459  1
  V  V24  1  0.74959341  0.87536077  0.62458833  1
  V  V25  1  0.37289217  0.75091838  0.12510298  1
  V  V26  1  0.62514411  0.62539978  0.50144670  1
  V  V27  1  0.37540427  0.49889099  0.37576610  1
  V  V28  1  0.62423935  0.62508755  0.00098450  1
  V  V29  1  0.12388443  0.75093719  0.87446473  1
  V  V30  1  0.24948366  0.62409683  0.87515005  1
  V  V31  1  0.37448729  0.62556906  0.25049214  1
  V  V32  1  0.24947325  0.62421929  0.37536779  1
  V  V33  1  0.62607486  0.25018677  0.37513967  1
  V  V34  1  0.24912352  0.37611603  0.12463832  1
  V  V35  1  0.25126845  0.74848336  0.50170267  1
  V  V36  1  0.00175715  0.37552474  0.37405247  1
  V  V37  1  0.75067172  0.12451065  0.87353884  1
  V  V38  1  0.74860793  0.75027677  0.00099317  1
  V  V39  1  0.37582912  -0.00214586  0.37461485  1
  V  V40  1  0.24918952  0.75095637  0.00026421  1
  V  V41  1  0.87533404  0.12556671  0.24873143  1
  V  V42  1  0.75049126  0.25111035  -0.00025805  1
  V  V43  1  0.50152121  -0.00012991  0.50036389  1
  V  V44  1  0.50045589  0.24982276  0.24961299  1
  V  V45  1  0.00072919  0.24961203  0.74856350  1
  V  V46  1  0.12382473  0.62640320  0.00067115  1
  V  V47  1  0.50006103  0.37439911  0.87649874  1
  V  V48  1  0.25023994  0.12453055  0.37375412  1
  V  V49  1  -0.00016471  0.00038658  -0.00181274  1
  V  V50  1  0.12551621  0.24922513  0.87470827  1
  V  V51  1  0.62561202  0.24918897  0.87488829  1
  V  V52  1  0.12512457  0.00002442  0.12476443  1
  V  V53  1  0.62570722  0.37621842  0.25003358  1
  V  V54  1  0.50002605  0.75102386  0.25135870  1
  V  V55  1  0.87587337  0.87674431  0.49896357  1
  V  V56  1  0.12687113  0.12513864  0.49865382  1
  V  V57  1  0.24903523  -0.00067088  0.24929906  1
  V  V58  1  0.62488699  0.87472443  0.75057832  1
  V  V59  1  0.37714914  0.12385024  0.74866509  1
  V  V60  1  0.75045735  0.37380948  0.62501768  1
  V  V61  1  -0.00099840  0.62493362  0.62656711  1
  V  V62  1  0.50106473  0.62361039  0.62706098  1
  V  V63  1  0.62391123  0.75004412  0.87549975  1
  V  V64  1  0.49909764  -0.00055821  -0.00020885  1
  V  V65  1  0.24908127  0.50027735  0.24918741  1
  V  V66  1  0.87658816  0.24897778  0.62396372  1
  V  V67  1  0.75046832  0.24931596  0.49853775  1
  V  V68  1  0.37561568  0.24995667  0.62334533  1
  V  V69  1  0.50025659  0.24890675  0.74983321  1
  V  V70  1  0.12533084  0.49865260  0.62531934  1
  V  V71  1  0.75002394  0.62467063  0.87493494  1
  V  V72  1  0.87519534  0.00041952  0.87409342  1
  V  V73  1  0.62538338  0.12510841  -0.00037680  1
  V  V74  1  0.74947244  0.50049474  0.25090661  1
  V  V75  1  0.74929177  0.00007197  0.75046451  1
  V  V76  1  0.37548431  -0.00186617  0.87525458  1
  V  V77  1  0.12580409  -0.00112811  0.62343519  1
  V  V78  1  0.37406073  0.74793520  0.62595841  1
  V  V79  1  0.87503522  0.50088259  0.37535093  1
  V  V80  1  0.24939538  0.24979016  -0.00036960  1
  V  V81  1  0.49913197  0.62555105  0.12566190  1
  V  V82  1  0.24839231  0.87545589  0.12483146  1
  V  V83  1  0.62484389  0.00069016  0.12482750  1
  V  V84  1  -0.00065028  0.37606342  0.87566721  1
  V  V85  1  0.62469418  0.49922278  0.62624051  1
  V  V86  1  0.25042614  -0.00138252  0.74853801  1
  V  V87  1  0.62354535  0.87463666  0.25095996  1
  V  V88  1  0.75052931  0.00176551  0.24966283  1
  V  V89  1  0.87532852  0.25316950  0.12338704  1
  V  V90  1  0.62524781  0.50025411  0.12647998  1
  V  V91  1  0.49913465  0.37567072  0.37566677  1
  V  V92  1  0.37550360  0.37481271  -0.00044083  1
  V  V93  1  0.12449880  0.50128575  0.12547134  1
  V  V94  1  0.00034467  0.50006487  0.50034920  1
  V  V95  1  0.75156060  0.12622370  0.37393526  1
  Zn  Zn96  1  0.50338163  0.12440055  0.62360846  1
  Zn  Zn97  1  0.25018388  0.87277071  0.62363064  1
  Zn  Zn98  1  0.75005780  0.75207220  0.50061046  1
  Zn  Zn99  1  -0.00306081  0.87752363  0.37278998  1
  Zn  Zn100  1  0.87825740  0.00090828  0.37399323  1
  Zn  Zn101  1  0.62297239  0.75187422  0.37702601  1
  Zn  Zn102  1  0.87300098  0.37793793  -0.00130472  1
  Zn  Zn103  1  0.12467453  0.87371799  0.74799154  1
  Zn  Zn104  1  -0.00154881  0.75167904  0.25168903  1
  Zn  Zn105  1  0.25358221  0.25137587  0.49745923  1
  Zn  Zn106  1  0.49804335  0.49787312  0.50190705  1
  Zn  Zn107  1  0.87497260  0.75003423  0.62467314  1
  Zn  Zn108  1  0.37531374  0.87473309  0.00009967  1
  Zn  Zn109  1  0.12394968  0.37570619  0.24877842  1
  Zn  Zn110  1  0.87533399  0.12460484  0.74801478  1
  Zn  Zn111  1  0.49981570  0.87325722  0.87654316  1
  Zn  Zn112  1  0.37566258  0.12487171  0.24938131  1
  Zn  Zn113  1  0.87422128  0.49883680  0.87697707  1
  Zn  Zn114  1  0.62299950  0.00203100  0.62478029  1
  Zn  Zn115  1  0.50177833  0.87259596  0.37673288  1
  Zn  Zn116  1  0.87547218  0.62618138  0.25239671  1
  Zn  Zn117  1  0.00042521  0.25200495  0.24817317  1
  Zn  Zn118  1  0.37598266  0.37587842  0.49994779  1
  Zn  Zn119  1  0.24979669  0.12517107  0.87513010  1
  Zn  Zn120  1  0.62620127  0.12403681  0.50094028  1
  Zn  Zn121  1  0.87402616  0.87614602  -0.00059012  1
  Zn  Zn122  1  0.37459354  0.50036828  0.87519821  1
  Zn  Zn123  1  0.37656877  0.87245930  0.50000663  1
  Zn  Zn124  1  0.37594602  0.62232905  0.75345057  1
  Zn  Zn125  1  0.00086902  -0.00027721  0.49621630  1
  Zn  Zn126  1  0.12046651  0.87586625  0.25034267  1
  Zn  Zn127  1  0.75091629  0.37751336  0.12373508  1
  Zn  Zn128  1  0.18877063  0.18591861  0.18806546  1
  Zn  Zn129  1  0.18982633  0.18530342  0.68775067  1
  Zn  Zn130  1  0.18636337  0.68810591  0.18897499  1
  Zn  Zn131  1  0.18682713  0.68502778  0.68954485  1
  Zn  Zn132  1  0.68857839  0.18880085  0.18747729  1
  Zn  Zn133  1  0.68704035  0.18490444  0.68522281  1
  Zn  Zn134  1  0.68702978  0.68818994  0.18948816  1
  Zn  Zn135  1  0.68802264  0.68933240  0.68834309  1
  Zn  Zn136  1  0.31297630  0.31357411  0.31015857  1
  Zn  Zn137  1  0.31291660  0.31254340  0.81240037  1
  Zn  Zn138  1  0.30991058  0.81391820  0.31195958  1
  Zn  Zn139  1  0.31214792  0.81243179  0.81133738  1
  Zn  Zn140  1  0.81334461  0.31375726  0.31074950  1
  Zn  Zn141  1  0.81489277  0.31183240  0.81232276  1
  Zn  Zn142  1  0.80948201  0.81374122  0.31301099  1
  Zn  Zn143  1  0.81341608  0.81254046  0.81237627  1
  Zn  Zn144  1  0.18990164  0.43554159  0.43885295  1
  Zn  Zn145  1  0.18572042  0.43757171  0.93814892  1
  Zn  Zn146  1  0.19183223  0.93461171  0.44001596  1
  Zn  Zn147  1  0.18702231  0.93640473  0.93699275  1
  Zn  Zn148  1  0.68657577  0.43824140  0.43791632  1
  Zn  Zn149  1  0.68748145  0.43724903  0.93830323  1
  Zn  Zn150  1  0.68834392  0.93920938  0.43534881  1
  Zn  Zn151  1  0.68713174  0.93674788  0.93709336  1
  Zn  Zn152  1  0.31210816  0.06354035  0.06206521  1
  Zn  Zn153  1  0.31392839  0.06446289  0.56004786  1
  Zn  Zn154  1  0.31216194  0.56316701  0.06137982  1
  Zn  Zn155  1  0.31288570  0.56153079  0.56308780  1
  Zn  Zn156  1  0.81348062  0.06385177  0.06135293  1
  Zn  Zn157  1  0.81305440  0.06154289  0.56164342  1
  Zn  Zn158  1  0.81312282  0.56352551  0.06301430  1
  Zn  Zn159  1  0.81263909  0.56143684  0.56352025  1
  Zn  Zn160  1  0.43733284  0.43702976  0.18873227  1
  Zn  Zn161  1  0.43701512  0.43690963  0.68990519  1
  Zn  Zn162  1  0.43667050  0.93658747  0.18791760  1
  Zn  Zn163  1  0.43887084  0.93374939  0.68638304  1
  Zn  Zn164  1  0.93782469  0.43901094  0.18938192  1
  Zn  Zn165  1  0.93688013  0.43762029  0.68883756  1
  Zn  Zn166  1  0.93867181  0.93611323  0.18854596  1
  Zn  Zn167  1  0.93732055  0.93800968  0.68720444  1
  Zn  Zn168  1  0.06022262  0.06202980  0.31122805  1
  Zn  Zn169  1  0.06250379  0.06361494  0.81097093  1
  Zn  Zn170  1  0.06121791  0.56561730  0.31082172  1
  Zn  Zn171  1  0.06252441  0.56231990  0.81340720  1
  Zn  Zn172  1  0.56314702  0.06327721  0.31340950  1
  Zn  Zn173  1  0.56239153  0.06145216  0.81184737  1
  Zn  Zn174  1  0.56131647  0.56259138  0.31350884  1
  Zn  Zn175  1  0.56278871  0.56179361  0.81363224  1
  Zn  Zn176  1  0.43894284  0.18501529  0.43695761  1
  Zn  Zn177  1  0.43680735  0.18555272  0.93698544  1
  Zn  Zn178  1  0.43896209  0.68515825  0.43837803  1
  Zn  Zn179  1  0.43542879  0.68684876  0.93769017  1
  Zn  Zn180  1  0.93995734  0.18677684  0.43653831  1
  Zn  Zn181  1  0.93747657  0.18760101  0.93649635  1
  Zn  Zn182  1  0.93587641  0.69047541  0.44152078  1
  Zn  Zn183  1  0.93580162  0.68795049  0.93818354  1
  Zn  Zn184  1  0.06202797  0.31452912  0.06075220  1
  Zn  Zn185  1  0.06415684  0.31143646  0.55960287  1
  Zn  Zn186  1  0.06102768  0.81502454  0.06107195  1
  Zn  Zn187  1  0.06101574  0.81270170  0.56220018  1
  Zn  Zn188  1  0.56357603  0.31306429  0.06333853  1
  Zn  Zn189  1  0.56193876  0.31232148  0.56074930  1
  Zn  Zn190  1  0.56055240  0.81390110  0.06348455  1
  Zn  Zn191  1  0.56120717  0.81342360  0.56323608  1
  O  O192  1  0.11970330  0.12039190  0.11848947  1
  O  O193  1  0.12247581  0.11789923  0.61922333  1
  O  O194  1  0.11914492  0.62164327  0.11948209  1
  O  O195  1  0.11909212  0.61771390  0.62001857  1
  O  O196  1  0.62045434  0.12051294  0.11916696  1
  O  O197  1  0.62168830  0.12059395  0.61951295  1
  O  O198  1  0.61868941  0.62031919  0.12050491  1
  O  O199  1  0.62249087  0.61972006  0.61915932  1
  O  O200  1  0.38116574  0.38096448  0.37443654  1
  O  O201  1  0.38248816  0.37483600  0.88227243  1
  O  O202  1  0.37547777  0.88738716  0.37541938  1
  O  O203  1  0.37607170  0.88716531  0.87582115  1
  O  O204  1  0.88076696  0.38061567  0.38085303  1
  O  O205  1  0.88386813  0.37715025  0.87680371  1
  O  O206  1  0.87190085  0.87602276  0.38665090  1
  O  O207  1  0.88112313  0.88200573  0.87698610  1
  O  O208  1  0.25697391  0.00428682  0.37033677  1
  O  O209  1  0.25752070  0.00091248  0.86616992  1
  O  O210  1  0.25421355  0.50525737  0.36931729  1
  O  O211  1  0.24863539  0.50573799  0.87012495  1
  O  O212  1  0.75255777  0.00846677  0.36635516  1
  O  O213  1  0.75496548  0.00500593  0.87073032  1
  O  O214  1  0.75489129  0.50808852  0.37191563  1
  O  O215  1  0.74908766  0.50691266  0.86868968  1
  O  O216  1  0.24444250  0.49620245  0.12903984  1
  O  O217  1  0.24387209  0.49443986  0.63130071  1
  O  O218  1  0.24487536  0.99572402  0.12873775  1
  O  O219  1  0.24382674  1.00056075  0.63220843  1
  O  O220  1  0.74273075  0.50154958  0.13205660  1
  O  O221  1  0.74475866  0.49305295  0.63126405  1
  O  O222  1  0.74378390  0.99643327  0.12867151  1
  O  O223  1  0.74898292  0.98982110  0.63138204  1
  O  O224  1  0.00361114  0.37317545  0.25845037  1
  O  O225  1  0.00662791  0.36947763  0.75417466  1
  O  O226  1  0.00316179  0.86916377  0.25413404  1
  O  O227  1  0.00120435  0.86824569  0.75590894  1
  O  O228  1  0.50626184  0.36922816  0.25520515  1
  O  O229  1  0.50683859  0.36877233  0.75664743  1
  O  O230  1  0.50652097  0.86877276  0.24982466  1
  O  O231  1  0.50727689  0.86667482  0.75203469  1
  O  O232  1  0.50012385  0.13219926  0.24276349  1
  O  O233  1  0.49432139  0.13160885  0.74854354  1
  O  O234  1  0.49405097  0.63014816  0.24439874  1
  O  O235  1  0.50052323  0.63078523  0.74444566  1
  O  O236  1  0.99327589  0.12819896  0.24080516  1
  O  O237  1  0.99995985  0.13271294  0.74173711  1
  O  O238  1  0.99554596  0.63049472  0.24194001  1
  O  O239  1  0.99475644  0.62922557  0.74564146  1
  O  O240  1  0.37011558  0.25491312  0.00512428  1
  O  O241  1  0.37573990  0.25050858  0.51206151  1
  O  O242  1  0.36731715  0.75073273  0.00736497  1
  O  O243  1  0.37013377  0.74573347  0.50993116  1
  O  O244  1  0.86958730  0.24987921  0.00916559  1
  O  O245  1  0.87076255  0.25641542  0.50421692  1
  O  O246  1  0.86700373  0.75108486  0.01026153  1
  O  O247  1  0.87017861  0.76097492  0.50504688  1
  O  O248  1  0.12820023  0.24468440  0.48818929  1
  O  O249  1  0.13014745  0.24536013  0.99453970  1
  O  O250  1  0.13032562  0.74320994  0.49465074  1
  O  O251  1  0.12952019  0.74524562  0.99442973  1
  O  O252  1  0.63304226  0.25030196  0.49239141  1
  O  O253  1  0.62976013  0.24439016  0.99455385  1
  O  O254  1  0.62697217  0.73666529  0.50059451  1
  O  O255  1  0.62872655  0.74403700  0.99657089  1
  O  O256  1  0.49562202  0.24529165  0.12953051  1
  O  O257  1  0.49095389  0.25095789  0.63172753  1
  O  O258  1  0.49310068  0.74401194  0.13021185  1
  O  O259  1  0.49309463  0.74334008  0.63075288  1
  O  O260  1  0.99134291  0.24468529  0.12344471  1
  O  O261  1  0.99652114  0.24594562  0.62874561  1
  O  O262  1  0.98947327  0.74591957  0.12254780  1
  O  O263  1  0.99995815  0.74195087  0.63218305  1
  O  O264  1  0.01054976  0.25629728  0.37398856  1
  O  O265  1  0.00630667  0.25497430  0.86891829  1
  O  O266  1  0.01151635  0.74996332  0.37688868  1
  O  O267  1  0.00477931  0.75496153  0.87071049  1
  O  O268  1  0.50564424  0.25475438  0.36901622  1
  O  O269  1  0.50618426  0.25433206  0.87036410  1
  O  O270  1  0.50145334  0.75076404  0.36706510  1
  O  O271  1  0.50609721  0.74964364  0.86992053  1
  O  O272  1  0.24419568  0.12838603  0.49160566  1
  O  O273  1  0.24294316  0.13239479  0.99873585  1
  O  O274  1  0.24307735  0.62819613  0.49487485  1
  O  O275  1  0.24260254  0.63111731  0.99583219  1
  O  O276  1  0.75139527  0.13245921  0.49206145  1
  O  O277  1  0.74370798  0.13061354  0.99364739  1
  O  O278  1  0.74198542  0.62420240  0.49386094  1
  O  O279  1  0.74279275  0.63046516  0.99529382  1
  O  O280  1  0.25509731  0.36963404  0.00530048  1
  O  O281  1  0.25429449  0.37149567  0.50969160  1
  O  O282  1  0.25119224  0.86831097  0.00631203  1
  O  O283  1  0.25591335  0.86394128  0.50459619  1
  O  O284  1  0.75166787  0.36706820  0.00288343  1
  O  O285  1  0.75608089  0.37021125  0.50521834  1
  O  O286  1  0.74970637  0.86821223  0.00725855  1
  O  O287  1  0.75566112  0.87595598  0.50902740  1
  O  O288  1  0.13179088  0.50131388  0.24320181  1
  O  O289  1  0.12924899  0.49327266  0.74416428  1
  O  O290  1  0.13172753  1.00015676  0.24187713  1
  O  O291  1  0.13457299  1.00184610  0.74085675  1
  O  O292  1  0.62925038  0.49571747  0.24559191  1
  O  O293  1  0.63118986  0.49328109  0.74561983  1
  O  O294  1  0.63006274  0.99574146  0.24318557  1
  O  O295  1  0.63138968  0.99214991  0.75010278  1
  O  O296  1  0.36931535  0.00161401  0.25853349  1
  O  O297  1  0.36948515  0.00290555  0.75532629  1
  O  O298  1  0.36879112  0.50633419  0.25449498  1
  O  O299  1  0.36610462  0.50116269  0.75392149  1
  O  O300  1  0.86726181  0.00795373  0.24744467  1
  O  O301  1  0.86783688  0.00228157  0.75643399  1
  O  O302  1  0.86797511  0.50307143  0.25798855  1
  O  O303  1  0.86782645  0.50630307  0.75180690  1
  O  O304  1  0.12098169  0.36668316  0.37480642  1
  O  O305  1  0.11960739  0.36852493  0.86904978  1
  O  O306  1  0.12579076  0.86229082  0.37751837  1
  O  O307  1  0.11815368  0.86880904  0.87209797  1
  O  O308  1  0.62016253  0.37035858  0.36912471  1
  O  O309  1  0.62002613  0.36839399  0.86991229  1
  O  O310  1  0.62461976  0.87217254  0.36563846  1
  O  O311  1  0.62441642  0.86707011  0.86878228  1
  O  O312  1  0.38242565  0.13185815  0.12505958  1
  O  O313  1  0.37657792  0.13502826  0.63047577  1
  O  O314  1  0.37929273  0.63059258  0.13083289  1
  O  O315  1  0.38133934  0.63318939  0.62747062  1
  O  O316  1  0.87983193  0.13422878  0.12826330  1
  O  O317  1  0.88258014  0.13198391  0.62451079  1
  O  O318  1  0.87923158  0.63547815  0.12630729  1
  O  O319  1  0.88109557  0.62540447  0.63163945  1
  O  O320  1  0.25505301  0.25549634  0.11947149  1
  O  O321  1  0.26061612  0.25461093  0.62635650  1
  O  O322  1  0.25315942  0.75453169  0.11992158  1
  O  O323  1  0.25823909  0.74596072  0.62105370  1
  O  O324  1  0.75961208  0.25054582  0.11859423  1
  O  O325  1  0.75642637  0.25554118  0.61927401  1
  O  O326  1  0.75567471  0.75443857  0.12063203  1
  O  O327  1  0.75153754  0.76397829  0.62556840  1
  O  O328  1  0.24251958  0.24465653  0.37353514  1
  O  O329  1  0.24355603  0.24881407  0.88113925  1
  O  O330  1  0.24341714  0.74293328  0.38111074  1
  O  O331  1  0.24375895  0.74541066  0.87997843  1
  O  O332  1  0.74582282  0.24678529  0.37921673  1
  O  O333  1  0.74464721  0.24459835  0.87919265  1
  O  O334  1  0.74635159  0.73688499  0.37696598  1
  O  O335  1  0.74379210  0.74439622  0.88067198  1
  O  O336  1  0.00597824  0.11984206  0.00445280  1
  O  O337  1  0.00901448  0.12386046  0.50674346  1
  O  O338  1  0.00535258  0.62078576  0.00538693  1
  O  O339  1  0.00446464  0.61862180  0.50654552  1
  O  O340  1  0.50659969  0.11997056  0.00538427  1
  O  O341  1  0.50229844  0.11303520  0.50051568  1
  O  O342  1  0.50489710  0.61965808  0.00633736  1
  O  O343  1  0.51063219  0.62168405  0.50710871  1
  O  O344  1  0.49836138  0.37818866  0.49120281  1
  O  O345  1  0.49558744  0.37931581  0.99573183  1
  O  O346  1  0.49678250  0.88419568  0.49677659  1
  O  O347  1  0.49637187  0.88361162  0.99790914  1
  O  O348  1  0.99494747  0.38120373  0.49478578  1
  O  O349  1  0.99942315  0.38276823  0.99296897  1
  O  O350  1  0.98777348  0.87654902  0.49987775  1
  O  O351  1  0.99804141  0.88341698  0.99163585  1
  O  O352  1  0.49282971  0.49344860  0.37442619  1
  O  O353  1  0.50034277  0.49243822  0.88294067  1
  O  O354  1  0.49117753  0.99932675  0.38083389  1
  O  O355  1  0.49051099  0.99927411  0.88038844  1
  O  O356  1  0.99554495  0.49663933  0.38124773  1
  O  O357  1  1.00023391  0.49383849  0.88157511  1
  O  O358  1  0.99682755  0.99665847  0.37877559  1
  O  O359  1  0.99544214  0.99612150  0.87805837  1
  O  O360  1  0.00502403  0.00588767  0.11800765  1
  O  O361  1  0.01217340  0.00630026  0.62548670  1
  O  O362  1  0.00483875  0.50692698  0.12023093  1
  O  O363  1  0.00581079  0.50417267  0.61991901  1
  O  O364  1  0.50537537  0.00595864  0.12013269  1
  O  O365  1  0.49833449  0.00040036  0.61352852  1
  O  O366  1  0.50509584  0.50601855  0.12076895  1
  O  O367  1  0.50754210  0.50514020  0.62664352  1
  O  O368  1  0.24841857  0.38296792  0.24169577  1
  O  O369  1  0.24326306  0.37939493  0.74536480  1
  O  O370  1  0.24553052  0.88190594  0.24246919  1
  O  O371  1  0.24807253  0.88731094  0.74649577  1
  O  O372  1  0.74327403  0.38323745  0.24912449  1
  O  O373  1  0.74484487  0.37887698  0.74466592  1
  O  O374  1  0.74376358  0.88178347  0.24334650  1
  O  O375  1  0.74550302  0.87982428  0.74320575  1
  O  O376  1  0.25287588  0.11704080  0.25564660  1
  O  O377  1  0.25717907  0.11360703  0.75165974  1
  O  O378  1  0.25556509  0.61982583  0.25542925  1
  O  O379  1  0.24917982  0.61687998  0.75790887  1
  O  O380  1  0.75538821  0.12097395  0.25379254  1
  O  O381  1  0.75108510  0.11873192  0.75668758  1
  O  O382  1  0.74844050  0.61911852  0.26196854  1
  O  O383  1  0.75392622  0.61979796  0.75513677  1
  O  O384  1  0.36940935  0.11433094  0.37304751  1
  O  O385  1  0.37340347  0.11394995  0.86851956  1
  O  O386  1  0.36896546  0.61955922  0.36928935  1
  O  O387  1  0.36531929  0.62150742  0.87445456  1
  O  O388  1  0.86904242  0.12698643  0.36645673  1
  O  O389  1  0.86838482  0.11914547  0.87258064  1
  O  O390  1  0.86481855  0.61986558  0.37801820  1
  O  O391  1  0.86721977  0.62366689  0.86892185  1
  O  O392  1  0.13148813  0.38285975  0.12508288  1
  O  O393  1  0.12992024  0.37917067  0.62997577  1
  O  O394  1  0.13088725  0.88271873  0.12445677  1
  O  O395  1  0.12686413  0.88684136  0.62608175  1
  O  O396  1  0.62606205  0.38240623  0.13229723  1
  O  O397  1  0.63119493  0.37857062  0.63089723  1
  O  O398  1  0.63008133  0.88139106  0.13055591  1
  O  O399  1  0.63412155  0.87649422  0.63138683  1
  O  O400  1  0.12409804  0.25123984  0.26103394  1
  O  O401  1  0.12083220  0.25450116  0.75417187  1
  O  O402  1  0.12503886  0.75048084  0.26374824  1
  O  O403  1  0.11811645  0.75044599  0.75676648  1
  O  O404  1  0.62051454  0.25638016  0.25485552  1
  O  O405  1  0.62080761  0.25496629  0.75541462  1
  O  O406  1  0.61752447  0.75653531  0.24983361  1
  O  O407  1  0.61983595  0.75454668  0.75630861  1
  O  O408  1  0.38248352  0.24868944  0.24236575  1
  O  O409  1  0.38040189  0.24469825  0.74319972  1
  O  O410  1  0.37845934  0.74428746  0.24469621  1
  O  O411  1  0.38017899  0.74646773  0.74234975  1
  O  O412  1  0.87536123  0.24493414  0.23854203  1
  O  O413  1  0.88277823  0.24877783  0.74142189  1
  O  O414  1  0.87209293  0.74854806  0.23728776  1
  O  O415  1  0.88159111  0.74254336  0.74870657  1
  O  O416  1  0.37736685  0.49858081  0.49162219  1
  O  O417  1  0.38180736  0.49251718  1.00012943  1
  O  O418  1  0.38189867  0.99869091  0.49072695  1
  O  O419  1  0.37929007  1.00085356  0.99012404  1
  O  O420  1  0.88067141  0.49400244  0.49543729  1
  O  O421  1  0.88277857  0.49910125  0.99827003  1
  O  O422  1  0.87689022  0.98945516  0.49843179  1
  O  O423  1  0.88186922  0.99998856  0.99280161  1
  O  O424  1  0.11996725  0.00629591  0.00428244  1
  O  O425  1  0.12834807  0.00567483  0.51007107  1
  O  O426  1  0.11932010  0.50705489  0.00649692  1
  O  O427  1  0.11987794  0.50461263  0.50521983  1
  O  O428  1  0.61993253  0.00601940  0.00494325  1
  O  O429  1  0.61349453  0.00071908  0.49909253  1
  O  O430  1  0.61914866  0.50572035  0.00633059  1
  O  O431  1  0.62489184  0.50946936  0.50784074  1
  O  O432  1  0.36980850  0.36935333  0.11911747  1
  O  O433  1  0.36992835  0.36465680  0.62705197  1
  O  O434  1  0.36668183  0.86839349  0.12404540  1
  O  O435  1  0.37412778  0.85805743  0.62449478  1
  O  O436  1  0.87424635  0.36410376  0.12376021  1
  O  O437  1  0.87032894  0.36979016  0.61897844  1
  O  O438  1  0.86781706  0.86650920  0.12274041  1
  O  O439  1  0.86589278  0.87533212  0.61799617  1
  O  O440  1  0.13015155  0.13263215  0.37858173  1
  O  O441  1  0.12608506  0.13155768  0.88118732  1
  O  O442  1  0.12988590  0.63208361  0.38161342  1
  O  O443  1  0.12916830  0.63140847  0.88171777  1
  O  O444  1  0.63353270  0.13334027  0.37491795  1
  O  O445  1  0.63032125  0.13027719  0.88033494  1
  O  O446  1  0.63300182  0.62262028  0.38519599  1
  O  O447  1  0.63016388  0.63052558  0.88149819  1
