# generated using pymatgen
data_V3Zn3O8
_symmetry_space_group_name_H-M   'P 1'
_cell_length_a   17.08674777
_cell_length_b   17.08780246
_cell_length_c   17.08631851
_cell_angle_alpha   90.00451050
_cell_angle_beta   90.00509208
_cell_angle_gamma   90.01175316
_symmetry_Int_Tables_number   1
_chemical_formula_structural   V3Zn3O8
_chemical_formula_sum   'V96 Zn96 O256'
_cell_volume   4988.77720478
_cell_formula_units_Z   32
loop_
 _symmetry_equiv_pos_site_id
 _symmetry_equiv_pos_as_xyz
  1  'x, y, z'
loop_
 _atom_site_type_symbol
 _atom_site_label
 _atom_site_symmetry_multiplicity
 _atom_site_fract_x
 _atom_site_fract_y
 _atom_site_fract_z
 _atom_site_occupancy
  V  V0  1  0.37551220  0.37361556  0.00034888  1
  V  V1  1  0.12463729  0.12552875  -0.00006246  1
  V  V2  1  0.62603136  0.24986176  0.87551729  1
  V  V3  1  0.37407631  0.25039811  0.12470747  1
  V  V4  1  0.49928360  -0.00015277  0.00042075  1
  V  V5  1  0.00014514  0.25043265  0.25050393  1
  V  V6  1  0.87399347  0.87482346  0.50179161  1
  V  V7  1  0.00036875  0.12498090  0.62383205  1
  V  V8  1  0.00067958  0.62581708  0.62591812  1
  V  V9  1  0.25078084  0.25053313  -0.00037488  1
  V  V10  1  -0.00119699  0.62501625  0.12430635  1
  V  V11  1  0.37632993  0.49907502  0.87445537  1
  V  V12  1  0.87594557  0.24978488  0.62411743  1
  V  V13  1  0.75048294  0.25065879  0.00091835  1
  V  V14  1  0.12280447  0.87462175  0.24979904  1
  V  V15  1  0.87438113  0.00054967  0.87477501  1
  V  V16  1  0.37348456  0.74980136  0.12367334  1
  V  V17  1  -0.00083640  0.00055433  -0.00006181  1
  V  V18  1  0.50052793  0.49920251  0.00013251  1
  V  V19  1  0.24982414  0.12493698  0.87412030  1
  V  V20  1  0.87519109  0.74974774  0.62619081  1
  V  V21  1  0.25049421  0.75091941  0.49976812  1
  V  V22  1  0.62460689  0.49911908  0.12617084  1
  V  V23  1  0.62450174  0.12451169  0.00156691  1
  V  V24  1  0.87451174  -0.00079596  0.37653280  1
  V  V25  1  0.37640505  0.75010342  0.62356827  1
  V  V26  1  0.25165364  0.37558965  0.62473010  1
  V  V27  1  -0.00008396  0.12513126  0.12547684  1
  V  V28  1  0.50017467  0.74929750  0.24879610  1
  V  V29  1  0.87410349  0.37438405  0.50017142  1
  V  V30  1  0.87403777  0.12520928  0.25154308  1
  V  V31  1  0.00062313  0.37510658  0.87458405  1
  V  V32  1  0.25323036  0.49959040  0.74996715  1
  V  V33  1  0.87636560  0.62425155  0.74936922  1
  V  V34  1  0.49946206  0.74956401  0.74984788  1
  V  V35  1  0.12386317  0.50093413  0.12442243  1
  V  V36  1  0.87489957  0.62591338  0.24964870  1
  V  V37  1  -0.00101513  0.74950632  0.24930867  1
  V  V38  1  0.12437738  0.00024992  0.62376499  1
  V  V39  1  0.50257042  0.37360906  0.87560200  1
  V  V40  1  0.50063933  0.25142149  0.25090995  1
  V  V41  1  0.62366995  0.00018380  0.12535112  1
  V  V42  1  0.74876968  0.12611295  0.37673561  1
  V  V43  1  0.37396289  -0.00085267  0.37399927  1
  V  V44  1  0.75101995  0.49779118  0.74890099  1
  V  V45  1  0.62470929  0.87549185  0.24966062  1
  V  V46  1  0.12458744  -0.00009747  0.12604591  1
  V  V47  1  0.87429206  0.25045570  0.12570930  1
  V  V48  1  0.24973709  0.62571890  0.87611255  1
  V  V49  1  0.49997260  0.37541242  0.37430696  1
  V  V50  1  0.74988935  0.62581187  0.37665403  1
  V  V51  1  0.24876796  0.50055753  0.24934959  1
  V  V52  1  0.75030704  0.62593402  0.87598726  1
  V  V53  1  0.25036908  0.62509933  0.37420153  1
  V  V54  1  0.37533452  0.12515308  0.74876737  1
  V  V55  1  0.49930787  0.62516835  0.12387557  1
  V  V56  1  0.74899909  0.00041242  0.25074830  1
  V  V57  1  0.49928475  0.00011212  0.50033947  1
  V  V58  1  0.00017522  0.50067309  0.49956460  1
  V  V59  1  0.12419754  0.87453406  0.75171042  1
  V  V60  1  0.75008094  0.87507435  0.62692669  1
  V  V61  1  0.24965514  0.87519997  0.62444420  1
  V  V62  1  0.87372682  0.87477248  0.00068391  1
  V  V63  1  0.37441722  0.50103696  0.37419012  1
  V  V64  1  0.00059833  0.24936588  0.74818641  1
  V  V65  1  0.75082548  0.12456928  0.87489570  1
  V  V66  1  0.50127524  0.50056917  0.50067680  1
  V  V67  1  -0.00021672  0.50020622  -0.00007809  1
  V  V68  1  0.12719830  0.50072394  0.62464011  1
  V  V69  1  0.24948225  0.24991730  0.49878574  1
  V  V70  1  0.62540198  0.49952848  0.62445787  1
  V  V71  1  0.62549453  0.62465004  -0.00095569  1
  V  V72  1  0.37611461  0.24976074  0.62513598  1
  V  V73  1  0.62462910  0.12665315  0.50044137  1
  V  V74  1  0.74972180  -0.00068262  0.75125504  1
  V  V75  1  0.12440464  0.75060987  0.37438757  1
  V  V76  1  0.00098966  0.87448218  0.87496237  1
  V  V77  1  0.00003659  0.37597351  0.37499410  1
  V  V78  1  0.75057885  0.87446122  0.12415502  1
  V  V79  1  0.87577185  0.37421057  0.00044757  1
  V  V80  1  0.12549086  0.24994017  0.87411783  1
  V  V81  1  0.50140081  0.24875146  0.75085491  1
  V  V82  1  0.12637594  0.37441719  0.74874600  1
  V  V83  1  0.24974948  0.87533147  0.12444412  1
  V  V84  1  0.37516179  0.37542752  0.49981368  1
  V  V85  1  -0.00071174  -0.00057033  0.50052033  1
  V  V86  1  0.37310181  0.12513358  0.25018908  1
  V  V87  1  0.12437769  0.37602774  0.24888923  1
  V  V88  1  0.62441292  0.75064996  0.37567876  1
  V  V89  1  0.74889449  0.49836414  0.24984973  1
  V  V90  1  0.49872036  0.87547539  0.87496653  1
  V  V91  1  0.37486609  -0.00038266  0.87512473  1
  V  V92  1  0.24977663  0.00028961  0.74921610  1
  V  V93  1  0.12628641  0.24953176  0.37511655  1
  V  V94  1  0.62490530  0.87506015  0.75049589  1
  V  V95  1  0.12548263  0.62572357  0.50052684  1
  Zn  Zn96  1  0.37406466  0.87578384  -0.00035164  1
  Zn  Zn97  1  0.74843991  0.75080326  0.50256845  1
  Zn  Zn98  1  0.37538695  0.87537121  0.49718119  1
  Zn  Zn99  1  0.12623617  0.12350073  0.49712856  1
  Zn  Zn100  1  0.50160342  0.62494985  0.62472422  1
  Zn  Zn101  1  0.74766687  0.25069144  0.50145009  1
  Zn  Zn102  1  0.12501217  0.74987869  0.87664824  1
  Zn  Zn103  1  0.37720671  0.62340208  0.74971500  1
  Zn  Zn104  1  0.87407717  0.75034139  0.12354588  1
  Zn  Zn105  1  0.49932752  0.12437010  0.12504039  1
  Zn  Zn106  1  0.24886095  0.37642941  0.12377923  1
  Zn  Zn107  1  0.87695099  0.49961052  0.87543409  1
  Zn  Zn108  1  0.75014990  0.37187819  0.62516853  1
  Zn  Zn109  1  0.00217314  0.74860840  0.75282452  1
  Zn  Zn110  1  0.74912974  0.75017728  0.00152298  1
  Zn  Zn111  1  0.62580230  0.25212792  0.37622653  1
  Zn  Zn112  1  0.74868672  0.37423106  0.12599133  1
  Zn  Zn113  1  0.62441571  0.62653378  0.50147493  1
  Zn  Zn114  1  -0.00179304  0.87395949  0.37508644  1
  Zn  Zn115  1  0.87536350  0.50024141  0.37541468  1
  Zn  Zn116  1  0.49897770  0.87379828  0.37453247  1
  Zn  Zn117  1  0.50120540  0.12485580  0.62593922  1
  Zn  Zn118  1  0.62406368  0.00057010  0.62638246  1
  Zn  Zn119  1  0.24808117  0.12441392  0.37616284  1
  Zn  Zn120  1  0.37430456  0.62373712  0.24870455  1
  Zn  Zn121  1  0.62586898  0.37388583  0.25110755  1
  Zn  Zn122  1  0.62337595  0.74929942  0.87627757  1
  Zn  Zn123  1  0.87468379  0.12555397  0.74914909  1
  Zn  Zn124  1  0.12278469  0.62745003  -0.00152359  1
  Zn  Zn125  1  0.24735345  0.74950072  -0.00109530  1
  Zn  Zn126  1  0.62738092  0.37252534  0.74967883  1
  Zn  Zn127  1  0.24778700  0.00130838  0.25162880  1
  Zn  Zn128  1  0.18855284  0.18892247  0.18686938  1
  Zn  Zn129  1  0.18755080  0.18690852  0.68431677  1
  Zn  Zn130  1  0.18561481  0.68652209  0.18743584  1
  Zn  Zn131  1  0.18903717  0.68840134  0.69104050  1
  Zn  Zn132  1  0.68682949  0.18665996  0.18736945  1
  Zn  Zn133  1  0.68872305  0.18632952  0.68621145  1
  Zn  Zn134  1  0.68776401  0.68775079  0.18699004  1
  Zn  Zn135  1  0.68748019  0.68670023  0.68847253  1
  Zn  Zn136  1  0.31128081  0.31497057  0.31281997  1
  Zn  Zn137  1  0.31500768  0.31248178  0.81258476  1
  Zn  Zn138  1  0.31213700  0.81265101  0.30990137  1
  Zn  Zn139  1  0.31205012  0.81258847  0.81126081  1
  Zn  Zn140  1  0.81207176  0.31130638  0.31549992  1
  Zn  Zn141  1  0.81488517  0.31186544  0.81293399  1
  Zn  Zn142  1  0.81270397  0.81288000  0.31190791  1
  Zn  Zn143  1  0.81444455  0.81134576  0.81229110  1
  Zn  Zn144  1  0.18746075  0.43683477  0.43655630  1
  Zn  Zn145  1  0.18724256  0.43866110  0.93805955  1
  Zn  Zn146  1  0.18725824  0.93612528  0.43719322  1
  Zn  Zn147  1  0.18669107  0.93792322  0.93869553  1
  Zn  Zn148  1  0.68588333  0.43671131  0.43707005  1
  Zn  Zn149  1  0.68872420  0.43739273  0.93838010  1
  Zn  Zn150  1  0.68796376  0.93777131  0.43883140  1
  Zn  Zn151  1  0.68619564  0.93647407  0.93696105  1
  Zn  Zn152  1  0.31228829  0.06292890  0.06299316  1
  Zn  Zn153  1  0.31202691  0.06483019  0.56165271  1
  Zn  Zn154  1  0.31157170  0.56128182  0.06122297  1
  Zn  Zn155  1  0.31484350  0.56489159  0.56177046  1
  Zn  Zn156  1  0.81161480  0.06231136  0.06313483  1
  Zn  Zn157  1  0.81213238  0.06196194  0.56412015  1
  Zn  Zn158  1  0.81380882  0.56171834  0.06297940  1
  Zn  Zn159  1  0.81275153  0.56283868  0.56253054  1
  Zn  Zn160  1  0.43553174  0.43714496  0.18759250  1
  Zn  Zn161  1  0.44062926  0.43471642  0.68872221  1
  Zn  Zn162  1  0.43867276  0.93644057  0.18839260  1
  Zn  Zn163  1  0.43712717  0.93695129  0.68598406  1
  Zn  Zn164  1  0.93598808  0.43877299  0.18706143  1
  Zn  Zn165  1  0.93882893  0.43771566  0.68631140  1
  Zn  Zn166  1  0.93679243  0.93703561  0.18804501  1
  Zn  Zn167  1  0.93701844  0.93736893  0.68903223  1
  Zn  Zn168  1  0.06141965  0.06205682  0.31391265  1
  Zn  Zn169  1  0.06126464  0.06208503  0.81089924  1
  Zn  Zn170  1  0.06242943  0.56321908  0.31221465  1
  Zn  Zn171  1  0.06459832  0.56097575  0.81217791  1
  Zn  Zn172  1  0.56114035  0.06413980  0.31433604  1
  Zn  Zn173  1  0.56303350  0.06258074  0.81348316  1
  Zn  Zn174  1  0.56170513  0.56373370  0.31132310  1
  Zn  Zn175  1  0.56382318  0.56243519  0.81092012  1
  Zn  Zn176  1  0.43675833  0.18675831  0.43680774  1
  Zn  Zn177  1  0.43839920  0.18603220  0.93691651  1
  Zn  Zn178  1  0.43867867  0.68448531  0.43837868  1
  Zn  Zn179  1  0.43480368  0.68693124  0.93792803  1
  Zn  Zn180  1  0.93877811  0.18704593  0.43815465  1
  Zn  Zn181  1  0.93689208  0.18830769  0.93661703  1
  Zn  Zn182  1  0.93626156  0.68919102  0.43824432  1
  Zn  Zn183  1  0.93632225  0.68955189  0.93766126  1
  Zn  Zn184  1  0.06213491  0.31346025  0.06266558  1
  Zn  Zn185  1  0.06305855  0.31252162  0.56123471  1
  Zn  Zn186  1  0.06274406  0.80983018  0.06041254  1
  Zn  Zn187  1  0.06106591  0.81302714  0.56394588  1
  Zn  Zn188  1  0.56342163  0.31282571  0.06511281  1
  Zn  Zn189  1  0.56122757  0.31381017  0.56370017  1
  Zn  Zn190  1  0.56346695  0.81249108  0.06068284  1
  Zn  Zn191  1  0.56303165  0.81637749  0.56190249  1
  O  O192  1  0.11978137  0.12064420  0.11985369  1
  O  O193  1  0.11859223  0.11784699  0.62260087  1
  O  O194  1  0.11672959  0.61761409  0.12393730  1
  O  O195  1  0.12223034  0.61997949  0.62001937  1
  O  O196  1  0.62305933  0.11778153  0.11908474  1
  O  O197  1  0.62280639  0.12177575  0.61371513  1
  O  O198  1  0.61895632  0.61924917  0.11920292  1
  O  O199  1  0.62472927  0.61293233  0.62331362  1
  O  O200  1  0.37967769  0.38195277  0.38122908  1
  O  O201  1  0.38232783  0.37897726  0.88111888  1
  O  O202  1  0.37679217  0.88559212  0.37460210  1
  O  O203  1  0.37960921  0.88257080  0.87599498  1
  O  O204  1  0.88193478  0.37583523  0.38464905  1
  O  O205  1  0.88354703  0.37541660  0.88170028  1
  O  O206  1  0.87438863  0.88145982  0.38232531  1
  O  O207  1  0.88000808  0.88154531  0.88059528  1
  O  O208  1  0.26117781  0.00144829  0.37288709  1
  O  O209  1  0.25456163  0.00603299  0.86945827  1
  O  O210  1  0.25427563  0.50532230  0.37026108  1
  O  O211  1  0.25642305  0.50450482  0.86922569  1
  O  O212  1  0.75476975  0.00596457  0.36951430  1
  O  O213  1  0.75505612  0.00497296  0.87103200  1
  O  O214  1  0.74818752  0.51012933  0.36677875  1
  O  O215  1  0.75068552  0.50855643  0.86565192  1
  O  O216  1  0.24290624  0.49904688  0.13090955  1
  O  O217  1  0.24743742  0.49522655  0.62927870  1
  O  O218  1  0.24400149  0.99204587  0.12730612  1
  O  O219  1  0.24567768  0.99518961  0.62955077  1
  O  O220  1  0.74429025  0.50109104  0.13587541  1
  O  O221  1  0.74367693  0.49978152  0.63378007  1
  O  O222  1  0.74357459  0.99565011  0.13161600  1
  O  O223  1  0.74931796  0.99278145  0.63371352  1
  O  O224  1  0.00392967  0.37000064  0.25527780  1
  O  O225  1  0.00727450  0.36963335  0.75336489  1
  O  O226  1  0.00575369  0.86842289  0.25087565  1
  O  O227  1  0.00659332  0.87571166  0.75756037  1
  O  O228  1  0.49806188  0.36594033  0.25544031  1
  O  O229  1  0.50340530  0.36666643  0.75850014  1
  O  O230  1  0.50767515  0.86760288  0.25194269  1
  O  O231  1  0.50406779  0.86810687  0.75430626  1
  O  O232  1  0.48935852  0.13431994  0.25016793  1
  O  O233  1  0.49334410  0.13054814  0.74984870  1
  O  O234  1  0.49784620  0.63140235  0.24142515  1
  O  O235  1  0.49862694  0.63687440  0.74809749  1
  O  O236  1  0.99351405  0.13060273  0.24488712  1
  O  O237  1  0.99901148  0.13200239  0.74272017  1
  O  O238  1  0.99398337  0.62931769  0.24536659  1
  O  O239  1  0.99452394  0.62291318  0.74328592  1
  O  O240  1  0.37065374  0.25331891  0.00439864  1
  O  O241  1  0.37079658  0.25642105  0.50498804  1
  O  O242  1  0.37290256  0.75278389  0.01292818  1
  O  O243  1  0.37081440  0.75171268  0.50779210  1
  O  O244  1  0.87037018  0.25409513  0.00599036  1
  O  O245  1  0.87692003  0.25998500  0.50547799  1
  O  O246  1  0.87090744  0.75972024  0.00243721  1
  O  O247  1  0.87245365  0.75648503  0.50785351  1
  O  O248  1  0.13144479  0.25075308  0.49283798  1
  O  O249  1  0.12966116  0.24468573  0.99397315  1
  O  O250  1  0.13038374  0.74478104  0.49541865  1
  O  O251  1  0.12996770  0.74525339  0.99526095  1
  O  O252  1  0.62386939  0.23907568  0.49937568  1
  O  O253  1  0.63059966  0.24445154  0.99610560  1
  O  O254  1  0.62636521  0.74956942  0.48821192  1
  O  O255  1  0.62739030  0.74049078  0.99654907  1
  O  O256  1  0.49288051  0.24898836  0.13512572  1
  O  O257  1  0.49297573  0.24934872  0.63245341  1
  O  O258  1  0.49229654  0.74582572  0.12854872  1
  O  O259  1  0.49265743  0.75236083  0.63215275  1
  O  O260  1  0.99486840  0.24395233  0.13074583  1
  O  O261  1  0.99649252  0.24534418  0.62911707  1
  O  O262  1  0.99839766  0.74295208  0.13206284  1
  O  O263  1  0.99411603  0.74259645  0.62775495  1
  O  O264  1  0.00538894  0.25569710  0.36915446  1
  O  O265  1  0.00687002  0.25465909  0.86906346  1
  O  O266  1  0.00689599  0.75035512  0.36846179  1
  O  O267  1  0.00204286  0.75914009  0.87286705  1
  O  O268  1  0.49734323  0.25627428  0.36498664  1
  O  O269  1  0.50633460  0.25379240  0.87077805  1
  O  O270  1  0.50928945  0.74919501  0.36911985  1
  O  O271  1  0.49618264  0.75567236  0.86436917  1
  O  O272  1  0.24772573  0.13473603  0.49740740  1
  O  O273  1  0.24417933  0.13021477  0.99385645  1
  O  O274  1  0.24465776  0.63109839  0.49473997  1
  O  O275  1  0.24862396  0.62293280  0.98713652  1
  O  O276  1  0.74015411  0.12365588  0.49513687  1
  O  O277  1  0.74479544  0.13045600  0.99490372  1
  O  O278  1  0.74841490  0.62673161  0.48778451  1
  O  O279  1  0.74531328  0.62234252  0.99045162  1
  O  O280  1  0.25707172  0.36785354  -0.00075758  1
  O  O281  1  0.25576558  0.37086237  0.50582746  1
  O  O282  1  0.25100583  0.87489864  0.01362977  1
  O  O283  1  0.25156284  0.86768221  0.50665252  1
  O  O284  1  0.75732703  0.36826797  0.00144771  1
  O  O285  1  0.76304140  0.37470862  0.50021493  1
  O  O286  1  0.75550481  0.87539735  0.00593409  1
  O  O287  1  0.75606852  0.87447364  0.50814309  1
  O  O288  1  0.12881392  0.49493471  0.24465191  1
  O  O289  1  0.13259571  0.49290840  0.74292433  1
  O  O290  1  0.12501038  0.99436979  0.24361204  1
  O  O291  1  0.13121727  0.99525503  0.74387189  1
  O  O292  1  0.63364636  0.50032370  0.24494152  1
  O  O293  1  0.63399968  0.49834371  0.74202562  1
  O  O294  1  0.62919448  0.99603461  0.24628992  1
  O  O295  1  0.63072220  0.99307771  0.74990566  1
  O  O296  1  0.37658337  0.00899054  0.25706773  1
  O  O297  1  0.36903662  0.00510409  0.75441628  1
  O  O298  1  0.36762155  0.50126310  0.25632400  1
  O  O299  1  0.37123275  0.49947840  0.75623813  1
  O  O300  1  0.86906404  0.00607186  0.25581342  1
  O  O301  1  0.86800341  0.00199577  0.75777316  1
  O  O302  1  0.86492829  0.50607785  0.25284874  1
  O  O303  1  0.86593742  0.50483765  0.74910246  1
  O  O304  1  0.11869609  0.37041439  0.36896778  1
  O  O305  1  0.12092131  0.36899522  0.86824119  1
  O  O306  1  0.12370971  0.86807063  0.36766194  1
  O  O307  1  0.11923871  0.87691122  0.86890471  1
  O  O308  1  0.61576809  0.37202612  0.37235923  1
  O  O309  1  0.61976461  0.36724071  0.87564712  1
  O  O310  1  0.62631500  0.86524830  0.36846075  1
  O  O311  1  0.61713938  0.87205687  0.86835560  1
  O  O312  1  0.37619251  0.13047100  0.13432244  1
  O  O313  1  0.37606327  0.13237422  0.63181701  1
  O  O314  1  0.37975254  0.63402166  0.12472248  1
  O  O315  1  0.37718823  0.63834935  0.62717834  1
  O  O316  1  0.88028216  0.13001452  0.13125741  1
  O  O317  1  0.88214592  0.13248846  0.62561374  1
  O  O318  1  0.88121264  0.62609601  0.13221025  1
  O  O319  1  0.88091053  0.62936935  0.62927197  1
  O  O320  1  0.25584484  0.25230660  0.11707544  1
  O  O321  1  0.25584949  0.25702803  0.62001510  1
  O  O322  1  0.25731927  0.75731476  0.12573384  1
  O  O323  1  0.25818874  0.75444610  0.62067479  1
  O  O324  1  0.75654342  0.25037403  0.11961560  1
  O  O325  1  0.75907733  0.25287057  0.62228748  1
  O  O326  1  0.75214298  0.75867306  0.12407665  1
  O  O327  1  0.75632861  0.75593586  0.62554635  1
  O  O328  1  0.24417348  0.25101710  0.38118731  1
  O  O329  1  0.24495229  0.24449497  0.87931708  1
  O  O330  1  0.24502354  0.74536755  0.37957918  1
  O  O331  1  0.25254471  0.73847355  0.87547148  1
  O  O332  1  0.74666317  0.24139429  0.37871480  1
  O  O333  1  0.74605194  0.24468281  0.88091360  1
  O  O334  1  0.74096899  0.74131274  0.37308501  1
  O  O335  1  0.74764299  0.73573109  0.87349550  1
  O  O336  1  0.00531905  0.12075247  0.00546204  1
  O  O337  1  0.00151634  0.11729332  0.50633371  1
  O  O338  1  -0.00119900  0.61736038  0.00531246  1
  O  O339  1  0.00598613  0.62024176  0.50535476  1
  O  O340  1  0.50674185  0.11854872  0.00156899  1
  O  O341  1  0.50713997  0.11683395  0.49954078  1
  O  O342  1  0.50482003  0.61837472  0.00394801  1
  O  O343  1  0.50406461  0.61576894  0.50297161  1
  O  O344  1  0.49354828  0.38082703  0.49444588  1
  O  O345  1  0.49535454  0.37939224  0.99492434  1
  O  O346  1  0.49855784  0.88744746  0.49583595  1
  O  O347  1  0.49819182  0.88187390  0.99333040  1
  O  O348  1  0.99325014  0.38089289  0.49515751  1
  O  O349  1  0.99536822  0.37908395  0.99407487  1
  O  O350  1  0.99217088  0.88148351  0.49962137  1
  O  O351  1  0.99483698  0.88275535  0.99566336  1
  O  O352  1  0.49449198  0.49564305  0.37923255  1
  O  O353  1  0.49641921  0.49449700  0.88025530  1
  O  O354  1  0.49035909  1.00001373  0.38241107  1
  O  O355  1  0.49398031  0.99486598  0.87978422  1
  O  O356  1  0.99885898  0.49453565  0.38156963  1
  O  O357  1  1.00006293  0.49208579  0.88013319  1
  O  O358  1  0.99189889  0.99798359  0.38177314  1
  O  O359  1  0.99455125  0.99601267  0.88117503  1
  O  O360  1  0.00466888  0.00631621  0.11978604  1
  O  O361  1  0.00449345  0.00495552  0.62027937  1
  O  O362  1  0.00433656  0.50555641  0.12036231  1
  O  O363  1  0.00769027  0.50577966  0.61939012  1
  O  O364  1  0.50642032  0.00069028  0.11944657  1
  O  O365  1  0.49974581  0.00228082  0.61322724  1
  O  O366  1  0.50382877  0.50517479  0.11967167  1
  O  O367  1  0.50910668  0.49970902  0.62108665  1
  O  O368  1  0.24232647  0.38243466  0.24816909  1
  O  O369  1  0.24632963  0.37948773  0.74446424  1
  O  O370  1  0.24282527  0.87636684  0.23873599  1
  O  O371  1  0.24511468  0.88196453  0.74424084  1
  O  O372  1  0.75005163  0.38697344  0.25093512  1
  O  O373  1  0.75025848  0.38689894  0.74998394  1
  O  O374  1  0.74449058  0.88189022  0.24492853  1
  O  O375  1  0.74481373  0.87939514  0.74718193  1
  O  O376  1  0.26235158  0.12455274  0.25113406  1
  O  O377  1  0.25470492  0.12017993  0.75478811  1
  O  O378  1  0.25000027  0.61841041  0.25711680  1
  O  O379  1  0.25397016  0.61764292  0.75801997  1
  O  O380  1  0.75479253  0.11956837  0.25593943  1
  O  O381  1  0.75103211  0.11801711  0.75799180  1
  O  O382  1  0.75369232  0.61776071  0.25747997  1
  O  O383  1  0.75498233  0.61588619  0.75679942  1
  O  O384  1  0.37368115  0.11685114  0.36589826  1
  O  O385  1  0.36853992  0.12000984  0.86851405  1
  O  O386  1  0.36759399  0.61882075  0.37350518  1
  O  O387  1  0.36704567  0.61700735  0.87339598  1
  O  O388  1  0.86941588  0.11955970  0.37063339  1
  O  O389  1  0.86845632  0.11894983  0.87439826  1
  O  O390  1  0.86454455  0.62475858  0.37007980  1
  O  O391  1  0.86629369  0.62170124  0.86921011  1
  O  O392  1  0.12471970  0.38181359  0.13188070  1
  O  O393  1  0.13169433  0.38099160  0.62932142  1
  O  O394  1  0.13143422  0.87978148  0.12973403  1
  O  O395  1  0.13058850  0.88105313  0.63096550  1
  O  O396  1  0.62816605  0.38320349  0.12949403  1
  O  O397  1  0.62880355  0.38642166  0.62687926  1
  O  O398  1  0.63028165  0.88092711  0.13032588  1
  O  O399  1  0.63210017  0.87712153  0.63255823  1
  O  O400  1  0.11919511  0.25589822  0.25391142  1
  O  O401  1  0.12127419  0.25541036  0.75410656  1
  O  O402  1  0.11879412  0.75444709  0.25546579  1
  O  O403  1  0.12380164  0.75956195  0.75304857  1
  O  O404  1  0.61192698  0.24948307  0.25135940  1
  O  O405  1  0.62017801  0.24982389  0.75722885  1
  O  O406  1  0.62038929  0.75490533  0.25708198  1
  O  O407  1  0.61347863  0.75497353  0.75045517  1
  O  O408  1  0.38063388  0.24420141  0.24611789  1
  O  O409  1  0.38058419  0.24451541  0.74548538  1
  O  O410  1  0.38042967  0.74848282  0.23890192  1
  O  O411  1  0.38396685  0.75142548  0.73977442  1
  O  O412  1  0.88060718  0.24443697  0.24608217  1
  O  O413  1  0.88320171  0.24978713  0.74229707  1
  O  O414  1  0.88102138  0.74383981  0.24878792  1
  O  O415  1  0.87741745  0.74157574  0.74341125  1
  O  O416  1  0.38018577  0.49468048  0.49491397  1
  O  O417  1  0.38177982  0.49345885  0.99477712  1
  O  O418  1  0.38247368  1.00196630  0.49087198  1
  O  O419  1  0.38076983  1.00019738  0.99318355  1
  O  O420  1  0.88131108  0.49106737  0.49925365  1
  O  O421  1  0.88187591  0.49172110  0.99919232  1
  O  O422  1  0.87949831  0.99434466  0.49580340  1
  O  O423  1  0.88014724  0.99566328  0.99492398  1
  O  O424  1  0.11887449  0.00686503  0.00595127  1
  O  O425  1  0.11827978  -0.00035582  0.50629003  1
  O  O426  1  0.11705258  0.50011195  0.00660872  1
  O  O427  1  0.12097326  0.50544288  0.50557829  1
  O  O428  1  0.61913743  0.00511770  0.00529906  1
  O  O429  1  0.61551887  0.00824189  0.49911222  1
  O  O430  1  0.61926250  0.50469049  0.00594119  1
  O  O431  1  0.62052972  0.49993412  0.50941732  1
  O  O432  1  0.37288510  0.36868148  0.11717928  1
  O  O433  1  0.37035764  0.36983814  0.61956649  1
  O  O434  1  0.36634672  0.86751984  0.12627064  1
  O  O435  1  0.36864968  0.86528714  0.62253458  1
  O  O436  1  0.87403654  0.36723415  0.11912925  1
  O  O437  1  0.87750350  0.36900416  0.61446422  1
  O  O438  1  0.86787143  0.87680872  0.11835296  1
  O  O439  1  0.86942311  0.86951152  0.62183511  1
  O  O440  1  0.12741680  0.13335624  0.37562637  1
  O  O441  1  0.13007072  0.13007084  0.87974689  1
  O  O442  1  0.13077391  0.63033959  0.38146934  1
  O  O443  1  0.13798955  0.62391117  0.87400297  1
  O  O444  1  0.62943141  0.12609979  0.38491868  1
  O  O445  1  0.63103373  0.13007526  0.88234673  1
  O  O446  1  0.63356746  0.63486035  0.37344278  1
  O  O447  1  0.63429881  0.62430226  0.88000806  1
