# generated using pymatgen
data_V3Zn3O8
_symmetry_space_group_name_H-M   'P 1'
_cell_length_a   17.08868397
_cell_length_b   17.08903163
_cell_length_c   17.08692571
_cell_angle_alpha   90.00800737
_cell_angle_beta   90.00120915
_cell_angle_gamma   89.99188094
_symmetry_Int_Tables_number   1
_chemical_formula_structural   V3Zn3O8
_chemical_formula_sum   'V96 Zn96 O256'
_cell_volume   4989.87876557
_cell_formula_units_Z   32
loop_
 _symmetry_equiv_pos_site_id
 _symmetry_equiv_pos_as_xyz
  1  'x, y, z'
loop_
 _atom_site_type_symbol
 _atom_site_label
 _atom_site_symmetry_multiplicity
 _atom_site_fract_x
 _atom_site_fract_y
 _atom_site_fract_z
 _atom_site_occupancy
  V  V0  1  0.12535511  0.74980458  0.37479671  1
  V  V1  1  -0.00154739  0.49899068  0.00010557  1
  V  V2  1  0.87503941  0.62532208  0.75022161  1
  V  V3  1  0.50024279  -0.00047372  -0.00106307  1
  V  V4  1  0.87440478  0.00092774  0.87529489  1
  V  V5  1  0.62540040  0.25032179  0.37576556  1
  V  V6  1  0.75015589  0.37541888  0.62549867  1
  V  V7  1  0.25004999  0.12468540  0.37345600  1
  V  V8  1  0.37514155  0.62474396  0.24946247  1
  V  V9  1  0.12442452  0.87419323  0.25038695  1
  V  V10  1  0.25032949  0.12357132  0.87441535  1
  V  V11  1  0.24972501  0.87382581  0.12438394  1
  V  V12  1  0.74995680  0.25049914  0.00069293  1
  V  V13  1  0.37527575  0.50086425  0.37418370  1
  V  V14  1  0.62461218  -0.00011691  0.12568966  1
  V  V15  1  0.12442985  0.25060695  0.37504216  1
  V  V16  1  0.25049213  0.00085623  0.25019720  1
  V  V17  1  0.75015521  0.12461493  0.87498146  1
  V  V18  1  0.62592292  0.87406086  0.24976582  1
  V  V19  1  0.00098087  0.62541654  0.62436941  1
  V  V20  1  0.25048641  0.87592952  0.62521583  1
  V  V21  1  0.75024333  0.49853379  0.25055433  1
  V  V22  1  0.49939589  0.37429971  0.87482332  1
  V  V23  1  0.49927505  0.74990774  0.24870444  1
  V  V24  1  0.50036683  0.87368686  0.87402195  1
  V  V25  1  -0.00025488  0.25075226  0.25072406  1
  V  V26  1  0.49967986  -0.00031916  0.49886876  1
  V  V27  1  0.49947743  0.24870307  0.24889766  1
  V  V28  1  0.87595880  0.87631171  0.49944753  1
  V  V29  1  0.62439159  0.50122092  0.62481476  1
  V  V30  1  0.37476394  0.49844095  0.87544667  1
  V  V31  1  0.74993786  0.75028569  0.49988421  1
  V  V32  1  0.12500864  0.50089119  0.62515983  1
  V  V33  1  0.25005317  0.62488886  0.37489372  1
  V  V34  1  0.87430886  0.25014041  0.12415992  1
  V  V35  1  -0.00018174  0.75053798  0.75003922  1
  V  V36  1  0.25093319  0.24971120  0.00067463  1
  V  V37  1  0.12491356  0.74885672  0.87563124  1
  V  V38  1  0.62401530  0.24917170  0.87542503  1
  V  V39  1  0.12482722  0.37439430  0.75138013  1
  V  V40  1  0.62403414  0.12456099  0.00036588  1
  V  V41  1  0.62489618  0.75074090  0.87487086  1
  V  V42  1  0.62521342  0.12615453  0.50008156  1
  V  V43  1  0.75020091  0.75030550  -0.00006353  1
  V  V44  1  0.25069965  0.75064409  0.49905092  1
  V  V45  1  -0.00003286  0.12512935  0.12460358  1
  V  V46  1  0.25127317  0.37328482  0.12557772  1
  V  V47  1  0.87542944  0.37528121  0.50099777  1
  V  V48  1  -0.00008595  0.37516440  0.37595585  1
  V  V49  1  0.87552939  0.74979708  0.12460549  1
  V  V50  1  0.74923109  0.62607709  0.37675187  1
  V  V51  1  0.37683680  0.62667923  0.74780550  1
  V  V52  1  0.50081831  0.50245438  0.50037057  1
  V  V53  1  0.87505501  0.24977534  0.62644357  1
  V  V54  1  0.24893227  0.62452141  0.87553527  1
  V  V55  1  0.49926991  0.12594240  0.62435310  1
  V  V56  1  0.62479777  0.37501271  0.75014059  1
  V  V57  1  0.74909390  0.25008569  0.50008012  1
  V  V58  1  0.12585199  0.87546425  0.74920972  1
  V  V59  1  0.25025077  0.37467273  0.62426345  1
  V  V60  1  0.24946645  0.74861412  0.00012768  1
  V  V61  1  0.62517679  0.87534660  0.74965191  1
  V  V62  1  -0.00041004  0.62407110  0.12569767  1
  V  V63  1  -0.00029270  0.12586287  0.62516449  1
  V  V64  1  0.12523580  0.49894402  0.12590060  1
  V  V65  1  0.00017885  0.87493655  0.37545593  1
  V  V66  1  0.00005736  -0.00015312  -0.00026630  1
  V  V67  1  0.12501209  0.25038816  0.87402961  1
  V  V68  1  0.37480350  0.25016834  0.62403636  1
  V  V69  1  -0.00006287  0.87483930  0.87461029  1
  V  V70  1  0.24974538  0.49976863  0.75000658  1
  V  V71  1  0.62545981  0.50116135  0.12543636  1
  V  V72  1  0.37556027  0.87560458  0.49895222  1
  V  V73  1  0.62504626  -0.00018604  0.62509462  1
  V  V74  1  0.00009843  0.50020062  0.50052933  1
  V  V75  1  0.87562698  0.75148922  0.62526674  1
  V  V76  1  0.87255324  0.12283796  0.25184714  1
  V  V77  1  0.12558879  -0.00069973  0.12445526  1
  V  V78  1  0.87509633  0.49945695  0.87569438  1
  V  V79  1  0.50062933  0.49996228  0.00048411  1
  V  V80  1  0.49915926  0.24940924  0.74894952  1
  V  V81  1  0.87458290  0.37451316  -0.00020260  1
  V  V82  1  -0.00024608  0.00069353  0.49989702  1
  V  V83  1  0.50071352  0.37586129  0.37452026  1
  V  V84  1  0.74982978  0.50036473  0.75037328  1
  V  V85  1  0.74929073  0.62597581  0.87540456  1
  V  V86  1  0.49934737  0.87554218  0.37476429  1
  V  V87  1  0.87508251  0.12577136  0.75067640  1
  V  V88  1  0.74966715  0.87615000  0.62493634  1
  V  V89  1  0.37401703  0.74891745  0.12420925  1
  V  V90  1  0.87492933  0.87450096  0.00067431  1
  V  V91  1  0.12518391  0.12488262  -0.00071940  1
  V  V92  1  0.87528017  0.62584885  0.24945828  1
  V  V93  1  0.37405103  -0.00099786  0.87365243  1
  V  V94  1  0.25030572  0.25036265  0.49964219  1
  V  V95  1  0.12402201  0.12503720  0.50097138  1
  Zn  Zn96  1  0.37469587  0.12414509  0.24790502  1
  Zn  Zn97  1  0.25042386  0.49801440  0.25118839  1
  Zn  Zn98  1  0.24882539  0.00110227  0.74913831  1
  Zn  Zn99  1  0.62455637  0.62717979  -0.00022438  1
  Zn  Zn100  1  0.37702526  0.24797668  0.12378765  1
  Zn  Zn101  1  0.50081436  0.74947993  0.74772770  1
  Zn  Zn102  1  -0.00002694  0.74947225  0.25046836  1
  Zn  Zn103  1  0.49920861  0.62569149  0.12404706  1
  Zn  Zn104  1  0.75063870  0.37457753  0.12599303  1
  Zn  Zn105  1  -0.00001534  0.37391979  0.87383880  1
  Zn  Zn106  1  0.12389861  0.62391582  -0.00007954  1
  Zn  Zn107  1  0.75163159  0.87464854  0.12613655  1
  Zn  Zn108  1  0.62404897  0.75037885  0.37656814  1
  Zn  Zn109  1  0.37540059  0.00210586  0.37252620  1
  Zn  Zn110  1  0.74999010  0.12309310  0.37587730  1
  Zn  Zn111  1  0.12516208  0.37429934  0.25136448  1
  Zn  Zn112  1  0.37568847  0.37250359  0.00061099  1
  Zn  Zn113  1  0.12550363  0.62552526  0.49964831  1
  Zn  Zn114  1  0.49722708  0.12613526  0.12497006  1
  Zn  Zn115  1  0.50217234  0.62783409  0.62488756  1
  Zn  Zn116  1  0.37846976  0.74989419  0.62417730  1
  Zn  Zn117  1  0.87611730  0.49990731  0.37570102  1
  Zn  Zn118  1  0.12501125  0.00172462  0.62678711  1
  Zn  Zn119  1  0.87268108  -0.00090409  0.37447984  1
  Zn  Zn120  1  0.74956146  0.00071933  0.75006167  1
  Zn  Zn121  1  0.37411816  0.37595820  0.49908476  1
  Zn  Zn122  1  0.37312954  0.12435086  0.74840902  1
  Zn  Zn123  1  0.37508678  0.87291142  -0.00079092  1
  Zn  Zn124  1  0.62511324  0.62815109  0.50245565  1
  Zn  Zn125  1  0.75009360  -0.00106727  0.25241768  1
  Zn  Zn126  1  -0.00001968  0.25143436  0.75141710  1
  Zn  Zn127  1  0.62666755  0.37376484  0.25016361  1
  Zn  Zn128  1  0.18662437  0.18764302  0.18811029  1
  Zn  Zn129  1  0.18793179  0.18730827  0.68858156  1
  Zn  Zn130  1  0.18764201  0.68596724  0.18904051  1
  Zn  Zn131  1  0.18880285  0.68883860  0.68716132  1
  Zn  Zn132  1  0.68648209  0.18712668  0.18750615  1
  Zn  Zn133  1  0.68759120  0.18704231  0.68780420  1
  Zn  Zn134  1  0.68818504  0.68712849  0.18670994  1
  Zn  Zn135  1  0.68695535  0.68831284  0.68756549  1
  Zn  Zn136  1  0.31451169  0.31328111  0.31193706  1
  Zn  Zn137  1  0.31252150  0.31130748  0.81192999  1
  Zn  Zn138  1  0.31299170  0.81322038  0.31212086  1
  Zn  Zn139  1  0.31229675  0.81175447  0.81247022  1
  Zn  Zn140  1  0.81354739  0.31154267  0.31441049  1
  Zn  Zn141  1  0.81225492  0.31240351  0.81356953  1
  Zn  Zn142  1  0.81297426  0.81170564  0.31255317  1
  Zn  Zn143  1  0.81125831  0.81372710  0.81250008  1
  Zn  Zn144  1  0.18670690  0.43794262  0.43826680  1
  Zn  Zn145  1  0.18720925  0.43617621  0.93923074  1
  Zn  Zn146  1  0.18661239  0.93911133  0.43778017  1
  Zn  Zn147  1  0.18822082  0.93580669  0.93774096  1
  Zn  Zn148  1  0.68624526  0.43752299  0.43754536  1
  Zn  Zn149  1  0.68780266  0.43688365  0.93814419  1
  Zn  Zn150  1  0.68869657  0.93954564  0.43583250  1
  Zn  Zn151  1  0.68826897  0.93666062  0.93792081  1
  Zn  Zn152  1  0.31471311  0.06344006  0.06300434  1
  Zn  Zn153  1  0.31308545  0.06214197  0.56022725  1
  Zn  Zn154  1  0.31249235  0.56201513  0.06209456  1
  Zn  Zn155  1  0.31285526  0.56285536  0.56133942  1
  Zn  Zn156  1  0.81066477  0.06236367  0.06349607  1
  Zn  Zn157  1  0.81257616  0.06244171  0.56259700  1
  Zn  Zn158  1  0.81200637  0.56386720  0.06234918  1
  Zn  Zn159  1  0.81381819  0.56251869  0.56296811  1
  Zn  Zn160  1  0.43757692  0.43566200  0.18868919  1
  Zn  Zn161  1  0.43670738  0.43767675  0.68652653  1
  Zn  Zn162  1  0.43614915  0.93681326  0.18712447  1
  Zn  Zn163  1  0.43807321  0.93678800  0.68756728  1
  Zn  Zn164  1  0.93652361  0.43655897  0.18791007  1
  Zn  Zn165  1  0.93895908  0.43712334  0.68828437  1
  Zn  Zn166  1  0.93913970  0.93680825  0.18767558  1
  Zn  Zn167  1  0.93762505  0.94030846  0.68728617  1
  Zn  Zn168  1  0.06189056  0.06187719  0.31346537  1
  Zn  Zn169  1  0.06266468  0.06261044  0.81065414  1
  Zn  Zn170  1  0.06314569  0.56227231  0.31258328  1
  Zn  Zn171  1  0.06187959  0.56183765  0.81255603  1
  Zn  Zn172  1  0.56245508  0.06361149  0.31375721  1
  Zn  Zn173  1  0.56123812  0.06199334  0.81106174  1
  Zn  Zn174  1  0.56291257  0.56422275  0.31215212  1
  Zn  Zn175  1  0.56246853  0.56305333  0.81341623  1
  Zn  Zn176  1  0.43579798  0.18739473  0.43559545  1
  Zn  Zn177  1  0.43608597  0.18573503  0.93847978  1
  Zn  Zn178  1  0.43683321  0.68907623  0.43577318  1
  Zn  Zn179  1  0.43737955  0.68650392  0.93658408  1
  Zn  Zn180  1  0.93717984  0.18832022  0.43789262  1
  Zn  Zn181  1  0.93875394  0.18856495  0.93656714  1
  Zn  Zn182  1  0.93755084  0.68803525  0.43729947  1
  Zn  Zn183  1  0.93755632  0.68614540  0.93897907  1
  Zn  Zn184  1  0.06235742  0.31296247  0.06130117  1
  Zn  Zn185  1  0.06264615  0.31221473  0.56369341  1
  Zn  Zn186  1  0.06237709  0.81070244  0.06250650  1
  Zn  Zn187  1  0.06452357  0.81312479  0.56134662  1
  Zn  Zn188  1  0.56467473  0.31516154  0.06424086  1
  Zn  Zn189  1  0.56161153  0.31469377  0.56177667  1
  Zn  Zn190  1  0.56124354  0.81313476  0.06168108  1
  Zn  Zn191  1  0.56222611  0.81090489  0.56322804  1
  O  O192  1  0.11926399  0.11907239  0.11877742  1
  O  O193  1  0.11850816  0.12514143  0.61839682  1
  O  O194  1  0.11983174  0.61454379  0.12443724  1
  O  O195  1  0.11873411  0.61917998  0.62517556  1
  O  O196  1  0.62294350  0.11508837  0.11916316  1
  O  O197  1  0.61902880  0.12057172  0.61957230  1
  O  O198  1  0.62278739  0.61275851  0.12302626  1
  O  O199  1  0.62404764  0.61607967  0.62380181  1
  O  O200  1  0.38251232  0.38287716  0.37698320  1
  O  O201  1  0.38181516  0.38150448  0.87498018  1
  O  O202  1  0.38166922  0.87729344  0.38101695  1
  O  O203  1  0.38019071  0.88312263  0.87569081  1
  O  O204  1  0.88185978  0.37588637  0.38353212  1
  O  O205  1  0.87534999  0.38208945  0.88121006  1
  O  O206  1  0.88203336  0.87485911  0.38171575  1
  O  O207  1  0.88113120  0.88034022  0.88025462  1
  O  O208  1  0.24876469  0.00694423  0.36794373  1
  O  O209  1  0.25902235  0.00380616  0.87581140  1
  O  O210  1  0.25637383  0.50584797  0.37464800  1
  O  O211  1  0.25443784  0.50420462  0.87003774  1
  O  O212  1  0.75456587  0.00528726  0.37063956  1
  O  O213  1  0.75682248  0.00716700  0.87529946  1
  O  O214  1  0.75083713  0.50794765  0.36717307  1
  O  O215  1  0.75479485  0.50536489  0.86931816  1
  O  O216  1  0.24127815  0.49121984  0.12388827  1
  O  O217  1  0.24478421  0.49494918  0.63008508  1
  O  O218  1  0.24338434  0.99400418  0.12858832  1
  O  O219  1  0.24890320  0.98764191  0.62531209  1
  O  O220  1  0.74312873  0.50154675  0.13435438  1
  O  O221  1  0.74552101  0.49447129  0.63115433  1
  O  O222  1  0.73629316  0.99727509  0.12629782  1
  O  O223  1  0.74287658  0.99361494  0.62565542  1
  O  O224  1  -0.00056491  0.36783905  0.25720782  1
  O  O225  1  0.00899440  0.37321317  0.75237350  1
  O  O226  1  0.00718934  0.87358578  0.25668923  1
  O  O227  1  0.00428716  0.86932659  0.75520908  1
  O  O228  1  0.50334703  0.36663722  0.25673882  1
  O  O229  1  0.50589272  0.36991956  0.75487542  1
  O  O230  1  0.50749246  0.87009236  0.25428113  1
  O  O231  1  0.50736781  0.87371694  0.75662191  1
  O  O232  1  0.50035925  0.13717067  0.24975706  1
  O  O233  1  0.49924783  0.13232405  0.74214786  1
  O  O234  1  0.49336384  0.63213466  0.24881714  1
  O  O235  1  0.48774610  0.62350716  0.75022861  1
  O  O236  1  0.99241189  0.13007624  0.24399506  1
  O  O237  1  0.99291385  0.12716145  0.74351594  1
  O  O238  1  0.99253183  0.62510717  0.24392120  1
  O  O239  1  0.99402569  0.63088858  0.74460932  1
  O  O240  1  0.36698434  0.25267777  0.00193948  1
  O  O241  1  0.36834672  0.25255937  0.50608424  1
  O  O242  1  0.36761455  0.74963765  0.00546415  1
  O  O243  1  0.36805912  0.75767983  0.50062182  1
  O  O244  1  0.86961506  0.25381550  0.00472003  1
  O  O245  1  0.86907796  0.25557758  0.50683056  1
  O  O246  1  0.87040647  0.75548271  0.00445895  1
  O  O247  1  0.87037910  0.75644236  0.50673992  1
  O  O248  1  0.13034317  0.24457177  0.49480362  1
  O  O249  1  0.13039736  0.24345563  0.99469679  1
  O  O250  1  0.13267041  0.74882013  0.49277279  1
  O  O251  1  0.13061983  0.74718469  0.99314301  1
  O  O252  1  0.62952847  0.24583596  0.49635092  1
  O  O253  1  0.62942394  0.24512865  0.99473988  1
  O  O254  1  0.63435326  0.74811432  0.49728396  1
  O  O255  1  0.63156356  0.74949581  0.99351864  1
  O  O256  1  0.50189503  0.25121093  0.13609330  1
  O  O257  1  0.49531277  0.24605208  0.62910358  1
  O  O258  1  0.49264059  0.74859431  0.13006447  1
  O  O259  1  0.49625688  0.74541044  0.62907856  1
  O  O260  1  0.99469629  0.24399001  0.12935838  1
  O  O261  1  0.99216571  0.24366124  0.62605859  1
  O  O262  1  0.99372461  0.74215915  0.12592099  1
  O  O263  1  0.99511374  0.74601291  0.63048621  1
  O  O264  1  0.00525354  0.25569370  0.37113540  1
  O  O265  1  0.00935659  0.25225982  0.87313302  1
  O  O266  1  0.00700421  0.75651463  0.37430548  1
  O  O267  1  0.00409894  0.75497306  0.86970235  1
  O  O268  1  0.50560507  0.25579120  0.36913800  1
  O  O269  1  0.50530492  0.25434784  0.86974621  1
  O  O270  1  0.50236110  0.75715413  0.36707494  1
  O  O271  1  0.50669523  0.75599624  0.87373555  1
  O  O272  1  0.24362727  0.13070393  0.49438238  1
  O  O273  1  0.24328146  0.12932712  0.99468824  1
  O  O274  1  0.24955483  0.63232413  0.49306518  1
  O  O275  1  0.24768717  0.63011112  0.99261820  1
  O  O276  1  0.74308047  0.13322011  0.50144850  1
  O  O277  1  0.74414998  0.13093008  0.99448070  1
  O  O278  1  0.75196148  0.63002305  0.49139877  1
  O  O279  1  0.74919803  0.63198409  0.99223112  1
  O  O280  1  0.25041895  0.36843654  0.00949735  1
  O  O281  1  0.25046311  0.36825936  0.50683328  1
  O  O282  1  0.25039638  0.86678630  0.00695061  1
  O  O283  1  0.25465517  0.87113100  0.50668327  1
  O  O284  1  0.75647589  0.36792270  0.00088933  1
  O  O285  1  0.75504250  0.37060582  0.50646815  1
  O  O286  1  0.75792458  0.86821510  0.00108518  1
  O  O287  1  0.75583284  0.87003671  0.50528342  1
  O  O288  1  0.12604182  0.49682275  0.23715559  1
  O  O289  1  0.13098746  0.49521289  0.74484530  1
  O  O290  1  0.12943529  0.99446702  0.24318660  1
  O  O291  1  0.12735878  0.99068284  0.74780080  1
  O  O292  1  0.63402924  0.50050667  0.24294503  1
  O  O293  1  0.63041875  0.49399297  0.74598060  1
  O  O294  1  0.62285628  0.99166518  0.24151855  1
  O  O295  1  0.62639419  0.99392974  0.74279831  1
  O  O296  1  0.36576917  0.00111300  0.25158176  1
  O  O297  1  0.37432539  0.00121729  0.76274909  1
  O  O298  1  0.37490444  0.50671165  0.25660715  1
  O  O299  1  0.36906895  0.50653872  0.75538439  1
  O  O300  1  0.87472730  0.01140715  0.24828233  1
  O  O301  1  0.87325356  0.00699268  0.75788205  1
  O  O302  1  0.86472837  0.50641663  0.25044714  1
  O  O303  1  0.86917800  0.50557398  0.75476661  1
  O  O304  1  0.11803743  0.36834778  0.37429610  1
  O  O305  1  0.12548415  0.36876562  0.86879391  1
  O  O306  1  0.12022804  0.86954338  0.36983358  1
  O  O307  1  0.11897577  0.86876454  0.86992092  1
  O  O308  1  0.61849349  0.36830832  0.37396810  1
  O  O309  1  0.61981170  0.36907292  0.86943717  1
  O  O310  1  0.61909285  0.87496929  0.36410243  1
  O  O311  1  0.62055281  0.87074472  0.86938426  1
  O  O312  1  0.37950297  0.12918963  0.12908467  1
  O  O313  1  0.38169194  0.13143715  0.62506479  1
  O  O314  1  0.37531876  0.63073745  0.13168884  1
  O  O315  1  0.37453440  0.62494312  0.63730711  1
  O  O316  1  0.88051585  0.12999537  0.13131902  1
  O  O317  1  0.87925515  0.13091503  0.63070281  1
  O  O318  1  0.88006009  0.62979723  0.13015927  1
  O  O319  1  0.88036746  0.63148454  0.63138592  1
  O  O320  1  0.24745985  0.25900305  0.11944416  1
  O  O321  1  0.25494348  0.25497213  0.61921647  1
  O  O322  1  0.25386910  0.75416904  0.11998881  1
  O  O323  1  0.25151357  0.76097639  0.61878865  1
  O  O324  1  0.75555564  0.25123983  0.11812219  1
  O  O325  1  0.75443124  0.25668946  0.62029083  1
  O  O326  1  0.75735530  0.75045457  0.11778160  1
  O  O327  1  0.75675788  0.75582723  0.62017068  1
  O  O328  1  0.24414389  0.24576499  0.37974276  1
  O  O329  1  0.24498227  0.24376586  0.88062575  1
  O  O330  1  0.24491800  0.74541018  0.37977239  1
  O  O331  1  0.24401196  0.74459573  0.88004574  1
  O  O332  1  0.74359384  0.24878465  0.38292685  1
  O  O333  1  0.74330636  0.24447290  0.88086612  1
  O  O334  1  0.74991419  0.74081284  0.38073670  1
  O  O335  1  0.74549799  0.74535901  0.88020265  1
  O  O336  1  0.00514870  0.11919297  0.00522554  1
  O  O337  1  0.00423060  0.12099828  0.50538780  1
  O  O338  1  0.00071186  0.61692175  0.00750077  1
  O  O339  1  0.00030569  0.61905384  0.50736411  1
  O  O340  1  0.50799746  0.11768803  0.00013286  1
  O  O341  1  0.50564179  0.12047707  0.50504732  1
  O  O342  1  0.50252675  0.61166632  0.00071176  1
  O  O343  1  0.50176759  0.61321482  0.49890620  1
  O  O344  1  0.49921278  0.38689720  0.49406660  1
  O  O345  1  0.50015657  0.38434059  0.99365966  1
  O  O346  1  0.49572888  0.88034218  0.49468494  1
  O  O347  1  0.49807789  0.88198975  0.99167576  1
  O  O348  1  0.99469353  0.38010914  0.49637514  1
  O  O349  1  0.99222287  0.38145894  0.99831065  1
  O  O350  1  0.99516257  0.88020957  0.49566772  1
  O  O351  1  0.99517237  0.88020426  0.99400367  1
  O  O352  1  0.49686784  0.49640731  0.38182511  1
  O  O353  1  0.49645469  0.49392836  0.88236067  1
  O  O354  1  0.49952706  0.99356743  0.38172049  1
  O  O355  1  0.49298442  0.99486841  0.87927325  1
  O  O356  1  0.99873222  0.49394060  0.38193863  1
  O  O357  1  0.99232644  0.49973012  0.88166028  1
  O  O358  1  0.99810591  0.99280596  0.38210257  1
  O  O359  1  0.99463290  0.99467911  0.88097524  1
  O  O360  1  0.00625836  0.00520515  0.11856172  1
  O  O361  1  0.00121501  0.00774120  0.61791670  1
  O  O362  1  0.00670141  0.50333264  0.12050047  1
  O  O363  1  0.00531559  0.50602937  0.62077696  1
  O  O364  1  0.51046950  -0.00104429  0.11875911  1
  O  O365  1  0.50535619  0.00557798  0.61885708  1
  O  O366  1  0.50796073  0.49922962  0.11739550  1
  O  O367  1  0.50516960  0.50020596  0.61553542  1
  O  O368  1  0.24677158  0.37613356  0.23915725  1
  O  O369  1  0.24490910  0.38099460  0.74419909  1
  O  O370  1  0.24331057  0.88024080  0.24398509  1
  O  O371  1  0.24489246  0.87442789  0.74069974  1
  O  O372  1  0.75031717  0.38744517  0.25034385  1
  O  O373  1  0.74432523  0.38063542  0.74539174  1
  O  O374  1  0.73813012  0.87548819  0.24811646  1
  O  O375  1  0.74419729  0.87744782  0.74282261  1
  O  O376  1  0.24781904  0.11838476  0.25625616  1
  O  O377  1  0.25251513  0.12128565  0.75808841  1
  O  O378  1  0.25734854  0.62249233  0.25710418  1
  O  O379  1  0.25703101  0.61929350  0.75537673  1
  O  O380  1  0.76204412  0.12494361  0.25010787  1
  O  O381  1  0.75611223  0.12409093  0.75731928  1
  O  O382  1  0.75467273  0.61795545  0.25761598  1
  O  O383  1  0.75650894  0.61986047  0.75507378  1
  O  O384  1  0.36498671  0.12291280  0.37167345  1
  O  O385  1  0.36941686  0.11453137  0.87414117  1
  O  O386  1  0.36944358  0.62035079  0.36873504  1
  O  O387  1  0.36892074  0.61801519  0.86700884  1
  O  O388  1  0.87561483  0.12519528  0.36265633  1
  O  O389  1  0.86986991  0.12042957  0.87121942  1
  O  O390  1  0.86463795  0.62365717  0.36944030  1
  O  O391  1  0.86944511  0.61985734  0.86900700  1
  O  O392  1  0.13244317  0.38273674  0.12553567  1
  O  O393  1  0.13090727  0.38076318  0.63084110  1
  O  O394  1  0.12929809  0.87988633  0.12980765  1
  O  O395  1  0.13466134  0.87546135  0.63032052  1
  O  O396  1  0.62996581  0.38889947  0.12784527  1
  O  O397  1  0.63076672  0.38062679  0.63119184  1
  O  O398  1  0.62469059  0.88286375  0.13357406  1
  O  O399  1  0.63051083  0.88073238  0.62974719  1
  O  O400  1  0.11632566  0.25010156  0.25705535  1
  O  O401  1  0.12522760  0.25695734  0.75661254  1
  O  O402  1  0.12392489  0.75681087  0.25644398  1
  O  O403  1  0.11895679  0.75544108  0.75578984  1
  O  O404  1  0.61781320  0.25156708  0.25647022  1
  O  O405  1  0.61952977  0.25573519  0.75551453  1
  O  O406  1  0.61934041  0.75987973  0.24838589  1
  O  O407  1  0.62525615  0.75746244  0.75732588  1
  O  O408  1  0.38827433  0.24943248  0.24915907  1
  O  O409  1  0.38210459  0.24834328  0.74275765  1
  O  O410  1  0.37974566  0.74504490  0.24380592  1
  O  O411  1  0.37533571  0.73711089  0.75064857  1
  O  O412  1  0.87991095  0.24216848  0.24425619  1
  O  O413  1  0.87513245  0.24417199  0.74410261  1
  O  O414  1  0.87628585  0.74343257  0.24251711  1
  O  O415  1  0.88040007  0.74543287  0.74508726  1
  O  O416  1  0.38490243  0.49948509  0.49377957  1
  O  O417  1  0.38460447  0.49777424  0.99419798  1
  O  O418  1  0.38268206  0.99334563  0.49743323  1
  O  O419  1  0.38071320  0.99795409  0.98895264  1
  O  O420  1  0.88183120  0.49248511  0.50039693  1
  O  O421  1  0.87835040  0.49462696  0.99528492  1
  O  O422  1  0.88199319  0.99351037  0.49955981  1
  O  O423  1  0.88086180  0.99532881  0.99572176  1
  O  O424  1  0.11932751  0.00474972  0.00447976  1
  O  O425  1  0.11761803  0.00771921  0.50205570  1
  O  O426  1  0.11843779  0.50025448  0.01061856  1
  O  O427  1  0.11798484  0.50211361  0.50798964  1
  O  O428  1  0.62050073  0.00381832  0.00706738  1
  O  O429  1  0.61917544  0.00554836  0.50590632  1
  O  O430  1  0.61813107  0.50093369  0.00746468  1
  O  O431  1  0.61661144  0.50149918  0.50586364  1
  O  O432  1  0.36261113  0.37369905  0.12322977  1
  O  O433  1  0.36762169  0.36889532  0.62349080  1
  O  O434  1  0.36709126  0.86734334  0.12290051  1
  O  O435  1  0.36599005  0.87429624  0.61926795  1
  O  O436  1  0.87299352  0.36766703  0.11830266  1
  O  O437  1  0.86906600  0.37005004  0.62122424  1
  O  O438  1  0.87514749  0.86891258  0.11830359  1
  O  O439  1  0.87029846  0.87014098  0.62019142  1
  O  O440  1  0.12902574  0.13154189  0.38122614  1
  O  O441  1  0.13024930  0.12901506  0.88075507  1
  O  O442  1  0.13181048  0.63132933  0.37580896  1
  O  O443  1  0.13108236  0.63102848  0.87502617  1
  O  O444  1  0.62604606  0.13257216  0.38335583  1
  O  O445  1  0.62971893  0.12998580  0.88017205  1
  O  O446  1  0.63893316  0.62726710  0.37571230  1
  O  O447  1  0.63244798  0.63170676  0.87500084  1
