# generated using pymatgen
data_V3Zn3O8
_symmetry_space_group_name_H-M   'P 1'
_cell_length_a   17.08944293
_cell_length_b   17.09014363
_cell_length_c   17.09121848
_cell_angle_alpha   90.00767961
_cell_angle_beta   90.00342771
_cell_angle_gamma   90.00249321
_symmetry_Int_Tables_number   1
_chemical_formula_structural   V3Zn3O8
_chemical_formula_sum   'V96 Zn96 O256'
_cell_volume   4991.67888635
_cell_formula_units_Z   32
loop_
 _symmetry_equiv_pos_site_id
 _symmetry_equiv_pos_as_xyz
  1  'x, y, z'
loop_
 _atom_site_type_symbol
 _atom_site_label
 _atom_site_symmetry_multiplicity
 _atom_site_fract_x
 _atom_site_fract_y
 _atom_site_fract_z
 _atom_site_occupancy
  V  V0  1  0.24905510  0.87477740  0.62388226  1
  V  V1  1  0.50113334  0.62447702  0.12455971  1
  V  V2  1  0.87480654  0.87465573  -0.00025045  1
  V  V3  1  0.37423732  0.12493334  0.75035043  1
  V  V4  1  0.37435623  0.37504569  0.50089870  1
  V  V5  1  0.49951642  0.12554998  0.12647364  1
  V  V6  1  0.37430580  0.62466964  0.75018155  1
  V  V7  1  0.00193701  0.74991674  0.24956613  1
  V  V8  1  0.75040887  0.75125763  -0.00060987  1
  V  V9  1  0.75031861  -0.00048645  0.24949283  1
  V  V10  1  0.12599349  0.50018259  0.12482567  1
  V  V11  1  0.37393851  0.87526128  0.50002255  1
  V  V12  1  0.87484043  0.12438507  0.74954814  1
  V  V13  1  0.37456126  0.75118533  0.12376769  1
  V  V14  1  0.50388101  0.37403248  0.37425035  1
  V  V15  1  0.12470792  0.37412304  0.25094838  1
  V  V16  1  -0.00143680  0.62526840  0.62456210  1
  V  V17  1  0.25004253  0.75053678  0.50020432  1
  V  V18  1  0.49954267  0.50006434  0.50121945  1
  V  V19  1  0.24915445  0.12534714  0.37510527  1
  V  V20  1  0.87674629  -0.00166234  0.37440070  1
  V  V21  1  0.12398471  0.87453747  0.74977285  1
  V  V22  1  0.87359250  0.74867192  0.62456966  1
  V  V23  1  0.87463543  -0.00053366  0.87365044  1
  V  V24  1  0.12289611  0.37397994  0.75076502  1
  V  V25  1  0.12581423  0.12479066  -0.00126560  1
  V  V26  1  0.62471555  0.62497949  0.00127099  1
  V  V27  1  -0.00049011  0.37364099  0.37471403  1
  V  V28  1  0.00201154  0.62574932  0.12580455  1
  V  V29  1  0.62485845  0.49948349  0.62643731  1
  V  V30  1  0.50078397  0.50000533  0.00110384  1
  V  V31  1  0.74910783  0.12579324  0.37697538  1
  V  V32  1  0.25031818  0.00158902  0.24993753  1
  V  V33  1  0.50015206  0.12496414  0.62426092  1
  V  V34  1  0.25058378  0.49938284  0.25014473  1
  V  V35  1  0.00036326  -0.00093478  -0.00057483  1
  V  V36  1  0.37546177  0.62537654  0.24983636  1
  V  V37  1  0.87409503  0.37503206  0.50119510  1
  V  V38  1  0.25171832  0.87488219  0.12376246  1
  V  V39  1  0.24939326  0.24919460  -0.00075273  1
  V  V40  1  0.50040376  0.00094905  0.50036281  1
  V  V41  1  0.24949895  0.62490078  0.87420887  1
  V  V42  1  0.74881923  -0.00147056  0.74828984  1
  V  V43  1  0.50112761  0.24990279  0.25055442  1
  V  V44  1  0.62448027  0.00004923  0.62452100  1
  V  V45  1  0.12349727  0.00024713  0.62461543  1
  V  V46  1  0.74915227  0.37500756  0.62527023  1
  V  V47  1  0.49975937  0.75059434  0.24965692  1
  V  V48  1  0.12412650  0.50006320  0.62490691  1
  V  V49  1  0.12507763  0.62481752  0.49976505  1
  V  V50  1  0.75094893  0.62464186  0.87579397  1
  V  V51  1  0.49975252  0.74920939  0.75027519  1
  V  V52  1  0.75090577  0.25165997  0.00207700  1
  V  V53  1  0.37493013  0.25047572  0.62597352  1
  V  V54  1  0.49976593  0.87646517  0.37492536  1
  V  V55  1  0.49917065  0.62519597  0.62635906  1
  V  V56  1  -0.00062612  0.12433585  0.62437853  1
  V  V57  1  0.87291303  0.25051315  0.62558444  1
  V  V58  1  0.12521761  0.74981833  0.87439343  1
  V  V59  1  0.37546841  0.00016096  0.87426764  1
  V  V60  1  0.87409487  0.62302470  0.25111902  1
  V  V61  1  0.62544217  0.24996176  0.87642979  1
  V  V62  1  0.75022593  0.87522082  0.12333473  1
  V  V63  1  0.12723536  0.62536182  -0.00064739  1
  V  V64  1  0.87589861  0.24927188  0.12592737  1
  V  V65  1  0.00090292  0.87378267  0.87429090  1
  V  V66  1  0.25092407  0.37489434  0.12483851  1
  V  V67  1  0.37534114  0.37515140  0.00062165  1
  V  V68  1  0.49961629  -0.00014313  -0.00099371  1
  V  V69  1  0.49985200  0.25060548  0.75056817  1
  V  V70  1  -0.00102040  0.49902832  0.50008680  1
  V  V71  1  0.24874900  0.24964840  0.49973568  1
  V  V72  1  0.12565407  -0.00054698  0.12442145  1
  V  V73  1  0.37435599  0.00136354  0.37448133  1
  V  V74  1  -0.00044529  0.25068820  0.75112475  1
  V  V75  1  0.37488711  0.50004500  0.37561952  1
  V  V76  1  0.25029492  0.00036208  0.75013653  1
  V  V77  1  0.62441808  0.62666170  0.49967211  1
  V  V78  1  0.62536311  0.37560903  0.75040717  1
  V  V79  1  0.24918852  0.37495605  0.62548823  1
  V  V80  1  0.87559859  0.50011908  0.87634160  1
  V  V81  1  0.00086787  0.49966789  -0.00041500  1
  V  V82  1  0.12426628  0.12495863  0.50039784  1
  V  V83  1  0.49971313  0.37549752  0.87693395  1
  V  V84  1  0.25031597  0.62462644  0.37528657  1
  V  V85  1  0.62463127  0.75007376  0.87391936  1
  V  V86  1  0.62482664  0.12547194  -0.00003019  1
  V  V87  1  0.62483648  0.00003349  0.12413944  1
  V  V88  1  0.62491379  0.87461786  0.24957280  1
  V  V89  1  0.62498370  0.74929547  0.37620211  1
  V  V90  1  0.12535218  0.87457215  0.24983992  1
  V  V91  1  0.24939361  0.50009550  0.75023662  1
  V  V92  1  0.12551388  0.75037983  0.37400603  1
  V  V93  1  0.87435633  0.87371415  0.49939735  1
  V  V94  1  0.50000117  0.87495689  0.87391690  1
  V  V95  1  -0.00043134  0.12437447  0.12497727  1
  Zn  Zn96  1  0.75154571  0.37908829  0.13090424  1
  Zn  Zn97  1  0.00095920  0.24777185  0.25009453  1
  Zn  Zn98  1  0.74760253  0.24999014  0.50002305  1
  Zn  Zn99  1  0.74983415  0.12516489  0.87486142  1
  Zn  Zn100  1  0.75089906  0.50083501  0.75139794  1
  Zn  Zn101  1  0.87620333  0.75061530  0.12539902  1
  Zn  Zn102  1  0.37478410  0.75033676  0.62523906  1
  Zn  Zn103  1  0.00046419  -0.00040825  0.49898366  1
  Zn  Zn104  1  -0.00101095  0.74852003  0.74977718  1
  Zn  Zn105  1  0.12446745  0.24840960  0.37355799  1
  Zn  Zn106  1  0.25230061  0.75111583  -0.00137122  1
  Zn  Zn107  1  0.12265476  0.24958884  0.87440345  1
  Zn  Zn108  1  0.37450894  0.50006559  0.87535586  1
  Zn  Zn109  1  0.00117655  0.87515917  0.37427068  1
  Zn  Zn110  1  -0.00018362  0.37321935  0.87700676  1
  Zn  Zn111  1  0.24852682  0.12497948  0.87411958  1
  Zn  Zn112  1  0.62778595  0.24992176  0.37644365  1
  Zn  Zn113  1  0.87452675  0.62523320  0.74996806  1
  Zn  Zn114  1  0.37557050  0.24884566  0.12622724  1
  Zn  Zn115  1  0.74725567  0.87258774  0.62364475  1
  Zn  Zn116  1  0.87077882  0.49980479  0.37468959  1
  Zn  Zn117  1  0.74645576  0.49907398  0.25149001  1
  Zn  Zn118  1  0.87691992  0.12427512  0.25056938  1
  Zn  Zn119  1  0.62973152  0.49790345  0.12698813  1
  Zn  Zn120  1  0.87714160  0.37540844  0.00162574  1
  Zn  Zn121  1  0.74817198  0.74886029  0.49897151  1
  Zn  Zn122  1  0.37384533  0.12624617  0.24940833  1
  Zn  Zn123  1  0.62949634  0.37776778  0.24791118  1
  Zn  Zn124  1  0.62459582  0.87341111  0.74770420  1
  Zn  Zn125  1  0.62472790  0.12725716  0.49972959  1
  Zn  Zn126  1  0.37432514  0.87439849  -0.00123117  1
  Zn  Zn127  1  0.75086239  0.62494546  0.37569579  1
  Zn  Zn128  1  0.18591171  0.18833168  0.18714082  1
  Zn  Zn129  1  0.18648530  0.18745715  0.68738187  1
  Zn  Zn130  1  0.18926020  0.68789833  0.18672687  1
  Zn  Zn131  1  0.18660620  0.68843758  0.68762855  1
  Zn  Zn132  1  0.68730754  0.18798745  0.19039056  1
  Zn  Zn133  1  0.68694770  0.18682203  0.68744766  1
  Zn  Zn134  1  0.68878971  0.68794393  0.18669540  1
  Zn  Zn135  1  0.68885023  0.68541166  0.68856758  1
  Zn  Zn136  1  0.31430932  0.31116966  0.31288987  1
  Zn  Zn137  1  0.31185987  0.31351136  0.81447333  1
  Zn  Zn138  1  0.31218922  0.81371280  0.31185398  1
  Zn  Zn139  1  0.31304926  0.81219753  0.81202534  1
  Zn  Zn140  1  0.81416852  0.31221722  0.31120410  1
  Zn  Zn141  1  0.81222063  0.31426188  0.81404762  1
  Zn  Zn142  1  0.81169365  0.80918869  0.31169355  1
  Zn  Zn143  1  0.81255928  0.81228160  0.81103043  1
  Zn  Zn144  1  0.18604423  0.43675160  0.43727369  1
  Zn  Zn145  1  0.18653437  0.43682799  0.93561235  1
  Zn  Zn146  1  0.18699809  0.93851536  0.43700371  1
  Zn  Zn147  1  0.18947643  0.93663985  0.93708876  1
  Zn  Zn148  1  0.69046746  0.44236520  0.43750566  1
  Zn  Zn149  1  0.68780551  0.43758158  0.94084694  1
  Zn  Zn150  1  0.68806879  0.93764506  0.43859527  1
  Zn  Zn151  1  0.68641924  0.93704246  0.93493737  1
  Zn  Zn152  1  0.31467760  0.06344880  0.06264781  1
  Zn  Zn153  1  0.31212198  0.06257216  0.56257629  1
  Zn  Zn154  1  0.31399553  0.56257530  0.06139167  1
  Zn  Zn155  1  0.31271977  0.56267294  0.56379556  1
  Zn  Zn156  1  0.81252068  0.06387620  0.06131981  1
  Zn  Zn157  1  0.81237648  0.06152523  0.56153614  1
  Zn  Zn158  1  0.81347876  0.56331822  0.06523041  1
  Zn  Zn159  1  0.80982924  0.56187850  0.56062816  1
  Zn  Zn160  1  0.43854684  0.43754161  0.18660328  1
  Zn  Zn161  1  0.43725870  0.43795580  0.68939221  1
  Zn  Zn162  1  0.43641318  0.93849841  0.18708400  1
  Zn  Zn163  1  0.43731840  0.93627683  0.68754206  1
  Zn  Zn164  1  0.93707356  0.43686245  0.18684594  1
  Zn  Zn165  1  0.93635234  0.43798179  0.68952370  1
  Zn  Zn166  1  0.93818041  0.93604177  0.18724729  1
  Zn  Zn167  1  0.93751225  0.93606732  0.68653711  1
  Zn  Zn168  1  0.06255253  0.06337799  0.31139653  1
  Zn  Zn169  1  0.06267570  0.06323427  0.81283031  1
  Zn  Zn170  1  0.06113466  0.56103689  0.31271077  1
  Zn  Zn171  1  0.06058812  0.56360330  0.81111254  1
  Zn  Zn172  1  0.56361336  0.06316887  0.31194161  1
  Zn  Zn173  1  0.56281170  0.06346410  0.81208005  1
  Zn  Zn174  1  0.56413133  0.56209029  0.31183372  1
  Zn  Zn175  1  0.56249014  0.56218640  0.81439384  1
  Zn  Zn176  1  0.43576801  0.18748273  0.43765608  1
  Zn  Zn177  1  0.43646665  0.18723817  0.93807332  1
  Zn  Zn178  1  0.43802829  0.68869677  0.43807668  1
  Zn  Zn179  1  0.43631687  0.68719754  0.93721752  1
  Zn  Zn180  1  0.93580685  0.18830088  0.43939343  1
  Zn  Zn181  1  0.93752944  0.18604350  0.93654890  1
  Zn  Zn182  1  0.93868376  0.68813283  0.43603168  1
  Zn  Zn183  1  0.93839935  0.68712260  0.93863278  1
  Zn  Zn184  1  0.06258804  0.31305145  0.06217788  1
  Zn  Zn185  1  0.06123707  0.31078406  0.56327822  1
  Zn  Zn186  1  0.06441962  0.81142072  0.06180358  1
  Zn  Zn187  1  0.05971287  0.81248318  0.56106614  1
  Zn  Zn188  1  0.56497046  0.31427955  0.06589477  1
  Zn  Zn189  1  0.56496903  0.31065878  0.56068976  1
  Zn  Zn190  1  0.56177523  0.81243437  0.06080320  1
  Zn  Zn191  1  0.56140683  0.81322894  0.56389441  1
  O  O192  1  0.11974594  0.11816757  0.11852458  1
  O  O193  1  0.11930625  0.11924512  0.62005026  1
  O  O194  1  0.12234367  0.61874102  0.12027935  1
  O  O195  1  0.12007631  0.61973231  0.61845718  1
  O  O196  1  0.61987644  0.11869278  0.12008577  1
  O  O197  1  0.61715377  0.11785745  0.62450396  1
  O  O198  1  0.61705472  0.62807965  0.11746635  1
  O  O199  1  0.61799452  0.61921591  0.62036179  1
  O  O200  1  0.38255348  0.38069346  0.38138236  1
  O  O201  1  0.38206457  0.37644215  0.88196914  1
  O  O202  1  0.37993245  0.88133393  0.38009695  1
  O  O203  1  0.38196897  0.88233047  0.87504346  1
  O  O204  1  0.88576935  0.37569223  0.38170872  1
  O  O205  1  0.87660176  0.38717111  0.87894272  1
  O  O206  1  0.87440063  0.88231087  0.38145704  1
  O  O207  1  0.88074955  0.88003617  0.88002512  1
  O  O208  1  0.25479233  0.00563556  0.36970189  1
  O  O209  1  0.25693916  0.00099437  0.86728182  1
  O  O210  1  0.25531965  0.50484289  0.37044050  1
  O  O211  1  0.25030312  0.50669000  0.86711302  1
  O  O212  1  0.75846416  0.00479576  0.36990982  1
  O  O213  1  0.75535350  0.00104882  0.86527673  1
  O  O214  1  0.75417569  0.50747512  0.37082677  1
  O  O215  1  0.75943286  0.50603161  0.87849781  1
  O  O216  1  0.24564819  0.49516671  0.13103024  1
  O  O217  1  0.24359703  0.49440589  0.62964040  1
  O  O218  1  0.24478624  0.99570525  0.13006791  1
  O  O219  1  0.24376703  0.99448929  0.63017237  1
  O  O220  1  0.74945875  0.49818137  0.12949266  1
  O  O221  1  0.74207908  0.49313061  0.62728230  1
  O  O222  1  0.74432543  0.99512249  0.12895356  1
  O  O223  1  0.74434346  0.99967615  0.63366081  1
  O  O224  1  0.00587493  0.37525835  0.25971375  1
  O  O225  1  0.00608018  0.36814357  0.74971619  1
  O  O226  1  0.00829798  0.86850690  0.25028767  1
  O  O227  1  0.00667156  0.87414549  0.75679208  1
  O  O228  1  0.49751014  0.36748188  0.26019221  1
  O  O229  1  0.50496293  0.36917237  0.75596349  1
  O  O230  1  0.50555042  0.87069086  0.25508778  1
  O  O231  1  0.50081370  0.86767725  0.75613563  1
  O  O232  1  0.49952918  0.13349275  0.24584093  1
  O  O233  1  0.49400203  0.13152335  0.74427007  1
  O  O234  1  0.49330952  0.63169275  0.24535124  1
  O  O235  1  0.49452890  0.62922828  0.74584109  1
  O  O236  1  0.99837190  0.12660252  0.24056201  1
  O  O237  1  0.99409434  0.12964615  0.74367366  1
  O  O238  1  0.99628599  0.63045527  0.24503756  1
  O  O239  1  0.99675325  0.62768137  0.73958755  1
  O  O240  1  0.36525439  0.25556770  0.00169962  1
  O  O241  1  0.36895409  0.25580705  0.50685065  1
  O  O242  1  0.37340453  0.75250777  0.00833084  1
  O  O243  1  0.36790883  0.75707187  0.50056922  1
  O  O244  1  0.86675043  0.24747986  0.00741182  1
  O  O245  1  0.87261420  0.25733518  0.50890791  1
  O  O246  1  0.86873717  0.75749500  0.00095670  1
  O  O247  1  0.87446911  0.75730735  0.50647892  1
  O  O248  1  0.13194203  0.24317448  0.50026903  1
  O  O249  1  0.13449574  0.24431885  1.00043570  1
  O  O250  1  0.13037746  0.74441931  0.49414807  1
  O  O251  1  0.12770177  0.74279711  0.99265097  1
  O  O252  1  0.62911022  0.24524794  0.49468551  1
  O  O253  1  0.63230693  0.24449466  0.99613267  1
  O  O254  1  0.62267376  0.74481530  0.49386535  1
  O  O255  1  0.63030445  0.74535635  0.99312816  1
  O  O256  1  0.49998844  0.24431539  0.13491134  1
  O  O257  1  0.49392581  0.24602889  0.63095289  1
  O  O258  1  0.49489719  0.74539230  0.13101089  1
  O  O259  1  0.49786492  0.74276895  0.63186480  1
  O  O260  1  0.99122624  0.24266289  0.12188232  1
  O  O261  1  0.99269459  0.24409583  0.63137482  1
  O  O262  1  1.00180232  0.74346105  0.13166999  1
  O  O263  1  0.99007579  0.74361746  0.62371596  1
  O  O264  1  0.00106236  0.26184136  0.37465625  1
  O  O265  1  0.00066454  0.25174530  0.86659834  1
  O  O266  1  0.00929156  0.75171900  0.36795824  1
  O  O267  1  0.00671051  0.75641748  0.87385321  1
  O  O268  1  0.49800570  0.25866951  0.36881588  1
  O  O269  1  0.50545206  0.25556036  0.87033228  1
  O  O270  1  0.50374313  0.75745850  0.36884266  1
  O  O271  1  0.50530123  0.75434771  0.86979045  1
  O  O272  1  0.24451222  0.13018737  0.49560727  1
  O  O273  1  0.24489668  0.13412630  1.00052183  1
  O  O274  1  0.24494516  0.62954727  0.49469851  1
  O  O275  1  0.24396836  0.62531087  0.99278280  1
  O  O276  1  0.74960334  0.12429341  0.48874305  1
  O  O277  1  0.74332856  0.13409794  0.99812215  1
  O  O278  1  0.73852524  0.62778619  0.49848083  1
  O  O279  1  0.74479086  0.63266680  0.99524584  1
  O  O280  1  0.25368337  0.36806196  0.00508228  1
  O  O281  1  0.25481985  0.37066670  0.50580819  1
  O  O282  1  0.25292433  0.87307309  0.00854358  1
  O  O283  1  0.25419774  0.87013360  0.50432170  1
  O  O284  1  0.75192267  0.35979336  0.00190919  1
  O  O285  1  0.75666284  0.37473034  0.50715986  1
  O  O286  1  0.75490002  0.87123377  0.00361923  1
  O  O287  1  0.76244389  0.87287608  0.50167084  1
  O  O288  1  0.13181087  0.49496039  0.24482076  1
  O  O289  1  0.12957972  0.49485644  0.74304030  1
  O  O290  1  0.13066004  0.99447030  0.24383676  1
  O  O291  1  0.13034582  0.99455044  0.74430311  1
  O  O292  1  0.62564943  0.49783719  0.24570260  1
  O  O293  1  0.62484628  0.49283230  0.74434281  1
  O  O294  1  0.63002870  0.99335829  0.24366197  1
  O  O295  1  0.63354240  1.00032366  0.74407678  1
  O  O296  1  0.36803150  0.00124154  0.25732330  1
  O  O297  1  0.36996031  0.00574941  0.75391813  1
  O  O298  1  0.36998573  0.50569624  0.25593925  1
  O  O299  1  0.36718245  0.50598282  0.75122041  1
  O  O300  1  0.86902425  -0.00193732  0.25909427  1
  O  O301  1  0.86744674  0.00391974  0.75316335  1
  O  O302  1  0.87960711  0.51404860  0.25095532  1
  O  O303  1  0.87333674  0.50244487  0.76277064  1
  O  O304  1  0.11621037  0.37384062  0.37046629  1
  O  O305  1  0.12191509  0.37258055  0.86527548  1
  O  O306  1  0.12541836  0.86875589  0.36784560  1
  O  O307  1  0.12004656  0.87043596  0.86955229  1
  O  O308  1  0.60987747  0.37588412  0.37739613  1
  O  O309  1  0.61953694  0.36912074  0.87089388  1
  O  O310  1  0.61889339  0.87099400  0.36925205  1
  O  O311  1  0.61799684  0.86782579  0.87214155  1
  O  O312  1  0.38423219  0.12718243  0.12843274  1
  O  O313  1  0.38006397  0.13094332  0.63054132  1
  O  O314  1  0.38025196  0.63062160  0.13137564  1
  O  O315  1  0.38133683  0.62595606  0.63161356  1
  O  O316  1  0.88172109  0.13131481  0.12491464  1
  O  O317  1  0.87949057  0.12972190  0.63020502  1
  O  O318  1  0.88497953  0.62902712  0.13310230  1
  O  O319  1  0.87982611  0.63377516  0.62240626  1
  O  O320  1  0.25072632  0.25599406  0.11478816  1
  O  O321  1  0.25583602  0.25577314  0.62003375  1
  O  O322  1  0.25708038  0.75669504  0.12483540  1
  O  O323  1  0.25033567  0.75677652  0.61756714  1
  O  O324  1  0.75964503  0.24531363  0.11702400  1
  O  O325  1  0.75594737  0.25665583  0.62558565  1
  O  O326  1  0.75083577  0.75868076  0.11685780  1
  O  O327  1  0.76075537  0.75120025  0.62255053  1
  O  O328  1  0.24939623  0.24423811  0.38249594  1
  O  O329  1  0.24793102  0.24875517  0.88797054  1
  O  O330  1  0.24535481  0.74386131  0.37985378  1
  O  O331  1  0.24294725  0.74323596  0.87496924  1
  O  O332  1  0.75200183  0.23662865  0.37520566  1
  O  O333  1  0.74466339  0.24797817  0.88439752  1
  O  O334  1  0.73927107  0.74741483  0.37690132  1
  O  O335  1  0.74507592  0.74569520  0.88002805  1
  O  O336  1  0.00548470  0.11755023  0.00497204  1
  O  O337  1  0.00576110  0.12380556  0.50707935  1
  O  O338  1  0.00788860  0.61968559  0.00611592  1
  O  O339  1  0.00664300  0.61923260  0.50428366  1
  O  O340  1  0.50586168  0.12023176  0.00590593  1
  O  O341  1  0.49875693  0.11809067  0.50686114  1
  O  O342  1  0.50498879  0.62028995  0.00474630  1
  O  O343  1  0.50313819  0.61901704  0.50617280  1
  O  O344  1  0.49341750  0.37973787  0.49371687  1
  O  O345  1  0.49506393  0.37897670  0.99575423  1
  O  O346  1  0.49345693  0.88119182  0.49413570  1
  O  O347  1  0.49927864  0.88260106  0.99239872  1
  O  O348  1  0.99562280  0.37914322  0.49406424  1
  O  O349  1  0.99963137  0.38488787  0.99789413  1
  O  O350  1  0.98786930  0.87735612  0.49575134  1
  O  O351  1  0.99555594  0.88047707  0.99470352  1
  O  O352  1  0.49330273  0.49255355  0.38115091  1
  O  O353  1  0.49862852  0.49275453  0.88266746  1
  O  O354  1  0.49479797  0.99519238  0.37962362  1
  O  O355  1  0.49551706  0.99536208  0.87892675  1
  O  O356  1  1.00051180  0.48872131  0.38199536  1
  O  O357  1  0.99134488  0.50175194  0.88156588  1
  O  O358  1  0.98789842  0.99830465  0.37510884  1
  O  O359  1  0.99457729  0.99361501  0.88004354  1
  O  O360  1  0.00586161  0.00363876  0.11850700  1
  O  O361  1  0.00584246  0.00678567  0.62402744  1
  O  O362  1  0.00749497  0.50566000  0.11964445  1
  O  O363  1  0.00517418  0.50478279  0.61928126  1
  O  O364  1  0.50631328  0.00466896  0.11983601  1
  O  O365  1  0.50433820  0.00545704  0.62043021  1
  O  O366  1  0.49934598  0.50844601  0.11786861  1
  O  O367  1  0.50470358  0.50447686  0.62021610  1
  O  O368  1  0.24632446  0.38057835  0.24583517  1
  O  O369  1  0.24449032  0.37960878  0.74389265  1
  O  O370  1  0.24449850  0.88162118  0.24438299  1
  O  O371  1  0.24410314  0.88068088  0.74367721  1
  O  O372  1  0.74794858  0.37779384  0.24994317  1
  O  O373  1  0.74212750  0.37673548  0.74420093  1
  O  O374  1  0.74401296  0.87956661  0.24360991  1
  O  O375  1  0.74901728  0.88801230  0.74754196  1
  O  O376  1  0.24969704  0.11903309  0.25617232  1
  O  O377  1  0.25657192  0.11866253  0.74978054  1
  O  O378  1  0.25580682  0.61892809  0.25599162  1
  O  O379  1  0.25365191  0.61924269  0.75374218  1
  O  O380  1  0.75226889  0.11685632  0.25903949  1
  O  O381  1  0.75568624  0.11457294  0.75095634  1
  O  O382  1  0.76436723  0.62870717  0.24989516  1
  O  O383  1  0.75279990  0.62133756  0.76032316  1
  O  O384  1  0.36711331  0.11810558  0.37443440  1
  O  O385  1  0.37411984  0.11848743  0.86734204  1
  O  O386  1  0.37013437  0.61968115  0.37008984  1
  O  O387  1  0.36779206  0.62306324  0.86772588  1
  O  O388  1  0.86836002  0.11428844  0.37494262  1
  O  O389  1  0.87378781  0.11638259  0.86727553  1
  O  O390  1  0.87684818  0.62426495  0.36411213  1
  O  O391  1  0.86957308  0.61685372  0.87611530  1
  O  O392  1  0.13117994  0.38158184  0.13077819  1
  O  O393  1  0.13014707  0.38069191  0.62962645  1
  O  O394  1  0.13111967  0.88074121  0.13011061  1
  O  O395  1  0.12912039  0.88004254  0.62905428  1
  O  O396  1  0.63087421  0.37819029  0.12858867  1
  O  O397  1  0.62861571  0.37996939  0.63068823  1
  O  O398  1  0.62989704  0.88052140  0.12966017  1
  O  O399  1  0.62684173  0.88413260  0.62755380  1
  O  O400  1  0.12193787  0.25882234  0.25198327  1
  O  O401  1  0.11784609  0.25599120  0.74903922  1
  O  O402  1  0.12233517  0.75470453  0.25514483  1
  O  O403  1  0.12284927  0.75734018  0.75589937  1
  O  O404  1  0.61198462  0.25176444  0.25546152  1
  O  O405  1  0.61884280  0.25518826  0.75585245  1
  O  O406  1  0.61838232  0.75574662  0.25509541  1
  O  O407  1  0.61831636  0.74992037  0.75659925  1
  O  O408  1  0.38709856  0.24795633  0.24848624  1
  O  O409  1  0.37993710  0.24596642  0.74506981  1
  O  O410  1  0.38033837  0.74486360  0.24544311  1
  O  O411  1  0.38133511  0.74250118  0.74792682  1
  O  O412  1  0.87862190  0.24555451  0.23729843  1
  O  O413  1  0.87894052  0.24441778  0.74521075  1
  O  O414  1  0.88388325  0.74272983  0.24813043  1
  O  O415  1  0.87715601  0.74959761  0.73737147  1
  O  O416  1  0.37942179  0.49464004  0.49551757  1
  O  O417  1  0.38177606  0.49312627  0.99795071  1
  O  O418  1  0.37969591  0.99449024  0.49439521  1
  O  O419  1  0.38276322  0.99952235  0.99259958  1
  O  O420  1  0.88267787  0.49287203  0.50007422  1
  O  O421  1  0.88263848  0.50093804  0.99215165  1
  O  O422  1  0.87551034  0.99098706  0.49117592  1
  O  O423  1  0.88020468  0.99456362  0.99375709  1
  O  O424  1  0.11981283  0.00401187  0.00515922  1
  O  O425  1  0.12350351  0.00630516  0.50673128  1
  O  O426  1  0.12140284  0.50578073  0.00571161  1
  O  O427  1  0.12023073  0.50534080  0.50586328  1
  O  O428  1  0.61998324  0.00535627  0.00457641  1
  O  O429  1  0.61771445  0.00123181  0.50687615  1
  O  O430  1  0.61797611  0.50838739  0.00089033  1
  O  O431  1  0.61710174  0.50570015  0.50681793  1
  O  O432  1  0.36798947  0.37337946  0.11858951  1
  O  O433  1  0.36939230  0.37013690  0.62048718  1
  O  O434  1  0.36930308  0.86900976  0.12462900  1
  O  O435  1  0.36707340  0.87452597  0.61766683  1
  O  O436  1  0.87540396  0.36143720  0.12185996  1
  O  O437  1  0.86918615  0.37023515  0.62137872  1
  O  O438  1  0.86831303  0.87469525  0.11737166  1
  O  O439  1  0.87511726  0.86648364  0.61580525  1
  O  O440  1  0.13097545  0.12570529  0.38208251  1
  O  O441  1  0.12769232  0.12705235  0.88339695  1
  O  O442  1  0.13135636  0.62923653  0.38013078  1
  O  O443  1  0.12982452  0.62990379  0.87926567  1
  O  O444  1  0.63774072  0.12254732  0.37662428  1
  O  O445  1  0.62537396  0.13250569  0.88173988  1
  O  O446  1  0.62022847  0.63350837  0.38301642  1
  O  O447  1  0.63040157  0.63085918  0.88175678  1
