# generated using pymatgen
data_V3Zn3O8
_symmetry_space_group_name_H-M   'P 1'
_cell_length_a   17.08941518
_cell_length_b   17.08895716
_cell_length_c   17.08910241
_cell_angle_alpha   89.99174700
_cell_angle_beta   89.98917922
_cell_angle_gamma   89.99711045
_symmetry_Int_Tables_number   1
_chemical_formula_structural   V3Zn3O8
_chemical_formula_sum   'V96 Zn96 O256'
_cell_volume   4990.70617020
_cell_formula_units_Z   32
loop_
 _symmetry_equiv_pos_site_id
 _symmetry_equiv_pos_as_xyz
  1  'x, y, z'
loop_
 _atom_site_type_symbol
 _atom_site_label
 _atom_site_symmetry_multiplicity
 _atom_site_fract_x
 _atom_site_fract_y
 _atom_site_fract_z
 _atom_site_occupancy
  V  V0  1  0.50236930  0.75127257  0.24853123  1
  V  V1  1  0.49949607  0.49992060  0.00031125  1
  V  V2  1  0.50029055  0.37645435  0.37585844  1
  V  V3  1  0.75240964  0.37373159  0.12569138  1
  V  V4  1  0.24917923  0.12421276  0.87484358  1
  V  V5  1  0.75059707  0.50035712  0.24995837  1
  V  V6  1  0.62480289  0.49886552  0.12431239  1
  V  V7  1  0.12313184  0.49986749  0.12409108  1
  V  V8  1  0.62472451  0.62586820  0.49855205  1
  V  V9  1  0.12426915  -0.00061806  0.62493392  1
  V  V10  1  0.62502463  0.24888343  0.87667472  1
  V  V11  1  -0.00033117  0.62492147  0.62431614  1
  V  V12  1  0.25032177  0.37395966  0.62513582  1
  V  V13  1  0.12359243  0.74890699  0.87402382  1
  V  V14  1  0.50018981  0.25052015  0.24991095  1
  V  V15  1  0.50174149  0.00234185  0.00192782  1
  V  V16  1  0.12460855  0.24893282  0.87663199  1
  V  V17  1  0.37299122  0.49904419  0.87571744  1
  V  V18  1  0.87433342  0.74992814  0.62454354  1
  V  V19  1  0.62360147  0.50170430  0.62454188  1
  V  V20  1  0.12484460  0.37478401  0.74987941  1
  V  V21  1  0.62366977  0.74971187  0.87518649  1
  V  V22  1  0.37425671  0.74952277  0.12333866  1
  V  V23  1  0.37660904  0.00004798  0.37486164  1
  V  V24  1  0.37473213  0.62428258  0.24947731  1
  V  V25  1  0.75267179  0.12643744  0.37676798  1
  V  V26  1  0.49997360  0.12485923  0.62591445  1
  V  V27  1  0.74903942  0.37601694  0.62549981  1
  V  V28  1  0.00117621  0.12435629  0.62522044  1
  V  V29  1  0.75051383  0.25080131  0.50156195  1
  V  V30  1  0.24804896  0.74960364  -0.00139360  1
  V  V31  1  0.25133410  -0.00145363  0.24905557  1
  V  V32  1  0.75006017  0.00093705  0.24931461  1
  V  V33  1  -0.00050110  0.24973980  0.75097662  1
  V  V34  1  0.87353675  0.62530763  0.74959095  1
  V  V35  1  0.24992034  0.24826767  0.00052266  1
  V  V36  1  0.87423343  0.00010334  0.87587364  1
  V  V37  1  -0.00181768  0.37548438  0.87561636  1
  V  V38  1  0.87451801  0.49861378  0.87548325  1
  V  V39  1  0.50063226  0.50122658  0.49943664  1
  V  V40  1  0.37445728  0.12437108  0.74920807  1
  V  V41  1  0.62318895  0.37590654  0.75076168  1
  V  V42  1  0.87459460  0.12519883  0.75062590  1
  V  V43  1  0.12782308  0.25066886  0.37517164  1
  V  V44  1  0.24923065  0.87518279  0.12456973  1
  V  V45  1  0.62589633  0.37551977  0.25071541  1
  V  V46  1  0.74925336  0.75076793  0.00033876  1
  V  V47  1  0.62580192  0.25169134  0.37621161  1
  V  V48  1  0.87447139  0.62544613  0.24914829  1
  V  V49  1  0.12564113  0.62500380  0.49921535  1
  V  V50  1  0.74981603  0.87545183  0.62472926  1
  V  V51  1  0.62587744  0.12541496  0.50198103  1
  V  V52  1  0.74861889  0.62486281  0.87460879  1
  V  V53  1  0.24834378  0.62419688  0.87519654  1
  V  V54  1  0.87328126  0.87502039  0.00034561  1
  V  V55  1  0.74966694  0.62642645  0.37440354  1
  V  V56  1  0.87495270  0.25025584  0.62599752  1
  V  V57  1  0.87571638  0.37643533  0.50067498  1
  V  V58  1  -0.00042776  0.50004196  0.49985567  1
  V  V59  1  0.74961822  -0.00053622  0.74994754  1
  V  V60  1  0.62342879  0.62440944  -0.00026055  1
  V  V61  1  0.49816309  0.74987071  0.74880133  1
  V  V62  1  0.12384779  0.87373017  0.74908043  1
  V  V63  1  0.12410834  0.49919296  0.62479698  1
  V  V64  1  0.62479744  0.87512194  0.74915387  1
  V  V65  1  0.49858057  0.87448037  0.87426528  1
  V  V66  1  0.12745545  0.74966079  0.37514729  1
  V  V67  1  0.74936962  0.75059659  0.49805183  1
  V  V68  1  0.37387506  0.87415038  -0.00210369  1
  V  V69  1  0.87623259  0.25202266  0.12684828  1
  V  V70  1  0.49925969  0.37413930  0.87439772  1
  V  V71  1  0.87696828  0.12615294  0.25279644  1
  V  V72  1  -0.00078239  0.74986299  0.75010177  1
  V  V73  1  0.25276309  0.12375456  0.37615034  1
  V  V74  1  -0.00023184  0.75101018  0.24887761  1
  V  V75  1  0.37605559  0.24857707  0.12606147  1
  V  V76  1  0.74891637  0.12603377  0.87614513  1
  V  V77  1  0.00017960  0.00050598  0.00115617  1
  V  V78  1  0.87548579  0.87563020  0.49978688  1
  V  V79  1  0.87391871  0.75046532  0.12387751  1
  V  V80  1  0.24954775  0.49987407  0.24954272  1
  V  V81  1  0.37375137  0.37387518  -0.00026127  1
  V  V82  1  -0.00056161  0.62495243  0.12383239  1
  V  V83  1  0.50175195  0.87505076  0.37377654  1
  V  V84  1  0.87624013  0.50077338  0.37579758  1
  V  V85  1  0.37433688  0.62477996  0.74817159  1
  V  V86  1  0.00353269  0.24989470  0.25185235  1
  V  V87  1  0.12665612  0.12433207  0.50127061  1
  V  V88  1  0.00205563  0.12491042  0.12632928  1
  V  V89  1  -0.00004451  0.87684672  0.37558472  1
  V  V90  1  0.50144648  -0.00016993  0.49920628  1
  V  V91  1  0.37586462  0.87326736  0.50041804  1
  V  V92  1  0.74833337  0.50101921  0.75022177  1
  V  V93  1  0.37524665  0.37527242  0.50051488  1
  V  V94  1  0.37347755  -0.00063477  0.87452901  1
  V  V95  1  0.25040853  0.87265860  0.62353933  1
  Zn  Zn96  1  0.49890599  0.25062975  0.74984173  1
  Zn  Zn97  1  0.12545355  -0.00101649  0.12481870  1
  Zn  Zn98  1  0.62626543  0.00211375  0.12506173  1
  Zn  Zn99  1  -0.00085793  0.87436721  0.87462946  1
  Zn  Zn100  1  -0.00057114  0.00083808  0.49966271  1
  Zn  Zn101  1  0.12484585  0.87478824  0.24804948  1
  Zn  Zn102  1  0.62644340  -0.00070062  0.62455518  1
  Zn  Zn103  1  0.50416115  0.12469918  0.12753126  1
  Zn  Zn104  1  0.24868157  0.49904805  0.75187859  1
  Zn  Zn105  1  0.37485120  0.24991356  0.62582803  1
  Zn  Zn106  1  0.74741411  0.87641835  0.12631945  1
  Zn  Zn107  1  0.12593716  0.12388634  0.00171371  1
  Zn  Zn108  1  0.12221707  0.62436411  -0.00176763  1
  Zn  Zn109  1  0.87677573  0.00207186  0.37706179  1
  Zn  Zn110  1  0.12578329  0.37517608  0.25101720  1
  Zn  Zn111  1  0.25267606  0.24852882  0.49999842  1
  Zn  Zn112  1  0.62643606  0.75247380  0.37286029  1
  Zn  Zn113  1  0.00290436  0.37598527  0.37561011  1
  Zn  Zn114  1  -0.00184881  0.49975068  -0.00067818  1
  Zn  Zn115  1  0.25364759  0.74646664  0.49861456  1
  Zn  Zn116  1  0.62613643  0.87813573  0.24850563  1
  Zn  Zn117  1  0.49982034  0.62388752  0.12389676  1
  Zn  Zn118  1  0.62693889  0.12496404  0.00311627  1
  Zn  Zn119  1  0.75182370  0.24941954  0.00244915  1
  Zn  Zn120  1  0.37585905  0.74811544  0.62164691  1
  Zn  Zn121  1  0.24702657  0.37233804  0.12528129  1
  Zn  Zn122  1  0.25076634  0.62443978  0.37676744  1
  Zn  Zn123  1  0.87516126  0.37456818  0.00083261  1
  Zn  Zn124  1  0.49872156  0.62725168  0.62239380  1
  Zn  Zn125  1  0.37387240  0.50071989  0.37451270  1
  Zn  Zn126  1  0.24751213  -0.00114362  0.75091035  1
  Zn  Zn127  1  0.37876582  0.12507163  0.25108665  1
  Zn  Zn128  1  0.18878517  0.18283571  0.18780712  1
  Zn  Zn129  1  0.18762795  0.18868811  0.68830353  1
  Zn  Zn130  1  0.18641836  0.68665484  0.18694808  1
  Zn  Zn131  1  0.18769748  0.68771948  0.68706825  1
  Zn  Zn132  1  0.68729446  0.18581020  0.18721160  1
  Zn  Zn133  1  0.68643413  0.18804003  0.68987144  1
  Zn  Zn134  1  0.68696233  0.68612552  0.18482393  1
  Zn  Zn135  1  0.68575492  0.68861656  0.68592867  1
  Zn  Zn136  1  0.31236444  0.31429175  0.31207274  1
  Zn  Zn137  1  0.31172832  0.30985971  0.81231067  1
  Zn  Zn138  1  0.31463234  0.81324844  0.31265998  1
  Zn  Zn139  1  0.31042585  0.81079401  0.81087441  1
  Zn  Zn140  1  0.81489437  0.31342921  0.31350146  1
  Zn  Zn141  1  0.81075794  0.31318725  0.81274896  1
  Zn  Zn142  1  0.81360798  0.81432743  0.31212378  1
  Zn  Zn143  1  0.81226007  0.81352371  0.81371128  1
  Zn  Zn144  1  0.18887388  0.43833645  0.43718589  1
  Zn  Zn145  1  0.18689671  0.43619909  0.93917577  1
  Zn  Zn146  1  0.18787204  0.93769415  0.43869648  1
  Zn  Zn147  1  0.18559683  0.93641244  0.93572497  1
  Zn  Zn148  1  0.68831407  0.43933916  0.43775342  1
  Zn  Zn149  1  0.68897593  0.43517344  0.93954702  1
  Zn  Zn150  1  0.68693092  0.93853686  0.43448495  1
  Zn  Zn151  1  0.68665093  0.93696626  0.93697580  1
  Zn  Zn152  1  0.31492322  0.06349842  0.06245005  1
  Zn  Zn153  1  0.31243063  0.05864291  0.56229773  1
  Zn  Zn154  1  0.31014692  0.56322500  0.06253697  1
  Zn  Zn155  1  0.31064328  0.56027878  0.56257898  1
  Zn  Zn156  1  0.81391531  0.06650084  0.06426062  1
  Zn  Zn157  1  0.81435504  0.06101825  0.56288888  1
  Zn  Zn158  1  0.81249995  0.56141718  0.06092981  1
  Zn  Zn159  1  0.81087838  0.56344382  0.56185886  1
  Zn  Zn160  1  0.43738212  0.43514872  0.18594935  1
  Zn  Zn161  1  0.43798014  0.44020119  0.68736670  1
  Zn  Zn162  1  0.43594980  0.93574978  0.18577563  1
  Zn  Zn163  1  0.43669366  0.93827837  0.68655609  1
  Zn  Zn164  1  0.94030596  0.43563460  0.19083495  1
  Zn  Zn165  1  0.93731132  0.43776574  0.68878518  1
  Zn  Zn166  1  0.93423553  0.93778772  0.18758700  1
  Zn  Zn167  1  0.93775801  0.93752313  0.68748729  1
  Zn  Zn168  1  0.06651199  0.06260838  0.31269521  1
  Zn  Zn169  1  0.06254146  0.06137229  0.81310622  1
  Zn  Zn170  1  0.06195670  0.56446973  0.31145900  1
  Zn  Zn171  1  0.06160707  0.56148426  0.81145402  1
  Zn  Zn172  1  0.56453890  0.06536279  0.31321014  1
  Zn  Zn173  1  0.56245056  0.06117434  0.81342172  1
  Zn  Zn174  1  0.56214663  0.56332273  0.31281443  1
  Zn  Zn175  1  0.55964903  0.56257393  0.81305079  1
  Zn  Zn176  1  0.43826371  0.18882610  0.43831795  1
  Zn  Zn177  1  0.43720060  0.18658955  0.93716618  1
  Zn  Zn178  1  0.43838267  0.68836800  0.43456446  1
  Zn  Zn179  1  0.43638463  0.68646106  0.93577940  1
  Zn  Zn180  1  0.94053492  0.18858534  0.43917538  1
  Zn  Zn181  1  0.93615037  0.18828022  0.94018192  1
  Zn  Zn182  1  0.93807047  0.68838872  0.43692780  1
  Zn  Zn183  1  0.93746375  0.68620419  0.93802933  1
  Zn  Zn184  1  0.06170381  0.31434912  0.06197822  1
  Zn  Zn185  1  0.06293815  0.31104764  0.56083155  1
  Zn  Zn186  1  0.06288732  0.81409064  0.06155619  1
  Zn  Zn187  1  0.06301261  0.81169218  0.56123503  1
  Zn  Zn188  1  0.56256962  0.31349659  0.06192498  1
  Zn  Zn189  1  0.56148874  0.31236872  0.56361498  1
  Zn  Zn190  1  0.56422768  0.81658571  0.06551240  1
  Zn  Zn191  1  0.56263932  0.81092149  0.56306100  1
  O  O192  1  0.11771553  0.11990054  0.12252444  1
  O  O193  1  0.12107972  0.12023509  0.62167891  1
  O  O194  1  0.11813039  0.61640708  0.12434418  1
  O  O195  1  0.11922568  0.61951923  0.62001509  1
  O  O196  1  0.62098508  0.12157393  0.12004715  1
  O  O197  1  0.61667252  0.12395556  0.62106910  1
  O  O198  1  0.62306886  0.61665554  0.11732911  1
  O  O199  1  0.62396563  0.61884565  0.61753881  1
  O  O200  1  0.38080264  0.37689036  0.38465421  1
  O  O201  1  0.37917327  0.37882977  0.87946245  1
  O  O202  1  0.38185664  0.88054492  0.38060555  1
  O  O203  1  0.37890218  0.87899590  0.87835906  1
  O  O204  1  0.87644271  0.38275967  0.38344915  1
  O  O205  1  0.88028117  0.38123195  0.87293434  1
  O  O206  1  0.88640069  0.87410545  0.38109231  1
  O  O207  1  0.87595946  0.88216408  0.88131299  1
  O  O208  1  0.25647720  0.00270299  0.36807448  1
  O  O209  1  0.25589766  0.00546301  0.87330262  1
  O  O210  1  0.25075893  0.50315100  0.36239273  1
  O  O211  1  0.25540694  0.50483480  0.87411233  1
  O  O212  1  0.75323410  0.00873579  0.36782046  1
  O  O213  1  0.75489084  0.00538117  0.86930835  1
  O  O214  1  0.75625730  0.50628094  0.36952025  1
  O  O215  1  0.75297721  0.50539592  0.86869305  1
  O  O216  1  0.24068399  0.50049069  0.13325074  1
  O  O217  1  0.24318022  0.48803744  0.62682932  1
  O  O218  1  0.25293087  0.99461336  0.13328827  1
  O  O219  1  0.24362501  0.98814785  0.62658564  1
  O  O220  1  0.74481338  0.49505901  0.13157301  1
  O  O221  1  0.74390799  0.49552187  0.63040313  1
  O  O222  1  0.75233491  1.00207338  0.13822159  1
  O  O223  1  0.74998636  0.99330368  0.63229750  1
  O  O224  1  0.00512915  0.36628589  0.25659933  1
  O  O225  1  0.00512421  0.36847554  0.75417647  1
  O  O226  1  0.00044009  0.86950015  0.25911294  1
  O  O227  1  0.00540207  0.86694998  0.74994530  1
  O  O228  1  0.50638626  0.37092519  0.25630554  1
  O  O229  1  0.50511190  0.37402126  0.75609609  1
  O  O230  1  0.49792013  0.86515910  0.25449378  1
  O  O231  1  0.50395031  0.87074989  0.75498333  1
  O  O232  1  0.49775996  0.13480315  0.24981291  1
  O  O233  1  0.49163503  0.12336522  0.74232014  1
  O  O234  1  0.49135367  0.63250011  0.24761676  1
  O  O235  1  0.48930198  0.62994157  0.75055575  1
  O  O236  1  0.99704798  0.12957354  0.24658022  1
  O  O237  1  0.99400363  0.13058618  0.74529601  1
  O  O238  1  0.99288239  0.63171996  0.24430687  1
  O  O239  1  0.99311985  0.62992760  0.74293225  1
  O  O240  1  0.37073592  0.25434433  0.00653621  1
  O  O241  1  0.37498222  0.26330061  0.50282813  1
  O  O242  1  0.36898058  0.75469179  0.00308146  1
  O  O243  1  0.37343418  0.75703146  0.50082617  1
  O  O244  1  0.87340753  0.25266428  0.01105476  1
  O  O245  1  0.87008675  0.25604615  0.50691877  1
  O  O246  1  0.86877686  0.75461301  0.00390300  1
  O  O247  1  0.86936349  0.75481699  0.50569347  1
  O  O248  1  0.12780999  0.24363044  0.49114479  1
  O  O249  1  0.13145577  0.24828823  0.99389616  1
  O  O250  1  0.12480010  0.74333610  0.48989845  1
  O  O251  1  0.13074777  0.74863379  0.99251525  1
  O  O252  1  0.63111463  0.24617219  0.49590417  1
  O  O253  1  0.62610587  0.25045276  0.98652444  1
  O  O254  1  0.63192963  0.74392979  0.49750698  1
  O  O255  1  0.62848836  0.74505160  0.99420935  1
  O  O256  1  0.49148881  0.25190221  0.13059644  1
  O  O257  1  0.49847402  0.23697815  0.62710246  1
  O  O258  1  0.49279256  0.74916966  0.13277383  1
  O  O259  1  0.49665951  0.74743662  0.63332364  1
  O  O260  1  0.99734292  0.24490637  0.13247239  1
  O  O261  1  0.99483116  0.24493845  0.63138167  1
  O  O262  1  0.99426154  0.74558482  0.12974062  1
  O  O263  1  0.99388602  0.74395060  0.62941339  1
  O  O264  1  0.01307311  0.24920573  0.37096699  1
  O  O265  1  0.00421024  0.25417989  0.86933808  1
  O  O266  1  0.00708318  0.75723563  0.36960683  1
  O  O267  1  0.00470498  0.74995861  0.86754835  1
  O  O268  1  0.50670712  0.25702402  0.37134836  1
  O  O269  1  0.50816559  0.25565003  0.87397255  1
  O  O270  1  0.50037741  0.75598073  0.36291171  1
  O  O271  1  0.50435939  0.75558252  0.86960135  1
  O  O272  1  0.24549817  0.12607132  0.49476225  1
  O  O273  1  0.24990271  0.13036875  0.99264241  1
  O  O274  1  0.24229945  0.62584344  0.49688150  1
  O  O275  1  0.24862234  0.63219649  0.99261331  1
  O  O276  1  0.74603738  0.13182803  0.49758836  1
  O  O277  1  0.74818162  0.12778716  0.99097258  1
  O  O278  1  0.74555671  0.63077240  0.49376735  1
  O  O279  1  0.74325981  0.63034563  0.99346860  1
  O  O280  1  0.25683275  0.36657392  0.00173119  1
  O  O281  1  0.25898123  0.37552790  0.50820226  1
  O  O282  1  0.25515949  0.86928743  0.00363887  1
  O  O283  1  0.25635934  0.87423679  0.50873840  1
  O  O284  1  0.75283876  0.37176248  0.01024021  1
  O  O285  1  0.75503868  0.37073815  0.50667156  1
  O  O286  1  0.75565513  0.86842304  0.00003436  1
  O  O287  1  0.75513803  0.87027641  0.50403137  1
  O  O288  1  0.13304477  0.50216722  0.24225545  1
  O  O289  1  0.12550607  0.49256701  0.74214704  1
  O  O290  1  0.14012553  0.99697278  0.24990900  1
  O  O291  1  0.12569286  0.99241551  0.74350184  1
  O  O292  1  0.63063797  0.49482790  0.24495396  1
  O  O293  1  0.62909255  0.49592018  0.74550789  1
  O  O294  1  0.63842730  1.00291360  0.25070771  1
  O  O295  1  0.63147018  0.99276169  0.74932001  1
  O  O296  1  0.36727660  0.00029566  0.25611952  1
  O  O297  1  0.37367905  0.00975812  0.75556991  1
  O  O298  1  0.36765762  0.50785999  0.24726362  1
  O  O299  1  0.37360645  0.50919895  0.75665801  1
  O  O300  1  0.86774793  0.00823777  0.25404828  1
  O  O301  1  0.86978630  0.00546951  0.75550771  1
  O  O302  1  0.87018481  0.50619663  0.25589395  1
  O  O303  1  0.86762453  0.50641512  0.75392926  1
  O  O304  1  0.12630087  0.36250280  0.37529032  1
  O  O305  1  0.11965285  0.36921715  0.86896888  1
  O  O306  1  0.11656348  0.86578507  0.37541155  1
  O  O307  1  0.12269039  0.86698514  0.86678432  1
  O  O308  1  0.62114249  0.37079074  0.37084477  1
  O  O309  1  0.61997561  0.36850231  0.86981633  1
  O  O310  1  0.61700264  0.87237277  0.36981233  1
  O  O311  1  0.61883138  0.86834381  0.86851048  1
  O  O312  1  0.37923342  0.13867093  0.12587458  1
  O  O313  1  0.38191701  0.12393908  0.63175348  1
  O  O314  1  0.37595867  0.63057413  0.13395680  1
  O  O315  1  0.37454880  0.62470265  0.63637095  1
  O  O316  1  0.88240543  0.13268180  0.13363660  1
  O  O317  1  0.88015587  0.13124697  0.63094834  1
  O  O318  1  0.87899234  0.63004701  0.13033952  1
  O  O319  1  0.87908938  0.63019075  0.62983405  1
  O  O320  1  0.25918291  0.24917756  0.12048660  1
  O  O321  1  0.25079131  0.26268996  0.62255767  1
  O  O322  1  0.25481102  0.75465183  0.11931651  1
  O  O323  1  0.25050817  0.76198057  0.62180604  1
  O  O324  1  0.75788061  0.25669045  0.12826089  1
  O  O325  1  0.75479207  0.25613468  0.62138122  1
  O  O326  1  0.75637060  0.74966886  0.11756883  1
  O  O327  1  0.75541736  0.75560491  0.61890489  1
  O  O328  1  0.24324902  0.24374507  0.37559097  1
  O  O329  1  0.24452327  0.24387749  0.88056113  1
  O  O330  1  0.23824975  0.74974354  0.37491688  1
  O  O331  1  0.24341094  0.74428609  0.87955436  1
  O  O332  1  0.74547821  0.24680954  0.38212157  1
  O  O333  1  0.74013007  0.24498059  0.87406014  1
  O  O334  1  0.75012577  0.74396532  0.37983701  1
  O  O335  1  0.74339016  0.74421755  0.87980734  1
  O  O336  1  -0.00116154  0.11487140  0.00668862  1
  O  O337  1  0.00769486  0.12442347  0.50822669  1
  O  O338  1  0.00124944  0.62141574  0.00845459  1
  O  O339  1  0.00435214  0.61988603  0.50596152  1
  O  O340  1  0.49984479  0.11182270  -0.00142018  1
  O  O341  1  0.50518317  0.12058007  0.50758574  1
  O  O342  1  0.50519569  0.61808457  0.00003587  1
  O  O343  1  0.50559297  0.61893436  0.49920609  1
  O  O344  1  0.49361389  0.38045632  0.49652136  1
  O  O345  1  0.49358321  0.38070514  0.99348267  1
  O  O346  1  0.49630510  0.88027481  0.49488039  1
  O  O347  1  0.49339563  0.88121136  0.99337784  1
  O  O348  1  0.99349567  0.38191497  0.49995465  1
  O  O349  1  0.99692998  0.37807890  0.99053832  1
  O  O350  1  0.99447549  0.87379344  0.49079983  1
  O  O351  1  0.99225010  0.88470490  0.99878808  1
  O  O352  1  0.49867533  0.49302577  0.38104170  1
  O  O353  1  0.49353133  0.49364106  0.88105290  1
  O  O354  1  0.49592114  0.99556389  0.37975001  1
  O  O355  1  0.49335515  0.99347894  0.88159192  1
  O  O356  1  0.99418209  0.50057941  0.38175472  1
  O  O357  1  0.99246650  0.49358363  0.87328780  1
  O  O358  1  1.00156839  0.98794746  0.37568775  1
  O  O359  1  0.99258973  0.99971166  0.88456170  1
  O  O360  1  -0.00133217  0.00517395  0.11651061  1
  O  O361  1  0.00613314  0.00691338  0.62425598  1
  O  O362  1  0.00873468  0.50593062  0.12769404  1
  O  O363  1  0.00412876  0.50567386  0.61992171  1
  O  O364  1  0.49722673  0.00048749  0.11258100  1
  O  O365  1  0.50142815  0.01007843  0.61880146  1
  O  O366  1  0.50683300  0.49912437  0.11796419  1
  O  O367  1  0.50690175  0.50252913  0.61767959  1
  O  O368  1  0.24936703  0.38781331  0.24709678  1
  O  O369  1  0.24457888  0.37491598  0.74130833  1
  O  O370  1  0.25177266  0.88375475  0.24422906  1
  O  O371  1  0.24363199  0.87512752  0.73990377  1
  O  O372  1  0.74501182  0.38143995  0.24678627  1
  O  O373  1  0.74332144  0.38170624  0.74414186  1
  O  O374  1  0.75126658  0.88821543  0.25056843  1
  O  O375  1  0.74472691  0.87939426  0.74498240  1
  O  O376  1  0.25508765  0.11395400  0.25654428  1
  O  O377  1  0.25921762  0.12340011  0.75422940  1
  O  O378  1  0.25919698  0.61750611  0.24960259  1
  O  O379  1  0.25862703  0.62340263  0.75514836  1
  O  O380  1  0.75711293  0.12069671  0.25787651  1
  O  O381  1  0.75574924  0.11968631  0.75523501  1
  O  O382  1  0.75509222  0.61968808  0.25435739  1
  O  O383  1  0.75368595  0.62066781  0.75494456  1
  O  O384  1  0.37041150  0.11800909  0.37610127  1
  O  O385  1  0.36993067  0.11994874  0.86658680  1
  O  O386  1  0.37280240  0.62326976  0.36097270  1
  O  O387  1  0.36880424  0.61940455  0.86681071  1
  O  O388  1  0.87037446  0.12658917  0.37108727  1
  O  O389  1  0.86935723  0.12073723  0.86899288  1
  O  O390  1  0.87001204  0.62050006  0.36922777  1
  O  O391  1  0.86793494  0.62016582  0.86827374  1
  O  O392  1  0.12639257  0.38634623  0.12886454  1
  O  O393  1  0.13163540  0.37880067  0.62888295  1
  O  O394  1  0.13355786  0.87770581  0.12808189  1
  O  O395  1  0.13161863  0.87855582  0.62841724  1
  O  O396  1  0.63114834  0.37964267  0.13164948  1
  O  O397  1  0.62948841  0.38092134  0.63025647  1
  O  O398  1  0.63003000  0.88279462  0.13049000  1
  O  O399  1  0.63205957  0.87593630  0.63141570  1
  O  O400  1  0.12326752  0.24839897  0.26070994  1
  O  O401  1  0.11871753  0.25519465  0.75610427  1
  O  O402  1  0.11884076  0.75049509  0.25915454  1
  O  O403  1  0.11818035  0.75386612  0.75389062  1
  O  O404  1  0.62084070  0.25676565  0.25715948  1
  O  O405  1  0.62297802  0.25697407  0.76003280  1
  O  O406  1  0.61225005  0.74857175  0.24903646  1
  O  O407  1  0.61918748  0.75487724  0.75582422  1
  O  O408  1  0.38098645  0.25143751  0.24159128  1
  O  O409  1  0.37748691  0.23680071  0.74864280  1
  O  O410  1  0.38166199  0.74286058  0.24437516  1
  O  O411  1  0.37933262  0.73934446  0.75000469  1
  O  O412  1  0.88314812  0.24506164  0.24747309  1
  O  O413  1  0.87940372  0.24491811  0.74475032  1
  O  O414  1  0.87978887  0.74436540  0.24407362  1
  O  O415  1  0.87835436  0.74446795  0.74426764  1
  O  O416  1  0.38037131  0.49019901  0.49862826  1
  O  O417  1  0.37879195  0.49456356  0.99549840  1
  O  O418  1  0.38232795  0.99323523  0.49412426  1
  O  O419  1  0.38159117  0.99341584  0.99354486  1
  O  O420  1  0.87959507  0.49625835  0.49590235  1
  O  O421  1  0.87587409  0.49712870  0.99060179  1
  O  O422  1  0.87896503  0.99195166  0.49726010  1
  O  O423  1  0.88178623  0.99581281  0.99579521  1
  O  O424  1  0.11174575  0.00043979  0.00017338  1
  O  O425  1  0.12302921  0.00650948  0.50677050  1
  O  O426  1  0.12347232  0.50203922  0.01235435  1
  O  O427  1  0.11909074  0.50485923  0.50505023  1
  O  O428  1  0.61224129  0.00017153  -0.00213775  1
  O  O429  1  0.61952687  0.00786348  0.50138208  1
  O  O430  1  0.61961593  0.50442878  0.00418319  1
  O  O431  1  0.62078278  0.50584032  0.50524375  1
  O  O432  1  0.37332443  0.36405366  0.11836316  1
  O  O433  1  0.36773836  0.37537146  0.61855442  1
  O  O434  1  0.36821329  0.86826408  0.11730779  1
  O  O435  1  0.36580061  0.87484590  0.62000248  1
  O  O436  1  0.86960478  0.36949524  0.12797503  1
  O  O437  1  0.86879807  0.37030397  0.62105958  1
  O  O438  1  0.87192285  0.86729752  0.11844176  1
  O  O439  1  0.86957512  0.86863226  0.62045991  1
  O  O440  1  0.13290253  0.13177856  0.38095083  1
  O  O441  1  0.13118984  0.13153018  0.87557767  1
  O  O442  1  0.12372902  0.63570255  0.37990959  1
  O  O443  1  0.13062625  0.63031739  0.87410660  1
  O  O444  1  0.63158916  0.13345609  0.38318332  1
  O  O445  1  0.62975761  0.13465461  0.87371312  1
  O  O446  1  0.63247997  0.62672074  0.38049029  1
  O  O447  1  0.62917304  0.63014446  0.87963945  1
