# generated using pymatgen
data_V3Zn3O8
_symmetry_space_group_name_H-M   'P 1'
_cell_length_a   17.09033490
_cell_length_b   17.08875033
_cell_length_c   17.08835996
_cell_angle_alpha   90.01246261
_cell_angle_beta   89.99243983
_cell_angle_gamma   90.01961814
_symmetry_Int_Tables_number   1
_chemical_formula_structural   V3Zn3O8
_chemical_formula_sum   'V96 Zn96 O256'
_cell_volume   4990.69721602
_cell_formula_units_Z   32
loop_
 _symmetry_equiv_pos_site_id
 _symmetry_equiv_pos_as_xyz
  1  'x, y, z'
loop_
 _atom_site_type_symbol
 _atom_site_label
 _atom_site_symmetry_multiplicity
 _atom_site_fract_x
 _atom_site_fract_y
 _atom_site_fract_z
 _atom_site_occupancy
  V  V0  1  0.50085121  0.62513020  0.12506975  1
  V  V1  1  0.25050408  0.12602701  0.37481118  1
  V  V2  1  0.24807078  0.62609130  0.87684779  1
  V  V3  1  0.62603788  0.62540465  0.49976402  1
  V  V4  1  0.00030410  0.74879875  0.25103116  1
  V  V5  1  0.75072635  0.37503033  0.62456202  1
  V  V6  1  0.87555837  0.25005860  0.62516963  1
  V  V7  1  0.37608160  0.74962665  0.62423774  1
  V  V8  1  0.49957992  0.12567963  0.62639153  1
  V  V9  1  -0.00140522  0.62405909  0.12507524  1
  V  V10  1  0.50017523  0.87577835  0.37425885  1
  V  V11  1  0.25021567  0.75009173  0.49892298  1
  V  V12  1  0.50224752  0.37426445  0.37361744  1
  V  V13  1  0.12530037  0.37463119  0.75036744  1
  V  V14  1  0.37430142  0.00110297  0.37427046  1
  V  V15  1  0.37499560  0.12642853  0.75023522  1
  V  V16  1  0.75052642  0.75015010  0.50068490  1
  V  V17  1  0.37433543  0.87628571  0.49886856  1
  V  V18  1  0.74902634  0.00003106  0.75112695  1
  V  V19  1  0.00057437  -0.00034967  0.50026474  1
  V  V20  1  0.62417084  0.75011957  0.87647997  1
  V  V21  1  0.12425667  0.87469905  0.75022293  1
  V  V22  1  0.75026251  0.87564697  0.12447923  1
  V  V23  1  0.87559147  0.00043878  0.37632565  1
  V  V24  1  0.12515653  0.74936121  0.37417805  1
  V  V25  1  0.25045282  0.37669654  0.12542845  1
  V  V26  1  0.87472051  0.37544123  -0.00109464  1
  V  V27  1  0.37303932  -0.00202582  0.87542973  1
  V  V28  1  0.62601552  0.24952725  0.37453624  1
  V  V29  1  0.00016200  0.25163240  0.25020313  1
  V  V30  1  0.87353017  0.50082477  0.87428858  1
  V  V31  1  0.87531271  0.24943349  0.12533907  1
  V  V32  1  0.00011165  0.12549388  0.62578199  1
  V  V33  1  0.00099393  0.87363032  0.37528693  1
  V  V34  1  0.37584706  0.37450228  0.50033469  1
  V  V35  1  0.87596197  0.37451169  0.50034550  1
  V  V36  1  0.75087436  0.62423089  0.37489075  1
  V  V37  1  0.25120294  0.37523270  0.62404538  1
  V  V38  1  0.12514321  0.00034105  0.62488781  1
  V  V39  1  0.49781829  0.87511536  0.87584098  1
  V  V40  1  0.12411028  0.25081413  0.87478927  1
  V  V41  1  0.00026659  0.49915451  0.49941000  1
  V  V42  1  0.87578450  0.12556396  0.74934418  1
  V  V43  1  0.75070531  0.24819455  -0.00074546  1
  V  V44  1  0.49957474  0.62635345  0.62460179  1
  V  V45  1  0.37731943  0.49986172  0.37438943  1
  V  V46  1  -0.00018419  0.12621011  0.12640271  1
  V  V47  1  0.12465789  -0.00130540  0.12572912  1
  V  V48  1  0.00007086  0.37528382  0.37521847  1
  V  V49  1  0.12469864  0.12595603  0.00070117  1
  V  V50  1  0.12586691  0.62439558  0.50007184  1
  V  V51  1  0.62618565  0.49981631  0.62511630  1
  V  V52  1  0.74929970  0.87526735  0.62548976  1
  V  V53  1  0.62540173  0.62607317  -0.00045725  1
  V  V54  1  0.24966804  0.25083907  0.00033167  1
  V  V55  1  0.25101934  0.50057401  0.75012317  1
  V  V56  1  0.12545283  0.25152261  0.37403463  1
  V  V57  1  0.00003148  0.50095968  0.00085308  1
  V  V58  1  0.37575198  0.37535441  -0.00220165  1
  V  V59  1  0.62334585  0.25033475  0.87327111  1
  V  V60  1  0.87569838  0.87491464  0.50141782  1
  V  V61  1  0.24861078  -0.00055949  0.24901284  1
  V  V62  1  0.37692852  0.24924258  0.12383667  1
  V  V63  1  -0.00139173  0.87563015  0.87659927  1
  V  V64  1  0.37639270  0.12671787  0.24796091  1
  V  V65  1  0.75132347  0.00202399  0.25250409  1
  V  V66  1  0.00073149  0.62476501  0.62553080  1
  V  V67  1  0.00005437  0.75014694  0.75073091  1
  V  V68  1  0.62475721  0.75101043  0.37528279  1
  V  V69  1  0.25159486  0.25086664  0.50037969  1
  V  V70  1  0.12585350  0.12528789  0.50014966  1
  V  V71  1  0.24994129  -0.00046822  0.75045814  1
  V  V72  1  0.87395833  0.75082815  0.12528133  1
  V  V73  1  0.62561460  0.12539691  0.50026585  1
  V  V74  1  0.62440824  0.00023509  0.62560693  1
  V  V75  1  0.37706209  0.62454790  0.24968851  1
  V  V76  1  0.75027160  0.12468733  0.87578231  1
  V  V77  1  0.62648558  0.49919971  0.12393497  1
  V  V78  1  0.37526646  0.49978167  0.87394795  1
  V  V79  1  0.62483399  0.87578911  0.25136468  1
  V  V80  1  0.74815580  0.37507969  0.12468023  1
  V  V81  1  0.25129731  0.49826617  0.24886464  1
  V  V82  1  0.50159587  0.50006016  0.49941426  1
  V  V83  1  0.49837180  0.00110131  0.00248490  1
  V  V84  1  0.75019291  0.50059903  0.74946077  1
  V  V85  1  0.50041170  0.49900391  -0.00248744  1
  V  V86  1  0.87508350  -0.00031490  0.87596347  1
  V  V87  1  0.24980076  0.87506488  0.62419553  1
  V  V88  1  0.12595195  0.49964490  0.62526649  1
  V  V89  1  0.49950243  0.00091216  0.49997149  1
  V  V90  1  0.25186946  0.62419092  0.37487189  1
  V  V91  1  0.87496665  0.75019711  0.62580059  1
  V  V92  1  0.62316838  0.87511828  0.75096039  1
  V  V93  1  0.87402737  0.62472182  0.75032583  1
  V  V94  1  0.87351188  0.62350994  0.25187305  1
  V  V95  1  0.37246657  0.75004202  0.12301987  1
  Zn  Zn96  1  0.62282039  0.00153593  0.12587661  1
  Zn  Zn97  1  0.12523491  0.49987641  0.12595663  1
  Zn  Zn98  1  0.75264154  0.12669643  0.37749202  1
  Zn  Zn99  1  0.50012827  0.75109474  0.24947985  1
  Zn  Zn100  1  0.12402157  0.62662720  0.00191041  1
  Zn  Zn101  1  0.12576516  0.87233245  0.24869675  1
  Zn  Zn102  1  0.37612773  0.62655398  0.74999768  1
  Zn  Zn103  1  0.50028227  0.25314841  0.74859502  1
  Zn  Zn104  1  0.87377365  0.49850243  0.37439334  1
  Zn  Zn105  1  0.75029713  0.75041148  0.00065485  1
  Zn  Zn106  1  0.87418099  0.87571902  0.00095192  1
  Zn  Zn107  1  0.24707265  0.87121650  0.12357783  1
  Zn  Zn108  1  0.74935609  0.62648200  0.87614770  1
  Zn  Zn109  1  0.62290525  0.37510321  0.74860574  1
  Zn  Zn110  1  -0.00004574  0.25194521  0.75047554  1
  Zn  Zn111  1  0.24906262  0.12325126  0.87598474  1
  Zn  Zn112  1  0.12501135  0.74979513  0.87816372  1
  Zn  Zn113  1  0.62532255  0.37411137  0.24841108  1
  Zn  Zn114  1  -0.00162060  0.00025756  0.00193066  1
  Zn  Zn115  1  0.50275977  0.24952346  0.24584152  1
  Zn  Zn116  1  0.50025430  0.37534953  0.87063850  1
  Zn  Zn117  1  0.87538692  0.12618278  0.25296717  1
  Zn  Zn118  1  0.24540608  0.75118911  0.00031639  1
  Zn  Zn119  1  -0.00084395  0.37598035  0.87353992  1
  Zn  Zn120  1  0.49782660  0.74971172  0.74945349  1
  Zn  Zn121  1  0.12459848  0.37730046  0.24873740  1
  Zn  Zn122  1  0.50275319  0.12560355  0.12541235  1
  Zn  Zn123  1  0.62515848  0.12345298  0.00292670  1
  Zn  Zn124  1  0.75156835  0.24876485  0.49954390  1
  Zn  Zn125  1  0.36991585  0.87420850  0.00076985  1
  Zn  Zn126  1  0.37735669  0.25177511  0.62636449  1
  Zn  Zn127  1  0.74935012  0.49794754  0.25185481  1
  Zn  Zn128  1  0.18798360  0.18878456  0.18754184  1
  Zn  Zn129  1  0.18950556  0.18871329  0.68794561  1
  Zn  Zn130  1  0.18614188  0.68229258  0.18728698  1
  Zn  Zn131  1  0.18817569  0.68793327  0.69001951  1
  Zn  Zn132  1  0.68629424  0.18547646  0.18643916  1
  Zn  Zn133  1  0.68899418  0.18848008  0.68809329  1
  Zn  Zn134  1  0.68710083  0.68780238  0.18909969  1
  Zn  Zn135  1  0.68615058  0.68774211  0.68933190  1
  Zn  Zn136  1  0.31478372  0.31270351  0.31111989  1
  Zn  Zn137  1  0.31060733  0.31284202  0.81320026  1
  Zn  Zn138  1  0.31214657  0.81283010  0.30847820  1
  Zn  Zn139  1  0.31315742  0.81075580  0.81163116  1
  Zn  Zn140  1  0.81180528  0.31313634  0.31158994  1
  Zn  Zn141  1  0.81118178  0.31337259  0.81153527  1
  Zn  Zn142  1  0.81340753  0.81223698  0.31231624  1
  Zn  Zn143  1  0.81120085  0.81298734  0.81241407  1
  Zn  Zn144  1  0.18819853  0.43704905  0.43630254  1
  Zn  Zn145  1  0.18735849  0.43823311  0.93806943  1
  Zn  Zn146  1  0.18676008  0.93750331  0.43584171  1
  Zn  Zn147  1  0.18736369  0.93561733  0.94010553  1
  Zn  Zn148  1  0.68944070  0.43647125  0.43800079  1
  Zn  Zn149  1  0.68787472  0.43649070  0.93613664  1
  Zn  Zn150  1  0.68732922  0.93795138  0.43794902  1
  Zn  Zn151  1  0.68478268  0.93801639  0.93913142  1
  Zn  Zn152  1  0.31120390  0.06375866  0.06205849  1
  Zn  Zn153  1  0.31259857  0.06356623  0.56324493  1
  Zn  Zn154  1  0.31385710  0.56225085  0.06112462  1
  Zn  Zn155  1  0.31434651  0.56209917  0.56200703  1
  Zn  Zn156  1  0.81457387  0.06252090  0.06220209  1
  Zn  Zn157  1  0.81164317  0.06326060  0.56250688  1
  Zn  Zn158  1  0.81105249  0.56387388  0.06202416  1
  Zn  Zn159  1  0.81352006  0.56128683  0.56217665  1
  Zn  Zn160  1  0.44022963  0.43538450  0.18643485  1
  Zn  Zn161  1  0.43876028  0.43837549  0.68899052  1
  Zn  Zn162  1  0.43507643  0.93625465  0.18717826  1
  Zn  Zn163  1  0.43793048  0.93750715  0.68851043  1
  Zn  Zn164  1  0.93447457  0.43700409  0.18826202  1
  Zn  Zn165  1  0.93832618  0.43621449  0.68839820  1
  Zn  Zn166  1  0.93774369  0.93677615  0.18999339  1
  Zn  Zn167  1  0.93738389  0.93852328  0.68959193  1
  Zn  Zn168  1  0.06213836  0.06401008  0.31156634  1
  Zn  Zn169  1  0.06194261  0.06288117  0.81252939  1
  Zn  Zn170  1  0.06336171  0.56101053  0.31157717  1
  Zn  Zn171  1  0.06290566  0.56189638  0.81413841  1
  Zn  Zn172  1  0.56275255  0.06419279  0.31220459  1
  Zn  Zn173  1  0.56073562  0.06335961  0.81565986  1
  Zn  Zn174  1  0.56501715  0.56202439  0.30952253  1
  Zn  Zn175  1  0.56171069  0.56365563  0.81009336  1
  Zn  Zn176  1  0.43893103  0.18850249  0.43683345  1
  Zn  Zn177  1  0.43766798  0.18633740  0.93623144  1
  Zn  Zn178  1  0.43901352  0.68869295  0.43769261  1
  Zn  Zn179  1  0.43658368  0.68547105  0.93850881  1
  Zn  Zn180  1  0.93800563  0.18793679  0.43760946  1
  Zn  Zn181  1  0.93888618  0.18683044  0.93852308  1
  Zn  Zn182  1  0.93742665  0.68617618  0.43751208  1
  Zn  Zn183  1  0.93431706  0.68898741  0.93857690  1
  Zn  Zn184  1  0.06300862  0.31542306  0.06363587  1
  Zn  Zn185  1  0.06296957  0.31168675  0.56265513  1
  Zn  Zn186  1  0.06250112  0.81035316  0.06072104  1
  Zn  Zn187  1  0.06303166  0.81179044  0.56255052  1
  Zn  Zn188  1  0.56229371  0.31191424  0.05834884  1
  Zn  Zn189  1  0.56311331  0.31178920  0.56224981  1
  Zn  Zn190  1  0.56024566  0.81486301  0.06306372  1
  Zn  Zn191  1  0.56186174  0.81274226  0.56160245  1
  O  O192  1  0.11980713  0.11868927  0.12080482  1
  O  O193  1  0.12107302  0.11974463  0.61971555  1
  O  O194  1  0.11384102  0.61952548  0.12319886  1
  O  O195  1  0.12062097  0.61987243  0.61971509  1
  O  O196  1  0.62105432  0.11911576  0.12120569  1
  O  O197  1  0.61984485  0.11869577  0.62122956  1
  O  O198  1  0.62015104  0.62104043  0.11939526  1
  O  O199  1  0.62064363  0.62085435  0.61798617  1
  O  O200  1  0.38147589  0.38073338  0.38080081  1
  O  O201  1  0.37404411  0.38177979  0.88101035  1
  O  O202  1  0.37915224  0.88131854  0.37959418  1
  O  O203  1  0.38088096  0.88071778  0.87455142  1
  O  O204  1  0.88217421  0.37528057  0.38216318  1
  O  O205  1  0.87628901  0.38150656  0.88127148  1
  O  O206  1  0.88114162  0.87913845  0.38271496  1
  O  O207  1  0.88332230  0.88084404  0.87273704  1
  O  O208  1  0.25461806  0.00653761  0.37040278  1
  O  O209  1  0.25397297  0.00091376  0.86762622  1
  O  O210  1  0.25804371  0.50512469  0.37082959  1
  O  O211  1  0.25472006  0.50647061  0.86957740  1
  O  O212  1  0.75667479  -0.00197307  0.36709046  1
  O  O213  1  0.75434715  0.00377917  0.86980138  1
  O  O214  1  0.75206288  0.50882038  0.37421504  1
  O  O215  1  0.75611737  0.50231254  0.86784884  1
  O  O216  1  0.25186419  0.49418992  0.13122691  1
  O  O217  1  0.24460547  0.49527488  0.62872261  1
  O  O218  1  0.23844763  1.00163535  0.13094961  1
  O  O219  1  0.24434754  0.99390124  0.62902882  1
  O  O220  1  0.74349015  0.49193729  0.12313741  1
  O  O221  1  0.74553330  0.49543685  0.62950792  1
  O  O222  1  0.75298344  0.99091011  0.13592893  1
  O  O223  1  0.74407392  0.99406892  0.63091579  1
  O  O224  1  0.00083179  0.36930645  0.25662492  1
  O  O225  1  0.00959285  0.37297789  0.75251027  1
  O  O226  1  0.00132450  0.86665511  0.25839570  1
  O  O227  1  0.00416161  0.87043282  0.75676347  1
  O  O228  1  0.50360448  0.37142701  0.25843203  1
  O  O229  1  0.50405416  0.37113483  0.75297441  1
  O  O230  1  0.50678624  0.87616101  0.25784585  1
  O  O231  1  0.50677181  0.87469224  0.75678655  1
  O  O232  1  0.48944943  0.12614641  0.24863907  1
  O  O233  1  0.48879162  0.12290820  0.74488324  1
  O  O234  1  0.49404208  0.62599138  0.24326101  1
  O  O235  1  0.49751137  0.62816203  0.73932222  1
  O  O236  1  0.99869696  0.13356855  0.24416834  1
  O  O237  1  0.99340325  0.12569696  0.74272935  1
  O  O238  1  0.99361922  0.62978214  0.24594420  1
  O  O239  1  0.99470029  0.62958391  0.74419171  1
  O  O240  1  0.36870985  0.25491849  0.00245203  1
  O  O241  1  0.36888935  0.25638800  0.50100310  1
  O  O242  1  0.37364416  0.74854757  0.01284459  1
  O  O243  1  0.36883530  0.75691453  0.50345332  1
  O  O244  1  0.87064383  0.25542128  0.00490342  1
  O  O245  1  0.87510771  0.25640639  0.50721705  1
  O  O246  1  0.87038931  0.75478306  0.00898563  1
  O  O247  1  0.87052664  0.75529437  0.50673709  1
  O  O248  1  0.13141850  0.24404055  0.49456480  1
  O  O249  1  0.12984250  0.24695149  0.99332972  1
  O  O250  1  0.13080045  0.74387625  0.49489830  1
  O  O251  1  0.12665604  0.74370778  0.99558296  1
  O  O252  1  0.62643294  0.24360820  0.49114668  1
  O  O253  1  0.63245129  0.24729034  0.98948008  1
  O  O254  1  0.63174119  0.74560008  0.49526490  1
  O  O255  1  0.62404688  0.74622201  0.99115712  1
  O  O256  1  0.49166134  0.24786418  0.12407942  1
  O  O257  1  0.49763027  0.24085400  0.62733965  1
  O  O258  1  0.49154647  0.74355651  0.12702451  1
  O  O259  1  0.49400249  0.74446188  0.62315094  1
  O  O260  1  0.99527939  0.24632115  0.13010849  1
  O  O261  1  0.99489487  0.24245855  0.62636186  1
  O  O262  1  0.99349470  0.74479465  0.13143293  1
  O  O263  1  0.99464533  0.74479565  0.63013134  1
  O  O264  1  0.00625991  0.25544823  0.37076003  1
  O  O265  1  0.01291457  0.25223581  0.87484748  1
  O  O266  1  0.00569667  0.75384879  0.37155267  1
  O  O267  1  -0.00201449  0.75959270  0.86788882  1
  O  O268  1  0.51026013  0.25616632  0.37551982  1
  O  O269  1  0.51163718  0.24968565  0.87350975  1
  O  O270  1  0.50675034  0.75809165  0.37489205  1
  O  O271  1  0.50864177  0.75540862  0.87476428  1
  O  O272  1  0.24524201  0.12995453  0.49471977  1
  O  O273  1  0.24240650  0.13323361  0.99845990  1
  O  O274  1  0.24537745  0.63000771  0.49437258  1
  O  O275  1  0.24813201  0.62270256  0.98735136  1
  O  O276  1  0.74083653  0.12599392  0.49837169  1
  O  O277  1  0.75078612  0.13077991  0.99249940  1
  O  O278  1  0.74557152  0.63148149  0.49632900  1
  O  O279  1  0.74070689  0.62944834  0.99761123  1
  O  O280  1  0.25618968  0.37089701  0.00539971  1
  O  O281  1  0.25615484  0.37062624  0.50430083  1
  O  O282  1  0.25279632  0.86975836  0.00537632  1
  O  O283  1  0.25485405  0.87026953  0.50409266  1
  O  O284  1  0.75616835  0.36849417  0.00531897  1
  O  O285  1  0.75873616  0.37415540  0.50744156  1
  O  O286  1  0.75004734  0.87596989  0.01400372  1
  O  O287  1  0.75572037  0.87004077  0.50623872  1
  O  O288  1  0.13564712  0.49775306  0.24882319  1
  O  O289  1  0.13056837  0.49464915  0.74401405  1
  O  O290  1  0.13005800  1.00108173  0.24108114  1
  O  O291  1  0.13003700  0.99504073  0.74346614  1
  O  O292  1  0.62834339  0.49705301  0.23939837  1
  O  O293  1  0.63252124  0.50059482  0.74212483  1
  O  O294  1  0.63549919  0.99371038  0.25186052  1
  O  O295  1  0.62957106  0.99529712  0.74546073  1
  O  O296  1  0.36832066  0.00612884  0.25552297  1
  O  O297  1  0.36925204  0.00655206  0.75462737  1
  O  O298  1  0.37170028  0.50503324  0.25568972  1
  O  O299  1  0.36742960  0.50180871  0.75589935  1
  O  O300  1  0.86667797  -0.00069088  0.25823838  1
  O  O301  1  0.86796045  0.00557426  0.75486644  1
  O  O302  1  0.87170118  0.50894286  0.25287147  1
  O  O303  1  0.87083729  0.50584415  0.75418526  1
  O  O304  1  0.11867705  0.36812296  0.37487396  1
  O  O305  1  0.12503048  0.36630994  0.86993757  1
  O  O306  1  0.11832411  0.86736388  0.37491778  1
  O  O307  1  0.11421066  0.87538485  0.86776664  1
  O  O308  1  0.62037266  0.36574313  0.37626886  1
  O  O309  1  0.62551297  0.36255046  0.87263940  1
  O  O310  1  0.61984140  0.87033513  0.37181913  1
  O  O311  1  0.61861454  0.86834820  0.87060323  1
  O  O312  1  0.37443147  0.13207983  0.13196463  1
  O  O313  1  0.38052601  0.12402608  0.63484215  1
  O  O314  1  0.38123323  0.63043547  0.13021385  1
  O  O315  1  0.38170980  0.63188692  0.62278519  1
  O  O316  1  0.88189584  0.13193920  0.12712195  1
  O  O317  1  0.88048928  0.12924144  0.62949996  1
  O  O318  1  0.87843627  0.63150605  0.13164068  1
  O  O319  1  0.88143273  0.63089570  0.62962664  1
  O  O320  1  0.25599570  0.25625107  0.11902240  1
  O  O321  1  0.25174171  0.25732308  0.61774632  1
  O  O322  1  0.26066462  0.74580210  0.12541716  1
  O  O323  1  0.25415372  0.75575535  0.61800012  1
  O  O324  1  0.75521618  0.25455473  0.11889236  1
  O  O325  1  0.75749130  0.25665579  0.62357997  1
  O  O326  1  0.75467454  0.76194945  0.12783247  1
  O  O327  1  0.75482018  0.75611864  0.62043802  1
  O  O328  1  0.24571669  0.24536067  0.38061927  1
  O  O329  1  0.23854718  0.24868791  0.88108291  1
  O  O330  1  0.24609210  0.74406903  0.37984773  1
  O  O331  1  0.24945734  0.73802000  0.87431313  1
  O  O332  1  0.73945403  0.24843275  0.37726330  1
  O  O333  1  0.74408057  0.24421830  0.87953861  1
  O  O334  1  0.74514230  0.74591248  0.38216316  1
  O  O335  1  0.73600321  0.75203764  0.87685316  1
  O  O336  1  0.00733687  0.12373639  0.00833141  1
  O  O337  1  0.00687450  0.11867630  0.50556006  1
  O  O338  1  -0.00452277  0.61477375  0.00609831  1
  O  O339  1  0.00631608  0.62024578  0.50605117  1
  O  O340  1  0.49927430  0.11158577  -0.00024609  1
  O  O341  1  0.50455086  0.11875522  0.50598148  1
  O  O342  1  0.50615947  0.61829257  0.00587413  1
  O  O343  1  0.50678717  0.61973754  0.50390097  1
  O  O344  1  0.49517733  0.38139005  0.49444550  1
  O  O345  1  0.49252308  0.38201259  0.99571113  1
  O  O346  1  0.49390074  0.88187557  0.49456909  1
  O  O347  1  0.49551660  0.88455802  0.99389156  1
  O  O348  1  0.99605254  0.38002178  0.49562644  1
  O  O349  1  0.99265299  0.38516909  0.99979796  1
  O  O350  1  0.99499312  0.87981591  0.49593508  1
  O  O351  1  0.99819211  0.87673145  0.98679818  1
  O  O352  1  0.49690799  0.49549736  0.38050719  1
  O  O353  1  0.49389514  0.50065679  0.88075153  1
  O  O354  1  0.49373334  0.99560137  0.38113554  1
  O  O355  1  0.49355507  0.99414938  0.88226443  1
  O  O356  1  0.99975966  0.49366826  0.38258756  1
  O  O357  1  0.99237920  0.49991900  0.88431449  1
  O  O358  1  0.99638904  0.99441651  0.38128400  1
  O  O359  1  0.99417255  0.99051448  0.87351340  1
  O  O360  1  0.00857579  0.00616101  0.12679521  1
  O  O361  1  0.00562612  0.00463867  0.61949949  1
  O  O362  1  -0.00356724  0.50525988  0.11503978  1
  O  O363  1  0.00684396  0.50563070  0.61988106  1
  O  O364  1  0.49830655  -0.00074250  0.11396888  1
  O  O365  1  0.50543716  0.00482544  0.61922102  1
  O  O366  1  0.50569838  0.50515796  0.11728608  1
  O  O367  1  0.50599478  0.50598828  0.61757935  1
  O  O368  1  0.25170120  0.38150584  0.24352999  1
  O  O369  1  0.24474818  0.38100887  0.74354422  1
  O  O370  1  0.24536886  0.88363211  0.24652297  1
  O  O371  1  0.24419522  0.88004660  0.74330853  1
  O  O372  1  0.74757770  0.37634731  0.23883833  1
  O  O373  1  0.74970451  0.38355544  0.74161021  1
  O  O374  1  0.74585780  0.88292540  0.24451078  1
  O  O375  1  0.74340050  0.88078188  0.74424714  1
  O  O376  1  0.25616741  0.12028559  0.25623318  1
  O  O377  1  0.25920794  0.11750705  0.74915031  1
  O  O378  1  0.25741897  0.61802489  0.25684349  1
  O  O379  1  0.25116837  0.61808302  0.75823031  1
  O  O380  1  0.75219464  0.11152124  0.25264582  1
  O  O381  1  0.75648917  0.11798369  0.75498313  1
  O  O382  1  0.75646206  0.62542961  0.25746383  1
  O  O383  1  0.75725068  0.61898784  0.74978725  1
  O  O384  1  0.36943276  0.12024448  0.36968371  1
  O  O385  1  0.37251237  0.11808416  0.86459399  1
  O  O386  1  0.37135704  0.61964303  0.37100308  1
  O  O387  1  0.36599328  0.61816875  0.87311899  1
  O  O388  1  0.87353890  0.11632276  0.37444494  1
  O  O389  1  0.87067569  0.12019780  0.86923156  1
  O  O390  1  0.86856956  0.62478035  0.37018783  1
  O  O391  1  0.87209604  0.62052360  0.86716336  1
  O  O392  1  0.13498558  0.37848513  0.12725448  1
  O  O393  1  0.13143802  0.38055905  0.62916761  1
  O  O394  1  0.12254140  0.88730738  0.12711326  1
  O  O395  1  0.12998435  0.88068296  0.62913562  1
  O  O396  1  0.63188506  0.38016896  0.12227660  1
  O  O397  1  0.63225958  0.38261054  0.62381714  1
  O  O398  1  0.63434848  0.87734104  0.13246460  1
  O  O399  1  0.62980122  0.88059865  0.62961740  1
  O  O400  1  0.11918118  0.25241608  0.25714605  1
  O  O401  1  0.12630924  0.25508821  0.75918189  1
  O  O402  1  0.11827979  0.74830968  0.25724016  1
  O  O403  1  0.11744948  0.75743864  0.75065483  1
  O  O404  1  0.62366328  0.24974118  0.26224034  1
  O  O405  1  0.62501579  0.25023378  0.76115561  1
  O  O406  1  0.62356864  0.75768146  0.25818754  1
  O  O407  1  0.62276953  0.75658225  0.75927796  1
  O  O408  1  0.37628120  0.24305092  0.24288497  1
  O  O409  1  0.37391059  0.23737086  0.74964092  1
  O  O410  1  0.37718175  0.74227004  0.24221869  1
  O  O411  1  0.37739549  0.74850622  0.73903214  1
  O  O412  1  0.88167567  0.24890259  0.24306564  1
  O  O413  1  0.87672202  0.24308350  0.74404298  1
  O  O414  1  0.88098993  0.74374113  0.24607456  1
  O  O415  1  0.87949005  0.74548837  0.74373322  1
  O  O416  1  0.38164491  0.49472332  0.49346886  1
  O  O417  1  0.38116812  0.49456513  0.99354338  1
  O  O418  1  0.37931158  0.99585014  0.49408097  1
  O  O419  1  0.38058227  0.99917529  0.99325006  1
  O  O420  1  0.88376532  0.49329703  0.50003674  1
  O  O421  1  0.88100614  0.49562707  0.99425096  1
  O  O422  1  0.88117609  0.99358338  0.49705201  1
  O  O423  1  0.87836155  0.99652260  0.99176261  1
  O  O424  1  0.12295725  0.00693193  0.01035520  1
  O  O425  1  0.12042437  0.00549481  0.50507060  1
  O  O426  1  0.11025837  0.50102584  0.00062754  1
  O  O427  1  0.12102159  0.50548940  0.50550485  1
  O  O428  1  0.61181122  0.00103449  0.00093929  1
  O  O429  1  0.61885379  0.00415967  0.50593363  1
  O  O430  1  0.61995029  0.50587912  0.00360287  1
  O  O431  1  0.62050612  0.50648790  0.50511095  1
  O  O432  1  0.37018920  0.36944578  0.11730873  1
  O  O433  1  0.36880214  0.37540912  0.61778554  1
  O  O434  1  0.37215748  0.86128182  0.12620401  1
  O  O435  1  0.36940401  0.87164482  0.61788433  1
  O  O436  1  0.86802624  0.36888564  0.11824179  1
  O  O437  1  0.87140327  0.36963129  0.62000447  1
  O  O438  1  0.86622423  0.86938875  0.12706752  1
  O  O439  1  0.86966700  0.87026095  0.62106056  1
  O  O440  1  0.13082199  0.13065721  0.38109789  1
  O  O441  1  0.12560256  0.13383239  0.88039508  1
  O  O442  1  0.13188261  0.62975034  0.38104856  1
  O  O443  1  0.13576018  0.62544199  0.87580108  1
  O  O444  1  0.62511944  0.13340448  0.38218549  1
  O  O445  1  0.63261406  0.13291291  0.87581246  1
  O  O446  1  0.63016549  0.63112494  0.38095544  1
  O  O447  1  0.62446843  0.63532943  0.87994628  1
