# generated using pymatgen
data_V3Zn3O8
_symmetry_space_group_name_H-M   'P 1'
_cell_length_a   17.08932581
_cell_length_b   17.08901887
_cell_length_c   17.08825254
_cell_angle_alpha   89.99220772
_cell_angle_beta   89.99809790
_cell_angle_gamma   90.00525507
_symmetry_Int_Tables_number   1
_chemical_formula_structural   V3Zn3O8
_chemical_formula_sum   'V96 Zn96 O256'
_cell_volume   4990.44997923
_cell_formula_units_Z   32
loop_
 _symmetry_equiv_pos_site_id
 _symmetry_equiv_pos_as_xyz
  1  'x, y, z'
loop_
 _atom_site_type_symbol
 _atom_site_label
 _atom_site_symmetry_multiplicity
 _atom_site_fract_x
 _atom_site_fract_y
 _atom_site_fract_z
 _atom_site_occupancy
  V  V0  1  0.50067585  0.87341426  0.37380899  1
  V  V1  1  0.62486637  0.75012129  0.87388433  1
  V  V2  1  0.74959932  0.37443281  0.12444884  1
  V  V3  1  0.24886211  0.87698183  0.62519591  1
  V  V4  1  0.87536566  0.24911160  0.12570529  1
  V  V5  1  0.37533417  0.37562477  0.00055134  1
  V  V6  1  0.00018122  0.24999091  0.25134741  1
  V  V7  1  0.12542391  0.00015485  0.12669125  1
  V  V8  1  0.12607814  0.25057628  0.37766107  1
  V  V9  1  0.62623567  0.12431067  0.00064853  1
  V  V10  1  0.25034714  0.24952290  0.00048097  1
  V  V11  1  0.49879078  0.37643365  0.37613936  1
  V  V12  1  0.87336539  0.74861794  0.62467393  1
  V  V13  1  0.37430521  0.62597614  0.75049403  1
  V  V14  1  -0.00121743  0.74939248  0.24946705  1
  V  V15  1  0.49946435  0.12475875  0.12589117  1
  V  V16  1  0.37623106  0.37696205  0.50008918  1
  V  V17  1  0.49895895  0.75054345  0.74935592  1
  V  V18  1  0.62323579  0.50194682  0.62308014  1
  V  V19  1  0.62479830  0.62478351  -0.00050187  1
  V  V20  1  0.12593726  0.24969997  0.87598314  1
  V  V21  1  0.50082761  0.12627993  0.62581982  1
  V  V22  1  0.25022224  0.75071054  0.00035579  1
  V  V23  1  0.62570397  -0.00096805  0.12430782  1
  V  V24  1  0.12478740  0.62518426  -0.00068395  1
  V  V25  1  -0.00082151  0.87423635  0.37552084  1
  V  V26  1  0.12440689  0.75062768  0.87562724  1
  V  V27  1  0.37563789  0.24974768  0.12602100  1
  V  V28  1  0.37446629  0.50108335  0.87471147  1
  V  V29  1  0.74906408  0.87478874  0.12471324  1
  V  V30  1  0.00061535  0.62411227  0.62435045  1
  V  V31  1  0.87495450  0.49881923  0.87449770  1
  V  V32  1  0.87524949  0.37400154  -0.00053941  1
  V  V33  1  0.62584798  0.00073732  0.62453507  1
  V  V34  1  0.12414839  0.87717465  0.74994859  1
  V  V35  1  0.75020384  0.62472898  0.87453560  1
  V  V36  1  0.24992548  0.25120248  0.49965260  1
  V  V37  1  0.87558954  0.87564399  -0.00083812  1
  V  V38  1  0.37375519  0.00221499  0.37423684  1
  V  V39  1  -0.00039624  0.37577749  0.37477154  1
  V  V40  1  0.37487475  0.87481167  -0.00048556  1
  V  V41  1  0.62486084  0.37361656  0.75068484  1
  V  V42  1  0.37678609  0.12662537  0.75084685  1
  V  V43  1  0.25119578  0.37771628  0.62555464  1
  V  V44  1  0.75013405  0.87421829  0.62374763  1
  V  V45  1  0.49991997  0.49985000  -0.00006177  1
  V  V46  1  0.25177580  0.12609434  0.87548438  1
  V  V47  1  0.62468030  0.87397259  0.24899159  1
  V  V48  1  0.25005018  0.62492447  0.87472989  1
  V  V49  1  0.87810185  0.24794309  0.62594123  1
  V  V50  1  0.62580912  0.12505912  0.49939613  1
  V  V51  1  0.37515161  0.00086959  0.87514865  1
  V  V52  1  0.49927912  0.87605727  0.87515732  1
  V  V53  1  0.12480177  0.49913306  0.12475956  1
  V  V54  1  0.87513097  0.62399466  0.74937213  1
  V  V55  1  -0.00003731  0.49954503  -0.00049190  1
  V  V56  1  0.00102366  0.12422663  0.12582241  1
  V  V57  1  0.00246903  0.00076683  0.50257302  1
  V  V58  1  0.87542808  -0.00065183  0.37531706  1
  V  V59  1  -0.00076222  0.50126441  0.49982868  1
  V  V60  1  -0.00078276  0.62561255  0.12455178  1
  V  V61  1  0.24929589  0.37475129  0.12560405  1
  V  V62  1  0.00086677  -0.00028953  0.00130371  1
  V  V63  1  0.00010338  0.87543209  0.87559556  1
  V  V64  1  0.75139951  0.24979914  0.49968150  1
  V  V65  1  0.87416633  0.37440471  0.49964681  1
  V  V66  1  0.12617591  0.37605771  0.74942499  1
  V  V67  1  0.62501735  0.87495846  0.74952625  1
  V  V68  1  0.12518778  0.87501952  0.24978088  1
  V  V69  1  0.87506293  0.74968829  0.12468350  1
  V  V70  1  0.12407560  0.74848990  0.37521567  1
  V  V71  1  0.74841024  0.62430483  0.37471001  1
  V  V72  1  0.75014090  0.24863824  -0.00045144  1
  V  V73  1  0.74962994  0.49924292  0.74958076  1
  V  V74  1  0.75004492  0.75014628  -0.00057034  1
  V  V75  1  0.75163008  0.00018468  0.74964355  1
  V  V76  1  0.75189329  0.12353337  0.87388968  1
  V  V77  1  0.74697732  0.74887016  0.49794250  1
  V  V78  1  0.62398965  0.37377808  0.25006134  1
  V  V79  1  0.62510998  0.49951585  0.12414844  1
  V  V80  1  0.49889987  0.62471836  0.12510853  1
  V  V81  1  0.62502456  0.24988924  0.37461200  1
  V  V82  1  0.37405365  0.62419161  0.25027691  1
  V  V83  1  0.74992292  0.50037853  0.24988656  1
  V  V84  1  0.50094313  0.37483724  0.87545912  1
  V  V85  1  0.37458330  0.74984856  0.12368740  1
  V  V86  1  0.37387696  0.75128942  0.62419647  1
  V  V87  1  0.24864178  0.62521082  0.37564889  1
  V  V88  1  0.24972675  -0.00007061  0.25115178  1
  V  V89  1  0.50004609  0.00040559  0.49937355  1
  V  V90  1  0.87360538  0.49987578  0.37357119  1
  V  V91  1  0.12451651  0.37526041  0.24941316  1
  V  V92  1  0.87498690  0.12427681  0.25139850  1
  V  V93  1  0.75048338  0.12368325  0.37437310  1
  V  V94  1  0.37714594  0.25134486  0.62583117  1
  V  V95  1  0.00070631  0.37331650  0.87435792  1
  Zn  Zn96  1  0.49989854  -0.00091781  -0.00013726  1
  Zn  Zn97  1  0.12707530  0.12656798  0.50393302  1
  Zn  Zn98  1  0.75004870  0.37408294  0.62465642  1
  Zn  Zn99  1  0.50191722  0.24980782  0.75194097  1
  Zn  Zn100  1  0.00447181  0.12349877  0.62941418  1
  Zn  Zn101  1  0.49932720  0.62651362  0.62202746  1
  Zn  Zn102  1  0.62467626  0.24922307  0.87504725  1
  Zn  Zn103  1  0.24856330  0.12607866  0.37692856  1
  Zn  Zn104  1  0.24735956  0.75070943  0.49991344  1
  Zn  Zn105  1  0.24927600  0.49837256  0.25114376  1
  Zn  Zn106  1  0.87835903  0.12304028  0.74884411  1
  Zn  Zn107  1  0.24980705  0.00350996  0.74952497  1
  Zn  Zn108  1  0.12587042  0.62473045  0.50114081  1
  Zn  Zn109  1  -0.00001483  0.24628818  0.75059015  1
  Zn  Zn110  1  0.37284716  0.87598253  0.49982797  1
  Zn  Zn111  1  0.50066376  0.74876570  0.24988561  1
  Zn  Zn112  1  0.87357686  0.62510251  0.24881932  1
  Zn  Zn113  1  0.12621710  0.00386326  0.62487538  1
  Zn  Zn114  1  0.37397252  0.50151831  0.37711782  1
  Zn  Zn115  1  0.37271811  0.12666673  0.25003839  1
  Zn  Zn116  1  0.12732075  0.50170245  0.62367725  1
  Zn  Zn117  1  0.25058467  0.50183397  0.74843154  1
  Zn  Zn118  1  -0.00135267  0.74978175  0.75019702  1
  Zn  Zn119  1  0.75076849  -0.00124611  0.25027258  1
  Zn  Zn120  1  0.12603945  0.12437340  0.00061822  1
  Zn  Zn121  1  0.49795410  0.24918145  0.25099966  1
  Zn  Zn122  1  0.49836011  0.50473599  0.50028965  1
  Zn  Zn123  1  0.62294456  0.74664792  0.37291015  1
  Zn  Zn124  1  0.25086655  0.87548929  0.12498451  1
  Zn  Zn125  1  0.87754802  -0.00033513  0.87263710  1
  Zn  Zn126  1  0.62070570  0.62452825  0.49799053  1
  Zn  Zn127  1  0.87480864  0.87479792  0.49970805  1
  Zn  Zn128  1  0.18825405  0.18598307  0.19051124  1
  Zn  Zn129  1  0.18879973  0.18882506  0.68676459  1
  Zn  Zn130  1  0.18745336  0.68801067  0.18778996  1
  Zn  Zn131  1  0.18671640  0.68982135  0.68961087  1
  Zn  Zn132  1  0.68696917  0.18687676  0.18886729  1
  Zn  Zn133  1  0.69035997  0.18804807  0.68700972  1
  Zn  Zn134  1  0.68667632  0.68837783  0.18850307  1
  Zn  Zn135  1  0.68723621  0.68648032  0.68650405  1
  Zn  Zn136  1  0.31266938  0.31175502  0.31192739  1
  Zn  Zn137  1  0.31281549  0.31234671  0.81184175  1
  Zn  Zn138  1  0.31238758  0.81208693  0.31102356  1
  Zn  Zn139  1  0.31089556  0.81349361  0.81199468  1
  Zn  Zn140  1  0.81175259  0.31227741  0.31240095  1
  Zn  Zn141  1  0.81162198  0.31091358  0.81097628  1
  Zn  Zn142  1  0.81271415  0.81272057  0.31208671  1
  Zn  Zn143  1  0.81346162  0.81258653  0.81154708  1
  Zn  Zn144  1  0.18686483  0.43963466  0.43865745  1
  Zn  Zn145  1  0.18847904  0.43742761  0.93720619  1
  Zn  Zn146  1  0.18640379  0.93556714  0.43799219  1
  Zn  Zn147  1  0.18854657  0.93944699  0.93812072  1
  Zn  Zn148  1  0.68741588  0.43668565  0.43835828  1
  Zn  Zn149  1  0.68810632  0.43719919  0.93706937  1
  Zn  Zn150  1  0.68734202  0.93681017  0.43697896  1
  Zn  Zn151  1  0.68735501  0.93875910  0.93761467  1
  Zn  Zn152  1  0.31270642  0.06142388  0.06196030  1
  Zn  Zn153  1  0.31289546  0.06443616  0.56217766  1
  Zn  Zn154  1  0.31077393  0.56194870  0.06245978  1
  Zn  Zn155  1  0.31311555  0.56264917  0.56174131  1
  Zn  Zn156  1  0.81363490  0.06065596  0.06265917  1
  Zn  Zn157  1  0.81512290  0.06276506  0.56147789  1
  Zn  Zn158  1  0.81277220  0.56205129  0.06202610  1
  Zn  Zn159  1  0.81049384  0.56182284  0.56162146  1
  Zn  Zn160  1  0.43705739  0.43810735  0.18939435  1
  Zn  Zn161  1  0.43897849  0.43910357  0.68855321  1
  Zn  Zn162  1  0.43725341  0.93800766  0.18770869  1
  Zn  Zn163  1  0.43666638  0.93962584  0.68919481  1
  Zn  Zn164  1  0.93680227  0.43776754  0.18731517  1
  Zn  Zn165  1  0.93827231  0.43528381  0.68690669  1
  Zn  Zn166  1  0.93747923  0.93714694  0.18827671  1
  Zn  Zn167  1  0.93623435  0.93658432  0.68686029  1
  Zn  Zn168  1  0.06403917  0.06373259  0.31629784  1
  Zn  Zn169  1  0.06225008  0.06374506  0.81336591  1
  Zn  Zn170  1  0.06184565  0.56281381  0.31065869  1
  Zn  Zn171  1  0.06215257  0.56133110  0.81135869  1
  Zn  Zn172  1  0.56322384  0.06037025  0.30986642  1
  Zn  Zn173  1  0.56334755  0.06188498  0.81227527  1
  Zn  Zn174  1  0.56302291  0.56156626  0.31239480  1
  Zn  Zn175  1  0.56063977  0.56270543  0.81032892  1
  Zn  Zn176  1  0.43741691  0.18865142  0.43918203  1
  Zn  Zn177  1  0.43908595  0.18895621  0.93849164  1
  Zn  Zn178  1  0.43612243  0.68802211  0.43994815  1
  Zn  Zn179  1  0.43750550  0.68835931  0.93696676  1
  Zn  Zn180  1  0.93934163  0.18523272  0.43949381  1
  Zn  Zn181  1  0.93870942  0.18627373  0.93808671  1
  Zn  Zn182  1  0.93416963  0.68668858  0.43742693  1
  Zn  Zn183  1  0.93792747  0.68839276  0.93698612  1
  Zn  Zn184  1  0.06311227  0.31096259  0.06209739  1
  Zn  Zn185  1  0.06252078  0.31434855  0.56317304  1
  Zn  Zn186  1  0.06306415  0.81372620  0.06318576  1
  Zn  Zn187  1  0.06258433  0.81113243  0.56107597  1
  Zn  Zn188  1  0.56278850  0.30989495  0.06161409  1
  Zn  Zn189  1  0.56278644  0.31329412  0.56215519  1
  Zn  Zn190  1  0.56077632  0.81156479  0.06203417  1
  Zn  Zn191  1  0.56173076  0.81390345  0.56102708  1
  O  O192  1  0.11768457  0.11868305  0.12553131  1
  O  O193  1  0.12329113  0.12162999  0.62239231  1
  O  O194  1  0.11933094  0.62002732  0.11841369  1
  O  O195  1  0.11284748  0.62484827  0.62633281  1
  O  O196  1  0.61904533  0.12013198  0.12067225  1
  O  O197  1  0.62147170  0.12005556  0.61917059  1
  O  O198  1  0.61978719  0.61909231  0.11894695  1
  O  O199  1  0.62325510  0.61345146  0.62559914  1
  O  O200  1  0.38406369  0.37531538  0.37984923  1
  O  O201  1  0.38033872  0.38076757  0.88127154  1
  O  O202  1  0.38318204  0.88380799  0.37517139  1
  O  O203  1  0.37999824  0.87980164  0.87898394  1
  O  O204  1  0.88016683  0.37992198  0.37933220  1
  O  O205  1  0.87962289  0.37943794  0.88015296  1
  O  O206  1  0.88175568  0.88120863  0.37544637  1
  O  O207  1  0.88126738  0.87495413  0.88159231  1
  O  O208  1  0.25956955  -0.00131409  0.37128553  1
  O  O209  1  0.25736448  0.00787351  0.87393513  1
  O  O210  1  0.25101431  0.51176079  0.37186635  1
  O  O211  1  0.25738353  0.50741880  0.87585751  1
  O  O212  1  0.75644681  0.00628087  0.37448832  1
  O  O213  1  0.75089415  0.00788289  0.86928201  1
  O  O214  1  0.75408797  0.50387578  0.36930073  1
  O  O215  1  0.75574057  0.50566894  0.87041488  1
  O  O216  1  0.24211854  0.49285033  0.12480674  1
  O  O217  1  0.24762512  0.49361552  0.62793931  1
  O  O218  1  0.24382028  0.99842429  0.13240917  1
  O  O219  1  0.25011793  0.98861265  0.62741533  1
  O  O220  1  0.74460167  0.49385542  0.12852537  1
  O  O221  1  0.74135194  0.49772131  0.63173599  1
  O  O222  1  0.74423546  0.99222106  0.12570509  1
  O  O223  1  0.74479109  0.99469330  0.62849558  1
  O  O224  1  0.00415120  0.36918797  0.25471772  1
  O  O225  1  0.00935405  0.37362234  0.75660828  1
  O  O226  1  0.00540489  0.86887841  0.25559780  1
  O  O227  1  0.00857954  0.87314152  0.75549004  1
  O  O228  1  0.50571457  0.37367272  0.25839492  1
  O  O229  1  0.51049015  0.37578832  0.75705058  1
  O  O230  1  0.50524935  0.87443500  0.25881801  1
  O  O231  1  0.50596056  0.87030469  0.75529493  1
  O  O232  1  0.49953389  0.12607522  0.23693963  1
  O  O233  1  0.49606777  0.12702157  0.74331299  1
  O  O234  1  0.49051980  0.62470568  0.24445080  1
  O  O235  1  0.49241973  0.63369792  0.74871503  1
  O  O236  1  0.99451880  0.13098877  0.24607935  1
  O  O237  1  0.99562541  0.12868228  0.74828519  1
  O  O238  1  0.99767204  0.63156327  0.24187232  1
  O  O239  1  0.99340816  0.62439904  0.74122775  1
  O  O240  1  0.36999741  0.25732246  0.00591561  1
  O  O241  1  0.37059798  0.25743782  0.50617632  1
  O  O242  1  0.36930228  0.75457749  0.00383983  1
  O  O243  1  0.37204838  0.75439933  0.51330514  1
  O  O244  1  0.87027434  0.25509528  0.00644304  1
  O  O245  1  0.87083962  0.25477196  0.50570429  1
  O  O246  1  0.86920590  0.75527046  0.00469561  1
  O  O247  1  0.86235037  0.75045543  0.50560788  1
  O  O248  1  0.13233982  0.25393137  0.49410020  1
  O  O249  1  0.13271834  0.24919637  0.99394909  1
  O  O250  1  0.12653249  0.74529991  0.49064919  1
  O  O251  1  0.12985543  0.74451572  0.99545921  1
  O  O252  1  0.63124641  0.24441049  0.49461977  1
  O  O253  1  0.63375697  0.24308000  0.99899363  1
  O  O254  1  0.63696664  0.74947120  0.49923582  1
  O  O255  1  0.63051256  0.74412987  0.99365360  1
  O  O256  1  0.49490637  0.24111753  0.12536671  1
  O  O257  1  0.49488539  0.24362199  0.62563137  1
  O  O258  1  0.49255368  0.74114304  0.12477872  1
  O  O259  1  0.48964665  0.75368010  0.63126189  1
  O  O260  1  0.99443315  0.24518121  0.13105357  1
  O  O261  1  0.98844307  0.24994728  0.62437302  1
  O  O262  1  0.99478015  0.74490131  0.12905508  1
  O  O263  1  0.99268135  0.73945588  0.62491213  1
  O  O264  1  0.00428768  0.25679441  0.37047592  1
  O  O265  1  0.00676770  0.25698332  0.87573875  1
  O  O266  1  0.00327807  0.75354162  0.36946038  1
  O  O267  1  0.00674000  0.75663791  0.87418520  1
  O  O268  1  0.50608808  0.25947301  0.37469290  1
  O  O269  1  0.50479551  0.25887221  0.87374343  1
  O  O270  1  0.49904987  0.76331143  0.37480164  1
  O  O271  1  0.50586901  0.75578752  0.86929619  1
  O  O272  1  0.24986023  0.13587653  0.49777677  1
  O  O273  1  0.24987013  0.13259044  0.99398998  1
  O  O274  1  0.24938295  0.62806799  0.48758792  1
  O  O275  1  0.24394894  0.63059117  0.99441790  1
  O  O276  1  0.74445777  0.12975282  0.49349569  1
  O  O277  1  0.74633622  0.12846973  0.99354487  1
  O  O278  1  0.74772368  0.63346888  0.49381501  1
  O  O279  1  0.74440413  0.62968730  0.99420930  1
  O  O280  1  0.25603297  0.36969179  0.00577832  1
  O  O281  1  0.25645074  0.37138005  0.50538776  1
  O  O282  1  0.25670309  0.86781374  0.00085811  1
  O  O283  1  0.25073857  0.87213415  0.51224293  1
  O  O284  1  0.75567002  0.36988348  0.00493916  1
  O  O285  1  0.75685045  0.36722208  0.49989818  1
  O  O286  1  0.75465070  0.86867657  0.00425829  1
  O  O287  1  0.75019419  0.86600245  0.50535950  1
  O  O288  1  0.12437020  0.49279942  0.24190780  1
  O  O289  1  0.12739903  0.48713507  0.75018996  1
  O  O290  1  0.12951798  0.99429457  0.24721625  1
  O  O291  1  0.12700147  0.98680345  0.74979830  1
  O  O292  1  0.63032204  0.49352084  0.24279347  1
  O  O293  1  0.62953265  0.49287212  0.74394853  1
  O  O294  1  0.62784203  0.99166022  0.24218173  1
  O  O295  1  0.63090351  0.99389733  0.74353246  1
  O  O296  1  0.36901179  0.00025256  0.25933755  1
  O  O297  1  0.37378868  0.00843986  0.75736052  1
  O  O298  1  0.37208471  0.51286233  0.25119658  1
  O  O299  1  0.37431108  0.50742401  0.75769880  1
  O  O300  1  0.87447294  0.00667309  0.25684494  1
  O  O301  1  0.86602698  0.00123521  0.75189147  1
  O  O302  1  0.86727198  0.49986307  0.25519354  1
  O  O303  1  0.86944606  0.50344808  0.75551855  1
  O  O304  1  0.11829378  0.37110829  0.36910307  1
  O  O305  1  0.12132063  0.37027314  0.86881442  1
  O  O306  1  0.11912580  0.86787275  0.36867230  1
  O  O307  1  0.12100421  0.87039361  0.86844183  1
  O  O308  1  0.61801703  0.36982507  0.37019494  1
  O  O309  1  0.62038366  0.37615832  0.86611066  1
  O  O310  1  0.61492644  0.87591785  0.36825617  1
  O  O311  1  0.62061437  0.86931985  0.86935045  1
  O  O312  1  0.38488231  0.12992232  0.12422414  1
  O  O313  1  0.38172783  0.13099390  0.63050098  1
  O  O314  1  0.37869023  0.62869750  0.13128012  1
  O  O315  1  0.37334459  0.63686880  0.63146638  1
  O  O316  1  0.88037812  0.13031344  0.13107406  1
  O  O317  1  0.87682576  0.13686138  0.62509329  1
  O  O318  1  0.88120839  0.63146232  0.12402005  1
  O  O319  1  0.88120374  0.62810829  0.63014263  1
  O  O320  1  0.25488789  0.25525329  0.12030020  1
  O  O321  1  0.25798018  0.25867339  0.61964311  1
  O  O322  1  0.25625094  0.75040856  0.11771535  1
  O  O323  1  0.25804548  0.75916152  0.62678122  1
  O  O324  1  0.75585985  0.25481777  0.12014933  1
  O  O325  1  0.75939107  0.25138120  0.61747495  1
  O  O326  1  0.75452393  0.75444004  0.11782759  1
  O  O327  1  0.75312500  0.75358651  0.61731768  1
  O  O328  1  0.24398069  0.25196677  0.38224830  1
  O  O329  1  0.24652281  0.24611658  0.88171165  1
  O  O330  1  0.24404303  0.74118363  0.37407869  1
  O  O331  1  0.24413355  0.74455806  0.88091442  1
  O  O332  1  0.74499798  0.24387213  0.38001626  1
  O  O333  1  0.74913601  0.24023547  0.88128716  1
  O  O334  1  0.74922723  0.74456583  0.38326001  1
  O  O335  1  0.74441863  0.74426864  0.87957405  1
  O  O336  1  0.00151603  0.11851308  0.00818124  1
  O  O337  1  0.00246240  0.11210056  0.50187304  1
  O  O338  1  0.00534039  0.61921276  0.00413890  1
  O  O339  1  -0.00265692  0.61960706  0.50971879  1
  O  O340  1  0.50671851  0.12454344  0.01062528  1
  O  O341  1  0.50655526  0.11977822  0.50552074  1
  O  O342  1  0.50547761  0.61933384  0.00435755  1
  O  O343  1  0.50345389  0.62284020  0.50368471  1
  O  O344  1  0.49513251  0.37544267  0.49015163  1
  O  O345  1  0.49546214  0.38113641  0.99618566  1
  O  O346  1  0.49936540  0.88252051  0.49011889  1
  O  O347  1  0.49340933  0.87480195  0.99206656  1
  O  O348  1  0.99373657  0.38133652  0.49341664  1
  O  O349  1  0.99450923  0.38008878  0.99510237  1
  O  O350  1  0.99789410  0.88208857  0.49336501  1
  O  O351  1  0.99513242  0.87972218  0.99538175  1
  O  O352  1  0.49960832  0.48661244  0.37592218  1
  O  O353  1  0.49460687  0.49551057  0.88136160  1
  O  O354  1  0.49323312  0.99284727  0.37857109  1
  O  O355  1  0.49419671  0.99347699  0.87647597  1
  O  O356  1  0.99342636  0.49530155  0.37864719  1
  O  O357  1  0.99413872  0.49406231  0.88069500  1
  O  O358  1  0.99541835  0.99390613  0.38218152  1
  O  O359  1  0.99960549  0.99299592  0.88315878  1
  O  O360  1  0.00538567  0.00493024  0.12150721  1
  O  O361  1  0.00113938  -0.00234529  0.61351384  1
  O  O362  1  0.00449253  0.50460829  0.11838571  1
  O  O363  1  -0.00190407  0.50980288  0.61927076  1
  O  O364  1  0.50579810  0.00906427  0.12292497  1
  O  O365  1  0.50614487  0.00535413  0.61973991  1
  O  O366  1  0.50552978  0.50469168  0.11897543  1
  O  O367  1  0.51143253  0.50246166  0.62494350  1
  O  O368  1  0.24279678  0.37638241  0.24325730  1
  O  O369  1  0.24212575  0.37674466  0.74493934  1
  O  O370  1  0.24294324  0.88142528  0.24858560  1
  O  O371  1  0.24076029  0.87620660  0.74278858  1
  O  O372  1  0.74407476  0.37987725  0.24391022  1
  O  O373  1  0.74042893  0.38143728  0.75038439  1
  O  O374  1  0.74312124  0.87529711  0.24214351  1
  O  O375  1  0.74351202  0.87902951  0.74427391  1
  O  O376  1  0.25253383  0.11563786  0.25565621  1
  O  O377  1  0.25881835  0.12587570  0.75728587  1
  O  O378  1  0.25762222  0.62421105  0.25731975  1
  O  O379  1  0.25570994  0.62486013  0.75767186  1
  O  O380  1  0.75718031  0.12382297  0.25664959  1
  O  O381  1  0.75032288  0.11910403  0.75921405  1
  O  O382  1  0.75069032  0.61772746  0.25509483  1
  O  O383  1  0.75522330  0.61932831  0.75601760  1
  O  O384  1  0.37715673  0.11216812  0.37372540  1
  O  O385  1  0.37195762  0.12143846  0.87092926  1
  O  O386  1  0.36676842  0.62660764  0.36617764  1
  O  O387  1  0.36972424  0.62116311  0.87068094  1
  O  O388  1  0.87006229  0.12002494  0.37016479  1
  O  O389  1  0.86223388  0.12299563  0.87572541  1
  O  O390  1  0.86694411  0.61711616  0.37200076  1
  O  O391  1  0.87003332  0.61887624  0.87033148  1
  O  O392  1  0.12918411  0.37938350  0.12969927  1
  O  O393  1  0.13083994  0.37618646  0.63496495  1
  O  O394  1  0.12570758  0.88176231  0.13261849  1
  O  O395  1  0.13265198  0.87283861  0.63424180  1
  O  O396  1  0.63011762  0.38003353  0.12884325  1
  O  O397  1  0.62617741  0.38282730  0.63444723  1
  O  O398  1  0.62917151  0.87880767  0.12835204  1
  O  O399  1  0.63001257  0.88104588  0.63035376  1
  O  O400  1  0.11889181  0.25640815  0.25586592  1
  O  O401  1  0.12547574  0.26226445  0.75668709  1
  O  O402  1  0.11808100  0.75507136  0.25430484  1
  O  O403  1  0.12270042  0.76129153  0.75735617  1
  O  O404  1  0.62395770  0.25681911  0.25684966  1
  O  O405  1  0.62557138  0.26256872  0.75044516  1
  O  O406  1  0.62046414  0.75823163  0.25180896  1
  O  O407  1  0.62023298  0.75536234  0.75462398  1
  O  O408  1  0.37738713  0.24697610  0.24163589  1
  O  O409  1  0.37868559  0.24518005  0.74338788  1
  O  O410  1  0.37632005  0.73913259  0.24346084  1
  O  O411  1  0.37922125  0.74645190  0.74314565  1
  O  O412  1  0.88051439  0.24495443  0.24506501  1
  O  O413  1  0.87594751  0.24992596  0.73803015  1
  O  O414  1  0.88107507  0.74884812  0.24194719  1
  O  O415  1  0.87535092  0.74162727  0.74334182  1
  O  O416  1  0.37837474  0.49192646  0.49728012  1
  O  O417  1  0.38088345  0.49520604  0.99533494  1
  O  O418  1  0.38160225  0.99851733  0.49105014  1
  O  O419  1  0.37705202  0.99265307  0.99318729  1
  O  O420  1  0.87874106  0.49404354  0.49350013  1
  O  O421  1  0.87988707  0.49359809  0.99430083  1
  O  O422  1  0.88425413  0.99758641  0.49336309  1
  O  O423  1  0.88273845  0.99219643  0.99970531  1
  O  O424  1  0.11880131  0.00119145  0.00817700  1
  O  O425  1  0.11388781  -0.00024079  0.50049185  1
  O  O426  1  0.11894281  0.50509650  0.00448442  1
  O  O427  1  0.11458528  0.50383285  0.50275728  1
  O  O428  1  0.62310514  0.00602600  0.00681472  1
  O  O429  1  0.62023693  0.00596204  0.50525539  1
  O  O430  1  0.62034542  0.50526674  0.00475504  1
  O  O431  1  0.62461522  0.49927566  0.51242178  1
  O  O432  1  0.37018247  0.37093101  0.11969718  1
  O  O433  1  0.37180755  0.37116937  0.62067349  1
  O  O434  1  0.37465160  0.86802667  0.11860487  1
  O  O435  1  0.36590950  0.86771792  0.62797933  1
  O  O436  1  0.86935013  0.36912294  0.11924049  1
  O  O437  1  0.87319197  0.36676467  0.61790642  1
  O  O438  1  0.86966536  0.86903546  0.11907988  1
  O  O439  1  0.86673011  0.86634791  0.62345905  1
  O  O440  1  0.12669923  0.13605878  0.37990742  1
  O  O441  1  0.13337085  0.13226013  0.87662940  1
  O  O442  1  0.13369763  0.63034963  0.37261453  1
  O  O443  1  0.12886746  0.62991936  0.88011749  1
  O  O444  1  0.62936433  0.12926523  0.37967119  1
  O  O445  1  0.63572069  0.12492234  0.88059259  1
  O  O446  1  0.63248977  0.62660347  0.37662585  1
  O  O447  1  0.63010109  0.62997346  0.87948178  1
