# generated using pymatgen
data_V3Zn3O8
_symmetry_space_group_name_H-M   'P 1'
_cell_length_a   17.08857118
_cell_length_b   17.08939103
_cell_length_c   17.08829006
_cell_angle_alpha   89.99335451
_cell_angle_beta   90.00641258
_cell_angle_gamma   89.99983047
_symmetry_Int_Tables_number   1
_chemical_formula_structural   V3Zn3O8
_chemical_formula_sum   'V96 Zn96 O256'
_cell_volume   4990.34924700
_cell_formula_units_Z   32
loop_
 _symmetry_equiv_pos_site_id
 _symmetry_equiv_pos_as_xyz
  1  'x, y, z'
loop_
 _atom_site_type_symbol
 _atom_site_label
 _atom_site_symmetry_multiplicity
 _atom_site_fract_x
 _atom_site_fract_y
 _atom_site_fract_z
 _atom_site_occupancy
  V  V0  1  0.75134596  0.87401666  0.12333907  1
  V  V1  1  0.49988749  0.12512086  0.12509529  1
  V  V2  1  0.75028525  0.25009404  0.50006374  1
  V  V3  1  0.75083360  0.75070468  0.00106425  1
  V  V4  1  0.24914198  0.37535252  0.12459178  1
  V  V5  1  0.00090786  0.87505890  0.37473409  1
  V  V6  1  0.62550153  -0.00095567  0.12569528  1
  V  V7  1  0.37446179  0.74997164  0.12470611  1
  V  V8  1  0.74904513  0.24897066  0.00010409  1
  V  V9  1  0.49950313  0.87489112  0.87456266  1
  V  V10  1  0.62382908  0.37416675  0.75107602  1
  V  V11  1  -0.00013077  0.62454192  0.62567149  1
  V  V12  1  0.50010844  0.37462558  0.87520793  1
  V  V13  1  0.37566006  0.00124070  0.37285939  1
  V  V14  1  -0.00043044  -0.00079020  -0.00075045  1
  V  V15  1  0.87621690  0.87487900  0.50007950  1
  V  V16  1  0.12535786  0.87651326  0.24926434  1
  V  V17  1  0.12408177  0.50032726  0.12576317  1
  V  V18  1  -0.00169524  0.62570490  0.12602327  1
  V  V19  1  -0.00112830  0.37414531  0.87583653  1
  V  V20  1  -0.00102895  0.49890241  0.00022092  1
  V  V21  1  0.12424535  0.37539212  0.75045220  1
  V  V22  1  0.37396308  0.62513151  0.24941420  1
  V  V23  1  0.00012122  0.50064852  0.50083618  1
  V  V24  1  0.75138994  0.00088253  0.25046739  1
  V  V25  1  0.49852699  0.24992163  0.24955159  1
  V  V26  1  0.25109733  0.25081397  0.50067301  1
  V  V27  1  0.62408002  0.75025884  0.87447249  1
  V  V28  1  0.87491844  0.49965626  0.37688048  1
  V  V29  1  0.49879530  0.62606945  0.12502584  1
  V  V30  1  0.12566660  0.75098477  0.37513270  1
  V  V31  1  0.62475341  0.62411293  0.50061371  1
  V  V32  1  0.87482336  0.24932938  0.12634734  1
  V  V33  1  0.24946337  0.50022424  0.74988443  1
  V  V34  1  0.24882917  0.62530130  0.87561338  1
  V  V35  1  0.74917487  0.62401134  0.37614528  1
  V  V36  1  0.00024699  0.24855854  0.74929896  1
  V  V37  1  -0.00004251  0.87498754  0.87498775  1
  V  V38  1  0.87534310  0.62585964  0.24997758  1
  V  V39  1  0.37470984  0.12467899  0.75024393  1
  V  V40  1  0.75195035  0.87430480  0.62381652  1
  V  V41  1  0.00033724  0.12533709  0.62552303  1
  V  V42  1  0.12523950  0.12487341  0.49920412  1
  V  V43  1  0.62441880  0.75014779  0.37472724  1
  V  V44  1  0.00017932  0.37603836  0.37628607  1
  V  V45  1  0.37482140  0.62530286  0.74967067  1
  V  V46  1  0.00162238  0.00038774  0.49980117  1
  V  V47  1  0.37680908  0.87532674  0.49887004  1
  V  V48  1  0.49961575  0.50008925  0.00005389  1
  V  V49  1  -0.00080538  0.75010535  0.74938111  1
  V  V50  1  0.37652095  0.74989294  0.62378796  1
  V  V51  1  0.25003679  0.50150983  0.25069745  1
  V  V52  1  0.49863893  0.24947911  0.75062360  1
  V  V53  1  0.24981336  0.87730743  0.12345711  1
  V  V54  1  0.49968916  -0.00049705  -0.00062638  1
  V  V55  1  0.87476990  0.37500379  0.00014085  1
  V  V56  1  0.62481783  0.62529406  -0.00027349  1
  V  V57  1  0.25120000  0.74967746  0.49835999  1
  V  V58  1  0.75030666  0.62475156  0.87488910  1
  V  V59  1  0.37403935  0.24963097  0.62539552  1
  V  V60  1  0.25023831  0.62609737  0.37394366  1
  V  V61  1  0.24983372  0.25107063  0.00053899  1
  V  V62  1  0.25079917  0.87470085  0.62496816  1
  V  V63  1  0.75089452  0.00049886  0.75012033  1
  V  V64  1  0.74981428  0.37456683  0.12475981  1
  V  V65  1  0.50112219  0.62419937  0.62432260  1
  V  V66  1  0.37467507  0.50025772  0.87487887  1
  V  V67  1  0.62469953  0.50057667  0.12518830  1
  V  V68  1  0.12464131  0.25112588  0.37509446  1
  V  V69  1  0.37402743  0.37503822  0.00087479  1
  V  V70  1  0.62398049  0.37479485  0.25042120  1
  V  V71  1  0.25053314  0.37482842  0.62482270  1
  V  V72  1  0.50135575  0.00035771  0.49988590  1
  V  V73  1  0.87401764  0.62334133  0.75093439  1
  V  V74  1  0.12409706  0.37561745  0.25116104  1
  V  V75  1  0.12495642  0.24990413  0.87484092  1
  V  V76  1  0.62521737  0.12506573  0.49966895  1
  V  V77  1  0.74918099  0.49968735  0.25073167  1
  V  V78  1  0.50074883  0.75038346  0.75015304  1
  V  V79  1  0.62406102  0.50000216  0.62527871  1
  V  V80  1  0.25049555  0.12509369  0.37419262  1
  V  V81  1  0.74961298  0.37407682  0.62696871  1
  V  V82  1  0.62584448  0.12416434  0.00030057  1
  V  V83  1  0.37524482  0.00001617  0.87442076  1
  V  V84  1  0.62555148  0.00075729  0.62303207  1
  V  V85  1  0.25021869  0.12421791  0.87464361  1
  V  V86  1  0.87489947  0.00084935  0.37357701  1
  V  V87  1  0.12631364  0.87509369  0.74798286  1
  V  V88  1  0.75065070  0.12414159  0.87444402  1
  V  V89  1  0.12449930  0.50104512  0.62520761  1
  V  V90  1  0.62526572  0.87445930  0.25033155  1
  V  V91  1  0.12444975  0.12592378  -0.00033858  1
  V  V92  1  0.24905252  0.74918066  -0.00013645  1
  V  V93  1  -0.00084722  0.12560700  0.12664074  1
  V  V94  1  0.62437402  0.25086730  0.37523887  1
  V  V95  1  0.12408656  0.62457258  0.00010267  1
  Zn  Zn96  1  0.87524002  0.25061099  0.62620428  1
  Zn  Zn97  1  0.37407108  0.87515295  -0.00071635  1
  Zn  Zn98  1  0.87465181  -0.00113559  0.87428258  1
  Zn  Zn99  1  -0.00257742  0.75077543  0.24899981  1
  Zn  Zn100  1  0.87570996  0.87278134  0.00059992  1
  Zn  Zn101  1  0.87597270  0.75110912  0.12527113  1
  Zn  Zn102  1  0.12514115  0.62632387  0.50002409  1
  Zn  Zn103  1  0.25148555  -0.00035044  0.74841560  1
  Zn  Zn104  1  0.75218514  0.12578996  0.37330872  1
  Zn  Zn105  1  0.49641115  0.37780792  0.37676046  1
  Zn  Zn106  1  0.87433773  0.12680596  0.25239771  1
  Zn  Zn107  1  0.87595969  0.37470518  0.50202718  1
  Zn  Zn108  1  0.87502424  0.74863484  0.62222794  1
  Zn  Zn109  1  0.74978748  0.49799597  0.75285164  1
  Zn  Zn110  1  0.87625301  0.12551696  0.75012275  1
  Zn  Zn111  1  0.49914474  0.75109561  0.24883199  1
  Zn  Zn112  1  0.37699799  0.37617019  0.49786766  1
  Zn  Zn113  1  0.25172490  0.00353448  0.24701408  1
  Zn  Zn114  1  0.49734194  0.49676651  0.49785530  1
  Zn  Zn115  1  0.87299232  0.49862438  0.87625829  1
  Zn  Zn116  1  0.62407926  0.25021712  0.87542401  1
  Zn  Zn117  1  0.12825322  -0.00064096  0.62328364  1
  Zn  Zn118  1  0.49928012  0.12488827  0.62574137  1
  Zn  Zn119  1  0.37302762  0.12586809  0.24754707  1
  Zn  Zn120  1  0.75193907  0.74883831  0.50090378  1
  Zn  Zn121  1  -0.00194251  0.25043614  0.25238864  1
  Zn  Zn122  1  0.37557706  0.49893374  0.37787191  1
  Zn  Zn123  1  0.50073145  0.87515841  0.37292291  1
  Zn  Zn124  1  0.62546636  0.87442662  0.74878321  1
  Zn  Zn125  1  0.12501887  0.74861798  0.87546193  1
  Zn  Zn126  1  0.12615492  0.00186870  0.12574885  1
  Zn  Zn127  1  0.37394112  0.24877754  0.12527545  1
  Zn  Zn128  1  0.18608903  0.18915818  0.18882620  1
  Zn  Zn129  1  0.18732712  0.18726397  0.68766464  1
  Zn  Zn130  1  0.18638784  0.68936869  0.18733992  1
  Zn  Zn131  1  0.18748468  0.68886617  0.68671566  1
  Zn  Zn132  1  0.68689752  0.18605652  0.18860695  1
  Zn  Zn133  1  0.68391817  0.18776219  0.68751212  1
  Zn  Zn134  1  0.68816692  0.68788430  0.18835029  1
  Zn  Zn135  1  0.68790129  0.68795557  0.68808716  1
  Zn  Zn136  1  0.31314215  0.31412915  0.31330914  1
  Zn  Zn137  1  0.31252786  0.31217540  0.81269446  1
  Zn  Zn138  1  0.31272938  0.81324771  0.31073173  1
  Zn  Zn139  1  0.31325947  0.81189988  0.81306581  1
  Zn  Zn140  1  0.81378893  0.31326756  0.31304041  1
  Zn  Zn141  1  0.81439262  0.30858536  0.81208155  1
  Zn  Zn142  1  0.81188169  0.81228235  0.31186516  1
  Zn  Zn143  1  0.81386649  0.81071173  0.81248211  1
  Zn  Zn144  1  0.18861434  0.43936220  0.43864053  1
  Zn  Zn145  1  0.18613666  0.43829547  0.93758234  1
  Zn  Zn146  1  0.18967074  0.93807667  0.43729512  1
  Zn  Zn147  1  0.18627697  0.93870387  0.93667918  1
  Zn  Zn148  1  0.68341687  0.43678340  0.43846776  1
  Zn  Zn149  1  0.68761208  0.43814126  0.93683518  1
  Zn  Zn150  1  0.68920696  0.93743121  0.43654757  1
  Zn  Zn151  1  0.68539431  0.93574258  0.93766557  1
  Zn  Zn152  1  0.31490681  0.06336659  0.06116695  1
  Zn  Zn153  1  0.31289351  0.06205327  0.56233709  1
  Zn  Zn154  1  0.31169182  0.56238997  0.06330832  1
  Zn  Zn155  1  0.31301283  0.56251716  0.56043244  1
  Zn  Zn156  1  0.81454016  0.06023894  0.06261180  1
  Zn  Zn157  1  0.81481414  0.06293599  0.56102695  1
  Zn  Zn158  1  0.81283769  0.56293718  0.06290706  1
  Zn  Zn159  1  0.81177704  0.56057172  0.56323327  1
  Zn  Zn160  1  0.43578503  0.43764500  0.18846049  1
  Zn  Zn161  1  0.43760009  0.43679470  0.68580707  1
  Zn  Zn162  1  0.43914418  0.93635518  0.18815142  1
  Zn  Zn163  1  0.43849704  0.93784645  0.68759178  1
  Zn  Zn164  1  0.93677626  0.43818127  0.18911009  1
  Zn  Zn165  1  0.93623177  0.43772484  0.68794696  1
  Zn  Zn166  1  0.93618632  0.93750045  0.18714244  1
  Zn  Zn167  1  0.93717846  0.94023502  0.68670215  1
  Zn  Zn168  1  0.06326125  0.06172071  0.31221439  1
  Zn  Zn169  1  0.06533090  0.06045599  0.81148901  1
  Zn  Zn170  1  0.06260314  0.56363778  0.31326757  1
  Zn  Zn171  1  0.06101244  0.56131104  0.81391581  1
  Zn  Zn172  1  0.56415416  0.06462616  0.31357328  1
  Zn  Zn173  1  0.56335991  0.06225329  0.81139322  1
  Zn  Zn174  1  0.55912626  0.56285113  0.31294446  1
  Zn  Zn175  1  0.56316583  0.56157571  0.81112442  1
  Zn  Zn176  1  0.43812085  0.18766333  0.43825100  1
  Zn  Zn177  1  0.43679475  0.18792750  0.93785996  1
  Zn  Zn178  1  0.43906094  0.68468707  0.43641402  1
  Zn  Zn179  1  0.43600157  0.68866693  0.93831731  1
  Zn  Zn180  1  0.93647421  0.18811149  0.43844324  1
  Zn  Zn181  1  0.93524963  0.18783460  0.93781966  1
  Zn  Zn182  1  0.93820142  0.68878454  0.43765484  1
  Zn  Zn183  1  0.93673540  0.68876536  0.93776773  1
  Zn  Zn184  1  0.06236466  0.31192036  0.06346847  1
  Zn  Zn185  1  0.06412437  0.31304338  0.56183610  1
  Zn  Zn186  1  0.06322728  0.80981961  0.06356041  1
  Zn  Zn187  1  0.06244590  0.81061071  0.56249297  1
  Zn  Zn188  1  0.56295419  0.31200206  0.06291264  1
  Zn  Zn189  1  0.56019629  0.31252829  0.56312998  1
  Zn  Zn190  1  0.56239847  0.81302202  0.06164236  1
  Zn  Zn191  1  0.56411298  0.81311649  0.56055121  1
  O  O192  1  0.11554887  0.12487474  0.11831549  1
  O  O193  1  0.11604342  0.12376882  0.61911125  1
  O  O194  1  0.11946327  0.61915553  0.12020351  1
  O  O195  1  0.11801941  0.61851828  0.62589572  1
  O  O196  1  0.62032496  0.11803548  0.11907774  1
  O  O197  1  0.62363900  0.11771764  0.61785361  1
  O  O198  1  0.61969507  0.61965316  0.11942517  1
  O  O199  1  0.62125859  0.62054224  0.62099568  1
  O  O200  1  0.37684279  0.37901998  0.37787651  1
  O  O201  1  0.37952847  0.38156862  0.88063583  1
  O  O202  1  0.37576644  0.88434170  0.37997623  1
  O  O203  1  0.38126119  0.88126255  0.87637127  1
  O  O204  1  0.88141103  0.38279333  0.37705360  1
  O  O205  1  0.88113260  0.37430690  0.88203250  1
  O  O206  1  0.88116260  0.88070596  0.37970436  1
  O  O207  1  0.88900615  0.87661010  0.87509951  1
  O  O208  1  0.26108467  0.00587303  0.37520720  1
  O  O209  1  0.25641309  0.00665202  0.87410455  1
  O  O210  1  0.24845754  0.50883677  0.36701178  1
  O  O211  1  0.25504323  0.50498878  0.86955449  1
  O  O212  1  0.75741417  0.00068882  0.36855750  1
  O  O213  1  0.74959189  0.00590671  0.86703924  1
  O  O214  1  0.75381348  0.50410498  0.37003962  1
  O  O215  1  0.75259886  0.50832075  0.87310929  1
  O  O216  1  0.24263076  0.49514574  0.12974869  1
  O  O217  1  0.24423185  0.49588898  0.63207991  1
  O  O218  1  0.24820605  0.98994416  0.12399411  1
  O  O219  1  0.24851388  0.99061061  0.62695021  1
  O  O220  1  0.74390048  0.49441519  0.13019243  1
  O  O221  1  0.74370377  0.48856017  0.62724877  1
  O  O222  1  0.74439729  0.99433935  0.12902352  1
  O  O223  1  0.74688249  0.99389032  0.63140103  1
  O  O224  1  0.00692819  0.37560377  0.25756443  1
  O  O225  1  0.00529474  0.36936525  0.75526425  1
  O  O226  1  0.00997594  0.87538357  0.25490208  1
  O  O227  1  0.00636620  0.87193487  0.75555680  1
  O  O228  1  0.50663840  0.36447569  0.24639153  1
  O  O229  1  0.50361337  0.36968055  0.75637004  1
  O  O230  1  0.50932641  0.87137159  0.25222033  1
  O  O231  1  0.50220240  0.86783678  0.75578378  1
  O  O232  1  0.50211545  0.13506310  0.24335930  1
  O  O233  1  0.49310271  0.13113962  0.74999471  1
  O  O234  1  0.49286302  0.62723946  0.24088267  1
  O  O235  1  0.49394655  0.63084052  0.74533114  1
  O  O236  1  0.99999382  0.12499604  0.23679133  1
  O  O237  1  1.00242975  0.12868409  0.74154509  1
  O  O238  1  0.99341030  0.62504245  0.24401371  1
  O  O239  1  0.99264738  0.62932040  0.74690459  1
  O  O240  1  0.36756116  0.25752500  0.00096320  1
  O  O241  1  0.36720168  0.24893962  0.50783780  1
  O  O242  1  0.36683016  0.75192153  0.00672650  1
  O  O243  1  0.37155949  0.75539200  0.50441882  1
  O  O244  1  0.86845453  0.25575891  0.00632416  1
  O  O245  1  0.86260180  0.25296556  0.50303702  1
  O  O246  1  0.86601058  0.75187493  0.00258792  1
  O  O247  1  0.87186877  0.75882807  0.50199639  1
  O  O248  1  0.13136347  0.24418207  0.49438608  1
  O  O249  1  0.13001685  0.24582155  0.99359912  1
  O  O250  1  0.13298690  0.75020345  0.49284821  1
  O  O251  1  0.13146299  0.74168385  0.99837716  1
  O  O252  1  0.63281380  0.24518328  0.49602483  1
  O  O253  1  0.63187446  0.24248120  0.99910644  1
  O  O254  1  0.62832660  0.74440701  0.49079347  1
  O  O255  1  0.62984148  0.74358235  0.99399974  1
  O  O256  1  0.50104882  0.24398402  0.13358458  1
  O  O257  1  0.49237988  0.24793347  0.63361407  1
  O  O258  1  0.49300414  0.74343967  0.12366375  1
  O  O259  1  0.49585088  0.74513446  0.63011776  1
  O  O260  1  0.99429567  0.24007974  0.12393376  1
  O  O261  1  1.00164303  0.24129076  0.62999834  1
  O  O262  1  0.99765945  0.74125514  0.12775517  1
  O  O263  1  0.99784030  0.74317832  0.63193825  1
  O  O264  1  0.00669635  0.25722272  0.37609788  1
  O  O265  1  0.00574525  0.25399614  0.87056818  1
  O  O266  1  0.00738481  0.75806434  0.37327587  1
  O  O267  1  0.00258970  0.75952169  0.86928824  1
  O  O268  1  0.50612733  0.24911223  0.36370221  1
  O  O269  1  0.50043235  0.25739023  0.86960100  1
  O  O270  1  0.51361893  0.75028834  0.37285085  1
  O  O271  1  0.50406492  0.75421243  0.87009517  1
  O  O272  1  0.24405490  0.13048198  0.49466946  1
  O  O273  1  0.24408436  0.13091873  0.99478286  1
  O  O274  1  0.24842776  0.63334562  0.49316540  1
  O  O275  1  0.24384146  0.62853552  0.99513639  1
  O  O276  1  0.74490068  0.13555831  0.50113518  1
  O  O277  1  0.74587161  0.12766602  0.99332448  1
  O  O278  1  0.74351859  0.62602162  0.49424733  1
  O  O279  1  0.74352359  0.62979195  0.99524122  1
  O  O280  1  0.25394363  0.37113125  0.00441364  1
  O  O281  1  0.24795007  0.36743348  0.50857248  1
  O  O282  1  0.24768837  0.86942346  0.00904836  1
  O  O283  1  0.25714610  0.86911154  0.50471003  1
  O  O284  1  0.75410751  0.36935463  0.00550084  1
  O  O285  1  0.74724646  0.36604273  0.51033113  1
  O  O286  1  0.75059142  0.86919495  0.00511771  1
  O  O287  1  0.75707028  0.87714806  0.51044148  1
  O  O288  1  0.13021831  0.49529650  0.24438926  1
  O  O289  1  0.12983361  0.49442315  0.74583026  1
  O  O290  1  0.12848413  0.98789239  0.24855221  1
  O  O291  1  0.12781778  0.98606630  0.74771583  1
  O  O292  1  0.63022384  0.49540223  0.24380412  1
  O  O293  1  0.62736015  0.49270679  0.74366312  1
  O  O294  1  0.63057076  0.99462346  0.24503193  1
  O  O295  1  0.63643969  0.99865693  0.74352221  1
  O  O296  1  0.37500656  0.00160618  0.26166430  1
  O  O297  1  0.37437283  0.00645757  0.75668893  1
  O  O298  1  0.36580518  0.50843905  0.24771403  1
  O  O299  1  0.36912993  0.50569111  0.75542058  1
  O  O300  1  0.86921485  0.00124215  0.25638467  1
  O  O301  1  0.86281285  0.00408407  0.75129993  1
  O  O302  1  0.86801276  0.50503036  0.25664716  1
  O  O303  1  0.87381918  0.51192626  0.75318538  1
  O  O304  1  0.12029519  0.37086784  0.37045808  1
  O  O305  1  0.11926354  0.36959989  0.87008615  1
  O  O306  1  0.12211091  0.87151459  0.36712705  1
  O  O307  1  0.11596795  0.87374943  0.86611290  1
  O  O308  1  0.62366918  0.36797753  0.36655152  1
  O  O309  1  0.61766798  0.37431044  0.86972811  1
  O  O310  1  0.62610832  0.86557267  0.37000908  1
  O  O311  1  0.61775621  0.86761929  0.87239658  1
  O  O312  1  0.38389133  0.12763730  0.12693807  1
  O  O313  1  0.37520006  0.13128048  0.63237889  1
  O  O314  1  0.37891094  0.63037424  0.12901987  1
  O  O315  1  0.38002681  0.63136556  0.63123617  1
  O  O316  1  0.88498463  0.13051786  0.12347699  1
  O  O317  1  0.88976866  0.12636076  0.62473133  1
  O  O318  1  0.88072759  0.62422222  0.13254819  1
  O  O319  1  0.87984625  0.62484985  0.63483479  1
  O  O320  1  0.24934574  0.25739719  0.11795513  1
  O  O321  1  0.25359686  0.25532581  0.62070981  1
  O  O322  1  0.25406487  0.75815017  0.11953561  1
  O  O323  1  0.25734562  0.75456595  0.61894146  1
  O  O324  1  0.75431154  0.25497612  0.11972338  1
  O  O325  1  0.74822594  0.25800746  0.61744889  1
  O  O326  1  0.74866031  0.75636824  0.11795012  1
  O  O327  1  0.75130466  0.76351437  0.62501080  1
  O  O328  1  0.24398427  0.24437482  0.38036687  1
  O  O329  1  0.24396525  0.24506973  0.88069140  1
  O  O330  1  0.24536413  0.74651690  0.37944223  1
  O  O331  1  0.24901533  0.74264705  0.88137061  1
  O  O332  1  0.74459105  0.25109329  0.38533602  1
  O  O333  1  0.74823584  0.23989573  0.88099877  1
  O  O334  1  0.73952948  0.74351829  0.37590413  1
  O  O335  1  0.74384337  0.74493604  0.88019912  1
  O  O336  1  0.00420275  0.11857521  0.00579407  1
  O  O337  1  0.00616683  0.12102195  0.50734739  1
  O  O338  1  0.00455636  0.61880466  0.00476317  1
  O  O339  1  0.00152493  0.61889334  0.50732490  1
  O  O340  1  0.50614084  0.11966758  0.00433265  1
  O  O341  1  0.50753906  0.11873358  0.50245466  1
  O  O342  1  0.50486052  0.61912558  0.00442259  1
  O  O343  1  0.50775714  0.62511399  0.50872351  1
  O  O344  1  0.49704941  0.37664076  0.49695947  1
  O  O345  1  0.49482409  0.38085993  0.99583063  1
  O  O346  1  0.49417688  0.88176863  0.49701054  1
  O  O347  1  0.49845540  0.88201648  0.99330581  1
  O  O348  1  0.99908381  0.38217868  0.49482855  1
  O  O349  1  0.99469656  0.37878876  0.99571966  1
  O  O350  1  0.99635407  0.88077483  0.49495254  1
  O  O351  1  1.00385792  0.88239936  0.99169120  1
  O  O352  1  0.49568557  0.49765641  0.37733121  1
  O  O353  1  0.49391313  0.49532203  0.88047106  1
  O  O354  1  0.49142977  1.00016283  0.38068517  1
  O  O355  1  0.49601619  0.99488514  0.87977726  1
  O  O356  1  0.99522277  0.49596551  0.38137169  1
  O  O357  1  0.99858879  0.49133276  0.88265528  1
  O  O358  1  0.99561462  0.99429104  0.38052791  1
  O  O359  1  1.00003718  0.99264988  0.88195139  1
  O  O360  1  0.00152306  0.00807282  0.11563385  1
  O  O361  1  0.00318109  0.00897069  0.61881609  1
  O  O362  1  0.00537050  0.50454084  0.11953948  1
  O  O363  1  0.00529967  0.50452095  0.62124995  1
  O  O364  1  0.50595635  0.00462673  0.11963024  1
  O  O365  1  0.50755816  0.00055908  0.61821147  1
  O  O366  1  0.50516410  0.50554639  0.11907316  1
  O  O367  1  0.50719777  0.50799613  0.62689747  1
  O  O368  1  0.24305091  0.38079025  0.24378104  1
  O  O369  1  0.24354368  0.38080988  0.74620652  1
  O  O370  1  0.24217426  0.87654952  0.23986483  1
  O  O371  1  0.24119379  0.87291065  0.74461659  1
  O  O372  1  0.74437764  0.38031068  0.24383521  1
  O  O373  1  0.74426802  0.37236962  0.74184368  1
  O  O374  1  0.74435579  0.88117982  0.24365655  1
  O  O375  1  0.75094371  0.88369657  0.74205277  1
  O  O376  1  0.25155205  0.12318804  0.25729778  1
  O  O377  1  0.25516447  0.12392699  0.75756988  1
  O  O378  1  0.25396088  0.62104499  0.25343263  1
  O  O379  1  0.25525435  0.62023023  0.75510608  1
  O  O380  1  0.75246806  0.11636080  0.25134333  1
  O  O381  1  0.74923961  0.11761578  0.75715321  1
  O  O382  1  0.75426389  0.61768384  0.25578140  1
  O  O383  1  0.75909552  0.62490948  0.75524737  1
  O  O384  1  0.36953618  0.11555531  0.37492855  1
  O  O385  1  0.36922780  0.11994956  0.87036372  1
  O  O386  1  0.36706275  0.62671722  0.36638260  1
  O  O387  1  0.36946314  0.61924676  0.86966705  1
  O  O388  1  0.87405713  0.11664796  0.37356679  1
  O  O389  1  0.86217132  0.12198447  0.87446363  1
  O  O390  1  0.86918449  0.61902628  0.37052748  1
  O  O391  1  0.86984885  0.62427674  0.86606074  1
  O  O392  1  0.12907580  0.38091238  0.13006535  1
  O  O393  1  0.13011633  0.38084964  0.63217261  1
  O  O394  1  0.13315439  0.87539487  0.13245860  1
  O  O395  1  0.13070847  0.87441078  0.63318606  1
  O  O396  1  0.63090002  0.38119554  0.12940440  1
  O  O397  1  0.63226571  0.37911247  0.63158447  1
  O  O398  1  0.63054034  0.88065673  0.12992281  1
  O  O399  1  0.63611425  0.88168086  0.62500279  1
  O  O400  1  0.12181884  0.25797374  0.25764114  1
  O  O401  1  0.12019170  0.25611428  0.75617415  1
  O  O402  1  0.12468194  0.76237814  0.25574070  1
  O  O403  1  0.11910251  0.76042530  0.75159256  1
  O  O404  1  0.61824015  0.25499030  0.25420343  1
  O  O405  1  0.61686592  0.25624053  0.75264271  1
  O  O406  1  0.62515914  0.75511886  0.25919131  1
  O  O407  1  0.61831993  0.75081071  0.75670408  1
  O  O408  1  0.38694433  0.24855212  0.24746087  1
  O  O409  1  0.37891475  0.24406958  0.74600167  1
  O  O410  1  0.37550814  0.74371158  0.24206010  1
  O  O411  1  0.38063625  0.74416827  0.74391242  1
  O  O412  1  0.87816858  0.24774886  0.24230402  1
  O  O413  1  0.88437691  0.24474923  0.74633408  1
  O  O414  1  0.87610258  0.74090076  0.24839728  1
  O  O415  1  0.88053769  0.73898532  0.74799182  1
  O  O416  1  0.37743989  0.49630741  0.49829390  1
  O  O417  1  0.37994759  0.49546455  0.99445352  1
  O  O418  1  0.38101607  0.99535747  0.49188749  1
  O  O419  1  0.38249493  0.99846853  0.99216979  1
  O  O420  1  0.88128917  0.49803691  0.49403861  1
  O  O421  1  0.88119242  0.49221334  1.00011894  1
  O  O422  1  0.88213554  0.99444875  0.49381209  1
  O  O423  1  0.88863527  0.99681118  0.99699290  1
  O  O424  1  0.11403984  0.00695478  0.00010229  1
  O  O425  1  0.11895337  0.00659280  0.49961540  1
  O  O426  1  0.11897488  0.50465241  0.00632752  1
  O  O427  1  0.11871889  0.50300524  0.50808375  1
  O  O428  1  0.61957809  0.00510843  0.00610899  1
  O  O429  1  0.62138842  0.00515570  0.50342271  1
  O  O430  1  0.61897735  0.50542878  0.00567633  1
  O  O431  1  0.62369642  0.50724960  0.50826858  1
  O  O432  1  0.36680982  0.37454954  0.11770788  1
  O  O433  1  0.36603250  0.36688317  0.62734411  1
  O  O434  1  0.36443748  0.87026116  0.12446471  1
  O  O435  1  0.37105309  0.86874356  0.61930209  1
  O  O436  1  0.86900467  0.36989782  0.12030833  1
  O  O437  1  0.86249135  0.37336111  0.62447084  1
  O  O438  1  0.86703606  0.87265043  0.12217328  1
  O  O439  1  0.86694166  0.87581065  0.61967938  1
  O  O440  1  0.12948816  0.13052306  0.37997144  1
  O  O441  1  0.12980661  0.13072866  0.87982663  1
  O  O442  1  0.13184152  0.63369054  0.37507960  1
  O  O443  1  0.13107371  0.62489947  0.88146842  1
  O  O444  1  0.62934461  0.13263512  0.38222138  1
  O  O445  1  0.63587083  0.12467454  0.88110019  1
  O  O446  1  0.63020539  0.63187955  0.37925967  1
  O  O447  1  0.62919882  0.63026902  0.88038426  1
