# generated using pymatgen
data_V3Zn3O8
_symmetry_space_group_name_H-M   'P 1'
_cell_length_a   17.08671637
_cell_length_b   17.08877471
_cell_length_c   17.08782195
_cell_angle_alpha   90.00905487
_cell_angle_beta   89.98757823
_cell_angle_gamma   89.99466676
_symmetry_Int_Tables_number   1
_chemical_formula_structural   V3Zn3O8
_chemical_formula_sum   'V96 Zn96 O256'
_cell_volume   4989.49081117
_cell_formula_units_Z   32
loop_
 _symmetry_equiv_pos_site_id
 _symmetry_equiv_pos_as_xyz
  1  'x, y, z'
loop_
 _atom_site_type_symbol
 _atom_site_label
 _atom_site_symmetry_multiplicity
 _atom_site_fract_x
 _atom_site_fract_y
 _atom_site_fract_z
 _atom_site_occupancy
  V  V0  1  0.12590405  -0.00074136  0.12563723  1
  V  V1  1  0.87456473  0.74987718  0.62587580  1
  V  V2  1  0.12541109  0.62411509  0.50011415  1
  V  V3  1  0.37667270  0.62577083  0.24914758  1
  V  V4  1  0.49870864  0.24855080  0.74913143  1
  V  V5  1  0.62470805  0.87543356  0.25039270  1
  V  V6  1  0.75067934  0.87567481  0.12568378  1
  V  V7  1  0.25133122  0.75067545  0.00185921  1
  V  V8  1  0.25110739  0.62403861  0.37479106  1
  V  V9  1  0.62565518  0.49954333  0.62569786  1
  V  V10  1  0.74985729  0.24947118  -0.00018523  1
  V  V11  1  0.37466859  0.25010597  0.12429486  1
  V  V12  1  -0.00095064  0.00016765  0.50021531  1
  V  V13  1  0.25063011  0.50004261  0.25067263  1
  V  V14  1  0.62506807  0.62492508  -0.00019082  1
  V  V15  1  0.87616096  0.87503081  0.00094342  1
  V  V16  1  0.62520251  0.75081029  0.37408858  1
  V  V17  1  0.62247815  0.00021181  0.62442855  1
  V  V18  1  0.12513547  0.74990383  0.37527916  1
  V  V19  1  0.49955008  0.87522342  0.37448804  1
  V  V20  1  0.74937905  0.62607192  0.37469518  1
  V  V21  1  0.87392404  0.00075365  0.37396657  1
  V  V22  1  0.37484556  0.62488500  0.74972924  1
  V  V23  1  0.12476610  0.87400777  0.75035090  1
  V  V24  1  0.87536177  0.62592662  0.74989329  1
  V  V25  1  0.62393575  0.12451046  0.50003662  1
  V  V26  1  0.74869333  0.87473619  0.62511285  1
  V  V27  1  0.87493764  0.87465674  0.50038662  1
  V  V28  1  0.87324938  0.00233068  0.87370728  1
  V  V29  1  0.49947232  0.62469305  0.62322428  1
  V  V30  1  0.74932287  0.50000829  0.74993301  1
  V  V31  1  0.00055767  0.50070486  0.50066724  1
  V  V32  1  -0.00316604  0.25020887  0.74993934  1
  V  V33  1  0.37380756  0.87487775  0.49878487  1
  V  V34  1  0.37557450  0.37384565  0.50100349  1
  V  V35  1  0.12535073  0.50037265  0.62467965  1
  V  V36  1  0.24935487  0.12495713  0.37573220  1
  V  V37  1  0.62548002  0.75071944  0.87498076  1
  V  V38  1  0.87554462  0.50004394  0.87526491  1
  V  V39  1  0.62533094  0.00106459  0.12428919  1
  V  V40  1  0.62604586  0.49936957  0.12423016  1
  V  V41  1  0.00029540  0.87473893  0.37605355  1
  V  V42  1  0.24947509  0.12334718  0.87278288  1
  V  V43  1  0.24992813  0.37234508  0.62518760  1
  V  V44  1  0.00061097  0.87432434  0.87511918  1
  V  V45  1  0.50071905  0.87551675  0.87466044  1
  V  V46  1  0.75135260  0.00126508  0.25071499  1
  V  V47  1  0.75021627  0.62538560  0.87516453  1
  V  V48  1  0.37416881  0.12484412  0.25098811  1
  V  V49  1  0.37517537  0.87491268  0.00035055  1
  V  V50  1  0.37556625  0.49874448  0.87633167  1
  V  V51  1  0.25005853  0.62445075  0.87547730  1
  V  V52  1  0.87585372  0.74997128  0.12537709  1
  V  V53  1  0.00034206  0.37530636  0.37506506  1
  V  V54  1  0.87579194  0.62482468  0.25018495  1
  V  V55  1  0.87631992  0.37562014  -0.00072185  1
  V  V56  1  0.12589805  0.12459841  -0.00052152  1
  V  V57  1  0.12628155  0.62485007  0.00023702  1
  V  V58  1  0.12571259  0.37507578  0.25066076  1
  V  V59  1  0.00088241  0.62450471  0.12534772  1
  V  V60  1  0.24937862  0.87428118  0.62490439  1
  V  V61  1  0.49919664  0.49900072  -0.00143408  1
  V  V62  1  0.37418567  0.00009822  0.37447608  1
  V  V63  1  -0.00353359  0.12526281  0.62474103  1
  V  V64  1  0.62540009  0.12517518  0.00042442  1
  V  V65  1  0.24962626  0.50028983  0.74974751  1
  V  V66  1  -0.00005295  0.25030612  0.24911751  1
  V  V67  1  0.50038659  0.62539195  0.12499632  1
  V  V68  1  0.62418465  0.25095806  0.87467447  1
  V  V69  1  0.50030890  0.37673134  0.37584527  1
  V  V70  1  0.12610481  0.87575107  0.24932748  1
  V  V71  1  0.00085038  0.74955668  0.25059494  1
  V  V72  1  0.12536393  0.24985599  0.37591178  1
  V  V73  1  0.62764072  0.24953445  0.37599660  1
  V  V74  1  0.74959526  0.74937961  0.49900515  1
  V  V75  1  0.25005856  0.74995252  0.50043959  1
  V  V76  1  0.00056421  0.12612380  0.12571102  1
  V  V77  1  0.87165857  0.37376438  0.50232579  1
  V  V78  1  0.49935093  0.74969999  0.75005563  1
  V  V79  1  0.12354303  0.12535406  0.49915569  1
  V  V80  1  0.87489905  0.50053729  0.37501130  1
  V  V81  1  -0.00068707  0.75012037  0.75073279  1
  V  V82  1  0.75060290  0.75003079  0.00041047  1
  V  V83  1  0.50101697  0.00023551  -0.00038163  1
  V  V84  1  0.75018132  0.49997663  0.24885556  1
  V  V85  1  0.12523934  0.25051597  0.87410269  1
  V  V86  1  0.00026076  0.49969413  -0.00063920  1
  V  V87  1  0.24919898  -0.00176076  0.74957315  1
  V  V88  1  0.49977759  0.24942912  0.24996388  1
  V  V89  1  0.12582037  0.49928257  0.12515772  1
  V  V90  1  0.75005099  0.37542553  0.12507939  1
  V  V91  1  0.00046333  -0.00016741  0.00078530  1
  V  V92  1  0.25131823  0.37379029  0.12452597  1
  V  V93  1  0.37466948  0.00050960  0.87362862  1
  V  V94  1  0.87589571  0.25013806  0.12489174  1
  V  V95  1  0.62496852  0.87572225  0.74915277  1
  Zn  Zn96  1  0.37829024  0.75338459  0.12563702  1
  Zn  Zn97  1  0.75007636  0.24946959  0.50376450  1
  Zn  Zn98  1  0.37470748  0.74994912  0.62441703  1
  Zn  Zn99  1  0.74950687  0.00245609  0.75023375  1
  Zn  Zn100  1  0.00108056  0.37599257  0.87315851  1
  Zn  Zn101  1  0.25253108  0.87698655  0.12660634  1
  Zn  Zn102  1  0.87407204  0.12631460  0.25150430  1
  Zn  Zn103  1  0.75201349  0.12625312  0.37414586  1
  Zn  Zn104  1  0.86931303  0.25063283  0.62719947  1
  Zn  Zn105  1  0.49737304  0.37474432  0.87504961  1
  Zn  Zn106  1  0.75092666  0.12580121  0.87201702  1
  Zn  Zn107  1  0.12364869  0.37617648  0.74958210  1
  Zn  Zn108  1  0.87130872  0.12507651  0.74877186  1
  Zn  Zn109  1  0.74838937  0.37254776  0.62728776  1
  Zn  Zn110  1  0.49902623  0.12541754  0.12489979  1
  Zn  Zn111  1  0.37486503  0.37310532  -0.00122331  1
  Zn  Zn112  1  0.37367747  0.12409821  0.74622612  1
  Zn  Zn113  1  0.50125501  0.50097698  0.49990722  1
  Zn  Zn114  1  0.25220498  0.25037617  -0.00176487  1
  Zn  Zn115  1  0.49750463  0.00028045  0.49967540  1
  Zn  Zn116  1  0.12445315  0.74949989  0.87561597  1
  Zn  Zn117  1  0.37696145  0.50040716  0.37610835  1
  Zn  Zn118  1  0.00017782  0.62496627  0.62564121  1
  Zn  Zn119  1  0.62448605  0.37489745  0.75054733  1
  Zn  Zn120  1  0.49592637  0.12461740  0.62443305  1
  Zn  Zn121  1  0.62543086  0.37443270  0.24973350  1
  Zn  Zn122  1  0.62348848  0.62513331  0.49772392  1
  Zn  Zn123  1  0.25022778  -0.00110969  0.24813949  1
  Zn  Zn124  1  0.50064907  0.75075391  0.24807523  1
  Zn  Zn125  1  0.37519568  0.24620199  0.62617541  1
  Zn  Zn126  1  0.12380166  -0.00049265  0.62525972  1
  Zn  Zn127  1  0.25017785  0.24786789  0.50189882  1
  Zn  Zn128  1  0.18889142  0.18699256  0.18840673  1
  Zn  Zn129  1  0.18446541  0.18578558  0.68783366  1
  Zn  Zn130  1  0.18899948  0.68810786  0.18705569  1
  Zn  Zn131  1  0.18642384  0.68838359  0.68704125  1
  Zn  Zn132  1  0.68791842  0.18663883  0.18828729  1
  Zn  Zn133  1  0.68911650  0.18630878  0.68812342  1
  Zn  Zn134  1  0.68720794  0.68772869  0.18803095  1
  Zn  Zn135  1  0.68679956  0.68708410  0.68733458  1
  Zn  Zn136  1  0.31248754  0.31087737  0.31283834  1
  Zn  Zn137  1  0.31351029  0.31277190  0.81142567  1
  Zn  Zn138  1  0.31214417  0.81213480  0.31209899  1
  Zn  Zn139  1  0.31272521  0.81176215  0.81342429  1
  Zn  Zn140  1  0.81274015  0.31390341  0.31222089  1
  Zn  Zn141  1  0.81065164  0.31497623  0.81281666  1
  Zn  Zn142  1  0.81258259  0.81373075  0.31229636  1
  Zn  Zn143  1  0.81221440  0.81515550  0.81207382  1
  Zn  Zn144  1  0.18904565  0.43768646  0.43823939  1
  Zn  Zn145  1  0.18920834  0.43537241  0.93810208  1
  Zn  Zn146  1  0.18743358  0.93975965  0.43767641  1
  Zn  Zn147  1  0.18744611  0.93644979  0.93707568  1
  Zn  Zn148  1  0.68681442  0.43995235  0.43920372  1
  Zn  Zn149  1  0.68759466  0.43592040  0.93754229  1
  Zn  Zn150  1  0.68777349  0.93791247  0.43754959  1
  Zn  Zn151  1  0.68861764  0.93735852  0.93823543  1
  Zn  Zn152  1  0.31177650  0.06365604  0.06173568  1
  Zn  Zn153  1  0.31137808  0.06146872  0.56310390  1
  Zn  Zn154  1  0.31404852  0.56212759  0.06341959  1
  Zn  Zn155  1  0.31379961  0.55974023  0.56162272  1
  Zn  Zn156  1  0.81255268  0.06476986  0.06220960  1
  Zn  Zn157  1  0.80920512  0.06254836  0.56051613  1
  Zn  Zn158  1  0.81310213  0.56270971  0.06215390  1
  Zn  Zn159  1  0.81177088  0.56314901  0.56248610  1
  Zn  Zn160  1  0.43815060  0.43738913  0.18749866  1
  Zn  Zn161  1  0.43831546  0.43510021  0.69027488  1
  Zn  Zn162  1  0.43788756  0.93877974  0.18722299  1
  Zn  Zn163  1  0.43572235  0.93656630  0.68647196  1
  Zn  Zn164  1  0.93774607  0.43669547  0.18671610  1
  Zn  Zn165  1  0.93787250  0.43781521  0.68728240  1
  Zn  Zn166  1  0.93907215  0.93838094  0.18882457  1
  Zn  Zn167  1  0.93754963  0.93703551  0.68828268  1
  Zn  Zn168  1  0.06186986  0.06246868  0.31171417  1
  Zn  Zn169  1  0.06162217  0.06192776  0.81106980  1
  Zn  Zn170  1  0.06362429  0.56199109  0.31340262  1
  Zn  Zn171  1  0.06315451  0.56355979  0.81255814  1
  Zn  Zn172  1  0.56082203  0.06216250  0.31214615  1
  Zn  Zn173  1  0.56234710  0.06521959  0.81185069  1
  Zn  Zn174  1  0.56400897  0.56233870  0.31030812  1
  Zn  Zn175  1  0.56164596  0.56292624  0.81173876  1
  Zn  Zn176  1  0.43792637  0.18821856  0.43813926  1
  Zn  Zn177  1  0.43725294  0.18551920  0.93700806  1
  Zn  Zn178  1  0.43751721  0.69027486  0.43619623  1
  Zn  Zn179  1  0.43695825  0.68661372  0.93774634  1
  Zn  Zn180  1  0.93699248  0.18801288  0.43666020  1
  Zn  Zn181  1  0.93890808  0.18702693  0.93867328  1
  Zn  Zn182  1  0.93758427  0.68714745  0.43882996  1
  Zn  Zn183  1  0.93805569  0.68706686  0.93720857  1
  Zn  Zn184  1  0.06367402  0.31307309  0.06117335  1
  Zn  Zn185  1  0.06099265  0.31201683  0.56255913  1
  Zn  Zn186  1  0.06462591  0.81261269  0.06305920  1
  Zn  Zn187  1  0.06280568  0.81166255  0.56449073  1
  Zn  Zn188  1  0.56080800  0.31407607  0.06165691  1
  Zn  Zn189  1  0.56212256  0.31208124  0.56360172  1
  Zn  Zn190  1  0.56256490  0.81272641  0.06321757  1
  Zn  Zn191  1  0.56116613  0.81189205  0.56006363  1
  O  O192  1  0.11973205  0.12057084  0.11954786  1
  O  O193  1  0.11196766  0.12396252  0.61882731  1
  O  O194  1  0.12005366  0.61881093  0.12076044  1
  O  O195  1  0.12463553  0.61818948  0.61738558  1
  O  O196  1  0.62324461  0.11874639  0.11850449  1
  O  O197  1  0.62388480  0.11531804  0.61659470  1
  O  O198  1  0.62157919  0.61949588  0.11899970  1
  O  O199  1  0.61521176  0.61807673  0.62519766  1
  O  O200  1  0.38406033  0.37420703  0.38248607  1
  O  O201  1  0.37492001  0.38414713  0.87768073  1
  O  O202  1  0.37916474  0.87977726  0.37887544  1
  O  O203  1  0.38184758  0.88035196  0.88020345  1
  O  O204  1  0.88068369  0.38162451  0.38170038  1
  O  O205  1  0.87698713  0.38264087  0.88232820  1
  O  O206  1  0.88139244  0.87910604  0.38102044  1
  O  O207  1  0.88015074  0.88232553  0.88178089  1
  O  O208  1  0.25603348  0.00730677  0.37274371  1
  O  O209  1  0.25489136  0.00348069  0.86936216  1
  O  O210  1  0.25106679  0.50634592  0.36803190  1
  O  O211  1  0.25456615  0.50558917  0.86981333  1
  O  O212  1  0.75661971  -0.00098242  0.36813303  1
  O  O213  1  0.76200813  -0.00041127  0.87579247  1
  O  O214  1  0.75522026  0.50591626  0.36881853  1
  O  O215  1  0.75508318  0.50656173  0.87116384  1
  O  O216  1  0.24432859  0.49502031  0.13110169  1
  O  O217  1  0.24545061  0.49169695  0.62938589  1
  O  O218  1  0.24088886  0.99843818  0.12615606  1
  O  O219  1  0.24611420  0.99177973  0.63149946  1
  O  O220  1  0.74611224  0.49560999  0.12898317  1
  O  O221  1  0.73979987  0.50335696  0.63152864  1
  O  O222  1  0.74583988  0.99407994  0.12928155  1
  O  O223  1  0.73850033  0.99277691  0.62424382  1
  O  O224  1  0.00615650  0.37100643  0.25517974  1
  O  O225  1  0.00256517  0.36381233  0.75091235  1
  O  O226  1  0.00512109  0.86809300  0.25641790  1
  O  O227  1  0.00452608  0.86928537  0.75544464  1
  O  O228  1  0.50128833  0.36939394  0.26075922  1
  O  O229  1  0.50335243  0.36386512  0.75430992  1
  O  O230  1  0.50711213  0.87378270  0.25594072  1
  O  O231  1  0.50524910  0.86908995  0.75524021  1
  O  O232  1  0.49252690  0.13218139  0.24921640  1
  O  O233  1  0.49793798  0.13550931  0.74818212  1
  O  O234  1  0.49168352  0.62494151  0.24455671  1
  O  O235  1  0.49487009  0.63059047  0.74244785  1
  O  O236  1  0.99898865  0.13297047  0.24314359  1
  O  O237  1  0.99798187  0.13206448  0.74095034  1
  O  O238  1  0.99557556  0.62970174  0.24521415  1
  O  O239  1  0.99271052  0.63176049  0.74944140  1
  O  O240  1  0.37356498  0.25043944  0.00950377  1
  O  O241  1  0.37345084  0.26250338  0.50254393  1
  O  O242  1  0.36688567  0.75514910  0.00010345  1
  O  O243  1  0.36669560  0.75645753  0.50038272  1
  O  O244  1  0.87085203  0.25566660  0.00493616  1
  O  O245  1  0.87458513  0.26293994  0.49916120  1
  O  O246  1  0.87039526  0.75465684  0.00608324  1
  O  O247  1  0.86999596  0.75562342  0.50521884  1
  O  O248  1  0.12387555  0.24361682  0.49273847  1
  O  O249  1  0.12419655  0.24357181  0.98904240  1
  O  O250  1  0.12963203  0.74422040  0.49417105  1
  O  O251  1  0.13389584  0.74357450  0.99922140  1
  O  O252  1  0.62419678  0.24241496  0.49186564  1
  O  O253  1  0.62910102  0.24547140  0.99369112  1
  O  O254  1  0.63245538  0.74867844  0.49256219  1
  O  O255  1  0.63147878  0.74527209  0.99440934  1
  O  O256  1  0.49259769  0.25010549  0.13205264  1
  O  O257  1  0.50075028  0.24889345  0.63719502  1
  O  O258  1  0.49938437  0.74114277  0.12694250  1
  O  O259  1  0.49998837  0.74029850  0.63103155  1
  O  O260  1  0.99599090  0.24628114  0.12953705  1
  O  O261  1  0.99842176  0.24212380  0.63358724  1
  O  O262  1  0.99529668  0.74399691  0.13048756  1
  O  O263  1  0.99203570  0.74872740  0.63205792  1
  O  O264  1  0.00544101  0.25644439  0.36881244  1
  O  O265  1  0.00863307  0.24850393  0.86676251  1
  O  O266  1  0.00516481  0.75469878  0.37017749  1
  O  O267  1  -0.00028238  0.75683639  0.86940572  1
  O  O268  1  0.50812850  0.25833153  0.37101851  1
  O  O269  1  0.50861678  0.24952332  0.86860622  1
  O  O270  1  0.50756442  0.75679808  0.37184597  1
  O  O271  1  0.50634856  0.75498304  0.87049901  1
  O  O272  1  0.24146190  0.12657235  0.49423565  1
  O  O273  1  0.24238867  0.12681566  0.99096156  1
  O  O274  1  0.24564353  0.62891048  0.49452412  1
  O  O275  1  0.24611572  0.63147101  0.99599161  1
  O  O276  1  0.73646018  0.12670195  0.49581207  1
  O  O277  1  0.74343852  0.13272016  0.99840346  1
  O  O278  1  0.75003882  0.63213925  0.49175335  1
  O  O279  1  0.74531740  0.63090284  0.99504072  1
  O  O280  1  0.25235782  0.37149808  0.00951804  1
  O  O281  1  0.25807458  0.37443919  0.50835061  1
  O  O282  1  0.25586928  0.86531610  -0.00094346  1
  O  O283  1  0.25337457  0.86918251  0.50420047  1
  O  O284  1  0.75675383  0.36987005  0.00597615  1
  O  O285  1  0.76194068  0.37676912  0.50032366  1
  O  O286  1  0.75608983  0.86886524  0.00638814  1
  O  O287  1  0.75574253  0.86885412  0.50517317  1
  O  O288  1  0.13001760  0.49480070  0.24461536  1
  O  O289  1  0.13171322  0.49903809  0.74373675  1
  O  O290  1  0.12430433  0.99313607  0.24376911  1
  O  O291  1  0.13038542  0.99166992  0.74910418  1
  O  O292  1  0.63291272  0.49827971  0.24213547  1
  O  O293  1  0.63066298  0.50128191  0.74226426  1
  O  O294  1  0.63065916  0.99467814  0.24437609  1
  O  O295  1  0.62474319  0.99389705  0.74101366  1
  O  O296  1  0.37349810  0.00708235  0.25637546  1
  O  O297  1  0.36785583  -0.00122696  0.75706794  1
  O  O298  1  0.36960248  0.50988019  0.25157763  1
  O  O299  1  0.36912719  0.50584111  0.75554006  1
  O  O300  1  0.86962277  0.00014525  0.25613675  1
  O  O301  1  0.87479251  -0.00062623  0.76255148  1
  O  O302  1  0.87106506  0.50561935  0.25488634  1
  O  O303  1  0.87020792  0.50619632  0.75548532  1
  O  O304  1  0.11990141  0.37077355  0.37027424  1
  O  O305  1  0.12366950  0.36327763  0.87269873  1
  O  O306  1  0.11894549  0.86898812  0.37080932  1
  O  O307  1  0.11742733  0.87302111  0.86917400  1
  O  O308  1  0.61658239  0.36677266  0.37718786  1
  O  O309  1  0.62315261  0.36170871  0.87561792  1
  O  O310  1  0.62034061  0.87067011  0.36958485  1
  O  O311  1  0.62032454  0.87001912  0.87011586  1
  O  O312  1  0.37584976  0.13282558  0.13162367  1
  O  O313  1  0.37780907  0.12806008  0.62705285  1
  O  O314  1  0.38117686  0.62550974  0.13459951  1
  O  O315  1  0.38420466  0.62413721  0.63067399  1
  O  O316  1  0.88300297  0.13278155  0.12522986  1
  O  O317  1  0.88625097  0.12675098  0.62280443  1
  O  O318  1  0.88089580  0.63024388  0.13042589  1
  O  O319  1  0.87553369  0.63203263  0.63201800  1
  O  O320  1  0.25734965  0.25576551  0.12494621  1
  O  O321  1  0.24926718  0.26156271  0.62496000  1
  O  O322  1  0.25224609  0.75060797  0.11178816  1
  O  O323  1  0.25145425  0.75569173  0.61789289  1
  O  O324  1  0.75541696  0.25588096  0.11995503  1
  O  O325  1  0.75208817  0.25493445  0.62157761  1
  O  O326  1  0.75628678  0.75514867  0.12002686  1
  O  O327  1  0.75446523  0.75501548  0.61958744  1
  O  O328  1  0.24230534  0.24405800  0.37731682  1
  O  O329  1  0.23919892  0.24365531  0.87238860  1
  O  O330  1  0.24358685  0.74369259  0.38056801  1
  O  O331  1  0.24962101  0.74327743  0.88614656  1
  O  O332  1  0.73744810  0.25116558  0.37653488  1
  O  O333  1  0.74116204  0.24967072  0.88164812  1
  O  O334  1  0.74593438  0.74571881  0.37927419  1
  O  O335  1  0.74559619  0.74575806  0.88088778  1
  O  O336  1  0.00663957  0.11927035  0.00615774  1
  O  O337  1  0.00333431  0.12054830  0.50680039  1
  O  O338  1  0.00542918  0.62006958  0.00630423  1
  O  O339  1  0.00700141  0.61855155  0.50065137  1
  O  O340  1  0.50730403  0.11696958  0.00112519  1
  O  O341  1  0.51211760  0.12311156  0.50128365  1
  O  O342  1  0.50665899  0.61980838  0.00462332  1
  O  O343  1  0.49954135  0.62405100  0.51103425  1
  O  O344  1  0.49233931  0.37516124  0.49236521  1
  O  O345  1  0.49676318  0.38461669  0.99707669  1
  O  O346  1  0.49198102  0.87517785  0.49241084  1
  O  O347  1  0.49636007  0.88000767  0.99323500  1
  O  O348  1  0.99238963  0.38106671  0.49416344  1
  O  O349  1  0.99427988  0.38251268  0.99892759  1
  O  O350  1  0.99456898  0.87933780  0.49550270  1
  O  O351  1  0.99496029  0.87970201  0.99603571  1
  O  O352  1  0.50159638  0.48787520  0.37635051  1
  O  O353  1  0.49389204  0.50088597  0.88058862  1
  O  O354  1  0.49275255  0.99273076  0.37639776  1
  O  O355  1  0.49593171  0.99412492  0.87952705  1
  O  O356  1  0.99490962  0.49487371  0.37979966  1
  O  O357  1  0.99378360  0.49973492  0.88156332  1
  O  O358  1  0.99436478  0.99372146  0.38048119  1
  O  O359  1  0.99252807  0.99441711  0.88122938  1
  O  O360  1  0.00500685  0.00566687  0.11952118  1
  O  O361  1  -0.00050144  0.00872318  0.61930483  1
  O  O362  1  0.00568033  0.50545472  0.12010798  1
  O  O363  1  0.00723125  0.50175626  0.61840083  1
  O  O364  1  0.50805622  0.00102904  0.11731684  1
  O  O365  1  0.51231946  -0.00127439  0.62251782  1
  O  O366  1  0.50658279  0.50554761  0.11963351  1
  O  O367  1  0.50785299  0.50946460  0.62774270  1
  O  O368  1  0.24437870  0.38038131  0.24590051  1
  O  O369  1  0.24906761  0.38126931  0.73944085  1
  O  O370  1  0.24133530  0.87594422  0.24772738  1
  O  O371  1  0.24471621  0.87807821  0.74571812  1
  O  O372  1  0.74954829  0.38273689  0.24305801  1
  O  O373  1  0.74655473  0.38532673  0.74789247  1
  O  O374  1  0.74523777  0.88051909  0.24381323  1
  O  O375  1  0.74231350  0.87667483  0.74287488  1
  O  O376  1  0.25633702  0.12385733  0.25843446  1
  O  O377  1  0.24832352  0.11625679  0.75554095  1
  O  O378  1  0.25722025  0.62022884  0.25438051  1
  O  O379  1  0.25503072  0.62028792  0.75488038  1
  O  O380  1  0.75319074  0.11684671  0.25263921  1
  O  O381  1  0.75493931  0.11972529  0.75402130  1
  O  O382  1  0.75718940  0.62006013  0.25430697  1
  O  O383  1  0.75559883  0.62136573  0.75680297  1
  O  O384  1  0.36969687  0.12095091  0.37140514  1
  O  O385  1  0.36697393  0.11708158  0.87315271  1
  O  O386  1  0.37042326  0.62303991  0.36613857  1
  O  O387  1  0.36945393  0.61903947  0.86912514  1
  O  O388  1  0.87296334  0.11700317  0.37340754  1
  O  O389  1  0.87610389  0.11226240  0.87671389  1
  O  O390  1  0.87031122  0.62032624  0.36908667  1
  O  O391  1  0.86890114  0.62006708  0.87054831  1
  O  O392  1  0.13021505  0.38005965  0.13131349  1
  O  O393  1  0.13481677  0.38101240  0.62353252  1
  O  O394  1  0.12501086  0.88152932  0.13168729  1
  O  O395  1  0.13104362  0.87581803  0.63198679  1
  O  O396  1  0.63241510  0.38163899  0.12559664  1
  O  O397  1  0.62479192  0.38928910  0.62582250  1
  O  O398  1  0.63180515  0.88071660  0.12937372  1
  O  O399  1  0.62863972  0.88117514  0.62853203  1
  O  O400  1  0.11938864  0.25646218  0.25547093  1
  O  O401  1  0.11471342  0.24964755  0.75870349  1
  O  O402  1  0.11946801  0.75360992  0.25557405  1
  O  O403  1  0.11796629  0.75535982  0.75304583  1
  O  O404  1  0.61957681  0.25129481  0.26003841  1
  O  O405  1  0.61778230  0.24954643  0.75991401  1
  O  O406  1  0.62595423  0.75795066  0.25611348  1
  O  O407  1  0.61968162  0.75548855  0.75596580  1
  O  O408  1  0.38007818  0.24462740  0.24445019  1
  O  O409  1  0.38577941  0.24747343  0.75009248  1
  O  O410  1  0.37576054  0.73723749  0.24804455  1
  O  O411  1  0.38177212  0.74304711  0.74894428  1
  O  O412  1  0.88222021  0.25111149  0.24308818  1
  O  O413  1  0.88613692  0.24818775  0.75142727  1
  O  O414  1  0.88099011  0.74474224  0.24492233  1
  O  O415  1  0.87890451  0.74599333  0.74540925  1
  O  O416  1  0.37848716  0.48698508  0.49714015  1
  O  O417  1  0.38187016  0.50109826  0.99372766  1
  O  O418  1  0.37532756  0.99252342  0.49234831  1
  O  O419  1  0.38076393  0.99487128  0.99339739  1
  O  O420  1  0.88012856  0.49412140  0.49404093  1
  O  O421  1  0.88053758  0.49612158  0.99517122  1
  O  O422  1  0.87927834  0.99320123  0.49468652  1
  O  O423  1  0.88077422  0.99412511  0.99433601  1
  O  O424  1  0.11868991  0.00464305  0.00433899  1
  O  O425  1  0.11594923  0.00691283  0.50092767  1
  O  O426  1  0.12057507  0.50504098  0.00612988  1
  O  O427  1  0.12024962  0.50498819  0.50416119  1
  O  O428  1  0.62100709  0.00433868  0.00451443  1
  O  O429  1  0.62331858  0.00669897  0.50717568  1
  O  O430  1  0.62100880  0.50666329  0.00435236  1
  O  O431  1  0.62263482  0.50513079  0.51127336  1
  O  O432  1  0.36878057  0.36696269  0.12660820  1
  O  O433  1  0.36633067  0.37488096  0.61768029  1
  O  O434  1  0.37333113  0.87321322  0.11640890  1
  O  O435  1  0.36785649  0.87247165  0.61758970  1
  O  O436  1  0.87017276  0.37007058  0.11888082  1
  O  O437  1  0.87424913  0.37571600  0.61278172  1
  O  O438  1  0.87117824  0.86924878  0.12049604  1
  O  O439  1  0.86899066  0.86998923  0.61969814  1
  O  O440  1  0.12831782  0.13045050  0.37968301  1
  O  O441  1  0.12857479  0.13156887  0.87924054  1
  O  O442  1  0.13084016  0.63041041  0.37985811  1
  O  O443  1  0.13229078  0.62611445  0.88286572  1
  O  O444  1  0.62402131  0.13377467  0.38248160  1
  O  O445  1  0.62670176  0.13520981  0.88187601  1
  O  O446  1  0.63192891  0.63158815  0.37443560  1
  O  O447  1  0.63069319  0.63134496  0.88019910  1
