# generated using pymatgen
data_V3Zn3O8
_symmetry_space_group_name_H-M   'P 1'
_cell_length_a   17.08690196
_cell_length_b   17.08639950
_cell_length_c   17.08725802
_cell_angle_alpha   89.99853120
_cell_angle_beta   90.01728616
_cell_angle_gamma   89.98424870
_symmetry_Int_Tables_number   1
_chemical_formula_structural   V3Zn3O8
_chemical_formula_sum   'V96 Zn96 O256'
_cell_volume   4988.68664022
_cell_formula_units_Z   32
loop_
 _symmetry_equiv_pos_site_id
 _symmetry_equiv_pos_as_xyz
  1  'x, y, z'
loop_
 _atom_site_type_symbol
 _atom_site_label
 _atom_site_symmetry_multiplicity
 _atom_site_fract_x
 _atom_site_fract_y
 _atom_site_fract_z
 _atom_site_occupancy
  V  V0  1  0.74826262  0.74912725  -0.00016734  1
  V  V1  1  0.87518654  0.37481039  0.00056387  1
  V  V2  1  0.62506035  0.74910901  0.37605334  1
  V  V3  1  0.00018431  0.62315349  0.62599537  1
  V  V4  1  0.37466058  0.75115401  0.62481296  1
  V  V5  1  0.75173843  0.12512172  0.37492973  1
  V  V6  1  0.62569348  0.12486113  0.50032544  1
  V  V7  1  0.75041338  0.49912263  0.25047081  1
  V  V8  1  0.24922731  0.62650807  0.87599305  1
  V  V9  1  0.75015771  0.49976670  0.74990116  1
  V  V10  1  0.00058065  0.62406113  0.12341614  1
  V  V11  1  0.87369827  -0.00035224  0.37688726  1
  V  V12  1  0.49930681  0.75060697  0.25057541  1
  V  V13  1  0.50054060  0.25094961  0.74984410  1
  V  V14  1  0.87385337  0.75035474  0.12512762  1
  V  V15  1  0.49965471  0.75122559  0.74898017  1
  V  V16  1  0.12472739  -0.00080561  0.62555299  1
  V  V17  1  0.12286631  0.87404462  0.25032842  1
  V  V18  1  0.12372488  -0.00080900  0.12593839  1
  V  V19  1  0.87576935  0.49985206  0.37479646  1
  V  V20  1  0.62610200  0.25000699  0.37504834  1
  V  V21  1  0.50093488  0.50098041  0.00012026  1
  V  V22  1  0.75068427  0.87397652  0.62605980  1
  V  V23  1  0.62501761  0.00049329  0.62526091  1
  V  V24  1  0.74957828  0.12527486  0.87629386  1
  V  V25  1  0.49910459  -0.00019667  0.49905546  1
  V  V26  1  0.62549587  0.50069450  0.62430513  1
  V  V27  1  0.12555918  0.37557283  0.24853373  1
  V  V28  1  0.37590492  0.25094179  0.12453688  1
  V  V29  1  0.74961533  -0.00020390  0.75131314  1
  V  V30  1  0.75116966  0.37415090  0.62493302  1
  V  V31  1  0.00158230  0.37424743  0.87494683  1
  V  V32  1  0.25001854  0.00209445  0.25304798  1
  V  V33  1  0.25193968  0.37492845  0.62292810  1
  V  V34  1  0.74783021  0.87495589  0.12538907  1
  V  V35  1  0.87552854  0.24958342  0.62587352  1
  V  V36  1  0.24943788  0.87444817  0.12433209  1
  V  V37  1  0.62356486  -0.00003134  0.12516041  1
  V  V38  1  0.37314568  0.87591169  -0.00013297  1
  V  V39  1  0.00023972  0.87362248  0.87514059  1
  V  V40  1  0.00028065  0.50055100  -0.00001136  1
  V  V41  1  0.62445396  0.62527974  -0.00007810  1
  V  V42  1  -0.00270976  0.12585245  0.12756499  1
  V  V43  1  0.75070870  0.37543098  0.12530039  1
  V  V44  1  0.25097338  0.37614060  0.12407818  1
  V  V45  1  0.62506101  0.62467268  0.49973279  1
  V  V46  1  -0.00013412  0.74868912  0.75077070  1
  V  V47  1  0.50029902  0.25006270  0.24893497  1
  V  V48  1  0.12606387  0.37296549  0.74969711  1
  V  V49  1  0.12575747  0.49972746  0.62402748  1
  V  V50  1  0.75157180  0.25017953  0.50086595  1
  V  V51  1  0.62526850  0.37460456  0.75053137  1
  V  V52  1  0.24862625  0.75125170  0.49978482  1
  V  V53  1  0.62458525  0.87511561  0.24984620  1
  V  V54  1  0.49890256  0.87562862  0.87434479  1
  V  V55  1  0.87396491  -0.00092286  0.87527670  1
  V  V56  1  0.49979657  0.62539072  0.12459133  1
  V  V57  1  0.49926029  0.00116237  0.00100720  1
  V  V58  1  0.37408373  0.12464038  0.74978147  1
  V  V59  1  -0.00091662  0.75035995  0.25085517  1
  V  V60  1  0.37617490  0.49943013  0.87367284  1
  V  V61  1  0.37597559  0.25062847  0.62369089  1
  V  V62  1  0.37418082  0.00189278  0.87429825  1
  V  V63  1  0.49974254  0.87617500  0.37559415  1
  V  V64  1  0.49981044  0.12559273  0.12519343  1
  V  V65  1  -0.00060660  -0.00069376  0.50141843  1
  V  V66  1  0.24898101  0.62706078  0.37454381  1
  V  V67  1  0.50096583  0.37538596  0.87435483  1
  V  V68  1  0.87371958  0.87317262  0.50144136  1
  V  V69  1  0.50072722  0.50009945  0.49950349  1
  V  V70  1  0.87542721  0.12412883  0.25180776  1
  V  V71  1  0.25097605  0.50179701  0.24887625  1
  V  V72  1  0.74993696  0.24948434  0.00014998  1
  V  V73  1  0.24849286  0.87466391  0.62602245  1
  V  V74  1  0.37660148  0.62555547  0.74830184  1
  V  V75  1  0.25171265  0.49884082  0.74852085  1
  V  V76  1  0.37400401  0.75154879  0.12397632  1
  V  V77  1  0.37438720  0.62653489  0.24942088  1
  V  V78  1  0.87366221  0.87492759  0.00036475  1
  V  V79  1  0.37526756  0.37492472  -0.00008502  1
  V  V80  1  0.74945049  0.62361698  0.37477972  1
  V  V81  1  0.12407923  0.87518304  0.75091239  1
  V  V82  1  0.87596885  0.12489506  0.75009125  1
  V  V83  1  0.87527085  0.49926264  0.87479275  1
  V  V84  1  0.87544638  0.62425384  0.74960026  1
  V  V85  1  -0.00148410  -0.00106287  0.00067924  1
  V  V86  1  0.00080739  0.24979388  0.75041279  1
  V  V87  1  0.74934962  0.62483515  0.87561504  1
  V  V88  1  0.62635965  0.37499940  0.24970218  1
  V  V89  1  0.00272655  0.37485805  0.37465868  1
  V  V90  1  0.00151544  0.50052587  0.49978078  1
  V  V91  1  0.12587097  0.12703712  -0.00112343  1
  V  V92  1  0.50010895  0.37506569  0.37483962  1
  V  V93  1  0.62429294  0.87514336  0.75085763  1
  V  V94  1  0.37605548  0.37489227  0.49914381  1
  V  V95  1  0.12766846  0.12535880  0.49877738  1
  Zn  Zn96  1  0.12576466  0.75074267  0.87680540  1
  Zn  Zn97  1  0.50087726  0.62648758  0.62389918  1
  Zn  Zn98  1  0.12186872  0.75112477  0.37685370  1
  Zn  Zn99  1  0.25244873  0.12869491  0.37388938  1
  Zn  Zn100  1  0.24781628  0.75020522  -0.00035592  1
  Zn  Zn101  1  0.62466925  0.12506276  -0.00064545  1
  Zn  Zn102  1  0.37592412  0.50027568  0.37485012  1
  Zn  Zn103  1  -0.00153764  0.87293658  0.37605889  1
  Zn  Zn104  1  0.87367478  0.74714626  0.62479895  1
  Zn  Zn105  1  0.24875230  0.00033792  0.75120014  1
  Zn  Zn106  1  0.87378935  0.62504066  0.25057007  1
  Zn  Zn107  1  0.24989057  0.25132935  -0.00156881  1
  Zn  Zn108  1  0.12767031  0.24811946  0.37481911  1
  Zn  Zn109  1  0.62543270  0.50046480  0.12553919  1
  Zn  Zn110  1  0.62461905  0.24862929  0.87463767  1
  Zn  Zn111  1  0.37389376  0.12606497  0.25145378  1
  Zn  Zn112  1  0.74919017  -0.00020524  0.25034822  1
  Zn  Zn113  1  0.00141954  0.12558574  0.62597914  1
  Zn  Zn114  1  0.74978691  0.74794135  0.50164734  1
  Zn  Zn115  1  0.25161645  0.24990808  0.49599240  1
  Zn  Zn116  1  0.50048832  0.12563931  0.62441811  1
  Zn  Zn117  1  0.12529399  0.62610303  -0.00194758  1
  Zn  Zn118  1  0.00036141  0.24992448  0.25136418  1
  Zn  Zn119  1  0.62378704  0.75011119  0.87421281  1
  Zn  Zn120  1  0.12416869  0.62577328  0.50012346  1
  Zn  Zn121  1  0.37325808  0.87748013  0.49868934  1
  Zn  Zn122  1  0.87506472  0.25068322  0.12866888  1
  Zn  Zn123  1  0.24943904  0.12664352  0.87551684  1
  Zn  Zn124  1  0.87737624  0.37333708  0.50003381  1
  Zn  Zn125  1  0.12671352  0.50132350  0.12113339  1
  Zn  Zn126  1  0.37399216  0.00209262  0.37504701  1
  Zn  Zn127  1  0.12738272  0.24947209  0.87446872  1
  Zn  Zn128  1  0.18757579  0.18993532  0.18515598  1
  Zn  Zn129  1  0.18919422  0.18824242  0.68375484  1
  Zn  Zn130  1  0.18556768  0.68908396  0.18651812  1
  Zn  Zn131  1  0.18604318  0.68762313  0.68906165  1
  Zn  Zn132  1  0.68801383  0.18638190  0.18682179  1
  Zn  Zn133  1  0.68770476  0.18721071  0.68791908  1
  Zn  Zn134  1  0.68609125  0.68639295  0.18838426  1
  Zn  Zn135  1  0.68732215  0.68846838  0.68671816  1
  Zn  Zn136  1  0.31226058  0.31135660  0.31322307  1
  Zn  Zn137  1  0.31144218  0.30934282  0.81402291  1
  Zn  Zn138  1  0.31311864  0.81589083  0.31340127  1
  Zn  Zn139  1  0.31263111  0.81292856  0.81138403  1
  Zn  Zn140  1  0.81536614  0.31118443  0.31210870  1
  Zn  Zn141  1  0.81337961  0.31187113  0.81335481  1
  Zn  Zn142  1  0.81097248  0.81161147  0.31357507  1
  Zn  Zn143  1  0.81290258  0.81043631  0.81268445  1
  Zn  Zn144  1  0.18926799  0.44003917  0.43720746  1
  Zn  Zn145  1  0.18665772  0.43942120  0.93754480  1
  Zn  Zn146  1  0.18332641  0.93611189  0.43608609  1
  Zn  Zn147  1  0.18811896  0.94075360  0.93616821  1
  Zn  Zn148  1  0.68834190  0.43670092  0.43796173  1
  Zn  Zn149  1  0.68665239  0.43775237  0.93783514  1
  Zn  Zn150  1  0.68753051  0.93720619  0.43745498  1
  Zn  Zn151  1  0.68517850  0.93739588  0.93827466  1
  Zn  Zn152  1  0.31217470  0.06284021  0.06562310  1
  Zn  Zn153  1  0.31169600  0.06220401  0.56465516  1
  Zn  Zn154  1  0.31430144  0.56169678  0.06174533  1
  Zn  Zn155  1  0.31434803  0.56318883  0.56131485  1
  Zn  Zn156  1  0.81095166  0.06173857  0.06386686  1
  Zn  Zn157  1  0.81257176  0.06255431  0.56425708  1
  Zn  Zn158  1  0.81324256  0.56199092  0.06347909  1
  Zn  Zn159  1  0.81398390  0.56020241  0.56055989  1
  Zn  Zn160  1  0.43743294  0.43878663  0.18783075  1
  Zn  Zn161  1  0.43915488  0.43780260  0.68567985  1
  Zn  Zn162  1  0.43593122  0.93821211  0.18771048  1
  Zn  Zn163  1  0.43651746  0.93759151  0.68537771  1
  Zn  Zn164  1  0.93618403  0.43899713  0.18785132  1
  Zn  Zn165  1  0.93814871  0.43623642  0.68739098  1
  Zn  Zn166  1  0.93488152  0.93788704  0.18864956  1
  Zn  Zn167  1  0.93843967  0.93739769  0.68696141  1
  Zn  Zn168  1  0.06137310  0.05953205  0.31603335  1
  Zn  Zn169  1  0.06125063  0.06116373  0.81294441  1
  Zn  Zn170  1  0.06427675  0.56241473  0.31062115  1
  Zn  Zn171  1  0.06419609  0.56013484  0.81141957  1
  Zn  Zn172  1  0.56337340  0.06370434  0.31186597  1
  Zn  Zn173  1  0.56171802  0.06398279  0.81402866  1
  Zn  Zn174  1  0.56310697  0.56155043  0.31240210  1
  Zn  Zn175  1  0.56293461  0.56373568  0.81197223  1
  Zn  Zn176  1  0.43597384  0.18559345  0.43467674  1
  Zn  Zn177  1  0.43807724  0.18865028  0.93725562  1
  Zn  Zn178  1  0.43653081  0.68807447  0.43849731  1
  Zn  Zn179  1  0.43592449  0.68921250  0.93675497  1
  Zn  Zn180  1  0.94077443  0.18773400  0.43872328  1
  Zn  Zn181  1  0.93726661  0.18830444  0.93707466  1
  Zn  Zn182  1  0.93529755  0.68550940  0.43818895  1
  Zn  Zn183  1  0.93612545  0.68796401  0.93710056  1
  Zn  Zn184  1  0.06214411  0.31167344  0.06407543  1
  Zn  Zn185  1  0.06390767  0.31086832  0.56291432  1
  Zn  Zn186  1  0.06465202  0.80955324  0.06081635  1
  Zn  Zn187  1  0.06102331  0.81081982  0.56517881  1
  Zn  Zn188  1  0.56410160  0.31324807  0.06263823  1
  Zn  Zn189  1  0.56262472  0.31277747  0.56305111  1
  Zn  Zn190  1  0.56105162  0.81254132  0.06147375  1
  Zn  Zn191  1  0.56318068  0.81296718  0.56263667  1
  O  O192  1  0.11488064  0.11969905  0.11888181  1
  O  O193  1  0.12432998  0.11760205  0.61650837  1
  O  O194  1  0.11139748  0.62421476  0.12338991  1
  O  O195  1  0.11848479  0.61659255  0.62599262  1
  O  O196  1  0.61847354  0.11812087  0.12297462  1
  O  O197  1  0.62450612  0.11820504  0.61864636  1
  O  O198  1  0.61714279  0.62415911  0.11834925  1
  O  O199  1  0.62469236  0.61793654  0.61833748  1
  O  O200  1  0.38301293  0.37653887  0.38079883  1
  O  O201  1  0.38096316  0.38079426  0.87923622  1
  O  O202  1  0.38418518  0.88010016  0.37811460  1
  O  O203  1  0.37953160  0.88187342  0.87938692  1
  O  O204  1  0.88765826  0.38038591  0.37470189  1
  O  O205  1  0.88116910  0.38079465  0.88015559  1
  O  O206  1  0.87336851  0.88010615  0.38612264  1
  O  O207  1  0.87941215  0.88013899  0.88116828  1
  O  O208  1  0.24848574  -0.00152154  0.36236461  1
  O  O209  1  0.25880172  0.00532843  0.87129608  1
  O  O210  1  0.25240746  0.51175857  0.36872392  1
  O  O211  1  0.25701235  0.50649542  0.86795176  1
  O  O212  1  0.75566005  0.00781551  0.37492603  1
  O  O213  1  0.75520738  0.00426333  0.87091749  1
  O  O214  1  0.75553081  0.50317108  0.37005404  1
  O  O215  1  0.75588474  0.50477564  0.86966029  1
  O  O216  1  0.24961532  0.49508886  0.13127913  1
  O  O217  1  0.24638524  0.49528426  0.62984191  1
  O  O218  1  0.24300304  0.99373670  0.13342827  1
  O  O219  1  0.24288619  0.99156704  0.62703549  1
  O  O220  1  0.74934583  0.49336674  0.13176269  1
  O  O221  1  0.74545683  0.49392962  0.63067061  1
  O  O222  1  0.74238759  0.99228517  0.12598496  1
  O  O223  1  0.74463291  0.99460890  0.63240919  1
  O  O224  1  0.00897376  0.37777959  0.25732634  1
  O  O225  1  0.00613689  0.37003162  0.75537864  1
  O  O226  1  0.00289476  0.86461226  0.24818394  1
  O  O227  1  0.00370037  0.86930678  0.75573611  1
  O  O228  1  0.50642141  0.37017175  0.25464408  1
  O  O229  1  0.50557518  0.37111949  0.75508061  1
  O  O230  1  0.50496987  0.86975335  0.25481106  1
  O  O231  1  0.50449685  0.87136235  0.75476077  1
  O  O232  1  0.50038331  0.13294062  0.24297219  1
  O  O233  1  0.49044534  0.13106197  0.74864827  1
  O  O234  1  0.49476291  0.63110799  0.24543686  1
  O  O235  1  0.49384386  0.63204540  0.74852721  1
  O  O236  1  0.99613124  0.12341633  0.24152381  1
  O  O237  1  0.99307582  0.13117228  0.74986130  1
  O  O238  1  0.99873301  0.63307597  0.24102343  1
  O  O239  1  0.99444329  0.62759847  0.74612528  1
  O  O240  1  0.37544211  0.25825134  0.00679490  1
  O  O241  1  0.37665178  0.25666508  0.50652487  1
  O  O242  1  0.37311678  0.75806943  0.00671456  1
  O  O243  1  0.36389279  0.75185509  0.50551208  1
  O  O244  1  0.86509491  0.25588295  0.00117725  1
  O  O245  1  0.86948506  0.25093392  0.50677455  1
  O  O246  1  0.86831815  0.75584925  0.00559151  1
  O  O247  1  0.87288336  0.76111924  0.50188971  1
  O  O248  1  0.12692972  0.23746414  0.50079014  1
  O  O249  1  0.12404082  0.23801133  0.99999959  1
  O  O250  1  0.13631660  0.74736428  0.49962874  1
  O  O251  1  0.12988697  0.74457204  0.99457881  1
  O  O252  1  0.63099391  0.24481742  0.49500796  1
  O  O253  1  0.63879397  0.25000008  0.99793468  1
  O  O254  1  0.62585890  0.74336742  0.49336939  1
  O  O255  1  0.63050833  0.74387370  0.99795312  1
  O  O256  1  0.49625133  0.24599236  0.12952354  1
  O  O257  1  0.49409113  0.24921986  0.63200577  1
  O  O258  1  0.49388182  0.74549232  0.13099729  1
  O  O259  1  0.49316308  0.75024225  0.63103961  1
  O  O260  1  0.99714737  0.23674948  0.12700512  1
  O  O261  1  0.99305543  0.24962373  0.63260931  1
  O  O262  1  0.99379936  0.74310071  0.13124332  1
  O  O263  1  0.99742852  0.74117233  0.63283947  1
  O  O264  1  0.00458400  0.26309128  0.37371763  1
  O  O265  1  0.00129126  0.25720552  0.86851569  1
  O  O266  1  -0.00082055  0.74879739  0.36229669  1
  O  O267  1  -0.00018025  0.75645746  0.86881606  1
  O  O268  1  0.50716073  0.25536086  0.36918125  1
  O  O269  1  0.50169371  0.25802514  0.86820190  1
  O  O270  1  0.50484584  0.75541636  0.36981600  1
  O  O271  1  0.49941760  0.75815030  0.86750438  1
  O  O272  1  0.23869225  0.12303283  0.49874885  1
  O  O273  1  0.23588503  0.12454574  1.00329683  1
  O  O274  1  0.25030932  0.63364246  0.49130203  1
  O  O275  1  0.25158436  0.62395431  0.98707478  1
  O  O276  1  0.74531166  0.13052145  0.49509356  1
  O  O277  1  0.75094859  0.13402198  0.99554229  1
  O  O278  1  0.74335306  0.62405171  0.49281184  1
  O  O279  1  0.74514944  0.62943628  0.99553493  1
  O  O280  1  0.25740718  0.37722433  0.00631547  1
  O  O281  1  0.25782492  0.37636255  0.50603655  1
  O  O282  1  0.25607115  0.87658117  0.00679161  1
  O  O283  1  0.24900177  0.86578222  0.50528934  1
  O  O284  1  0.75538526  0.36851662  0.00410795  1
  O  O285  1  0.75187635  0.36762942  0.50676986  1
  O  O286  1  0.75418233  0.86915920  0.00507886  1
  O  O287  1  0.75878789  0.87536875  0.50682344  1
  O  O288  1  0.13148791  0.49093799  0.24639454  1
  O  O289  1  0.13193381  0.49233369  0.74352630  1
  O  O290  1  0.12953571  0.99375109  0.24466782  1
  O  O291  1  0.12494006  0.99371468  0.74364854  1
  O  O292  1  0.63214535  0.49242163  0.24917658  1
  O  O293  1  0.63104188  0.49499042  0.74455600  1
  O  O294  1  0.62562553  0.99259060  0.24342103  1
  O  O295  1  0.62990096  0.99511708  0.74546790  1
  O  O296  1  0.36155449  0.00093267  0.24895309  1
  O  O297  1  0.37624952  0.00987920  0.75435009  1
  O  O298  1  0.36909900  0.50880009  0.25177481  1
  O  O299  1  0.37116710  0.50477903  0.75398787  1
  O  O300  1  0.87244508  0.00560852  0.25824754  1
  O  O301  1  0.86930022  0.00412893  0.75593316  1
  O  O302  1  0.86813012  0.50171999  0.25734229  1
  O  O303  1  0.86961998  0.50411122  0.75566745  1
  O  O304  1  0.11774346  0.37885811  0.36546417  1
  O  O305  1  0.11886657  0.37501945  0.86749606  1
  O  O306  1  0.11851822  0.87044197  0.36620497  1
  O  O307  1  0.11727517  0.87631778  0.86932830  1
  O  O308  1  0.62054883  0.36836157  0.36984423  1
  O  O309  1  0.61870222  0.37479980  0.86769256  1
  O  O310  1  0.62011597  0.86913112  0.36952520  1
  O  O311  1  0.61707989  0.87462092  0.86824305  1
  O  O312  1  0.38193290  0.13272402  0.12720999  1
  O  O313  1  0.37772739  0.13071023  0.63386300  1
  O  O314  1  0.38023591  0.63188006  0.12992301  1
  O  O315  1  0.37629639  0.63248057  0.63124364  1
  O  O316  1  0.88422633  0.12245133  0.13145991  1
  O  O317  1  0.87592349  0.13119640  0.63305535  1
  O  O318  1  0.88436464  0.63158833  0.12650414  1
  O  O319  1  0.88166958  0.62267146  0.63222205  1
  O  O320  1  0.25741276  0.25869966  0.12255089  1
  O  O321  1  0.25880444  0.25819274  0.62162105  1
  O  O322  1  0.25664217  0.75671632  0.12475802  1
  O  O323  1  0.25361918  0.75383934  0.61742802  1
  O  O324  1  0.75226269  0.25536593  0.11582376  1
  O  O325  1  0.75563199  0.25488574  0.62057173  1
  O  O326  1  0.75401994  0.75468980  0.11979467  1
  O  O327  1  0.75325814  0.75813996  0.62276798  1
  O  O328  1  0.24484353  0.24753226  0.37832535  1
  O  O329  1  0.24554184  0.24484420  0.88072910  1
  O  O330  1  0.24952143  0.74399358  0.38257004  1
  O  O331  1  0.25153896  0.73746213  0.87475429  1
  O  O332  1  0.74565594  0.24532589  0.38125056  1
  O  O333  1  0.75061218  0.24454857  0.88436294  1
  O  O334  1  0.74234212  0.74230428  0.37648787  1
  O  O335  1  0.74878984  0.74277969  0.88213633  1
  O  O336  1  0.00443987  0.11905191  0.00833675  1
  O  O337  1  0.00928671  0.11791345  0.50278341  1
  O  O338  1  -0.00234248  0.61985638  0.00851506  1
  O  O339  1  0.00177108  0.61879022  0.50665711  1
  O  O340  1  0.50125476  0.11894702  0.00663660  1
  O  O341  1  0.50772637  0.11572908  0.50003742  1
  O  O342  1  0.50376227  0.62086152  0.00429898  1
  O  O343  1  0.50672522  0.61863939  0.50031604  1
  O  O344  1  0.49653051  0.38031486  0.49411174  1
  O  O345  1  0.49569354  0.38109906  0.99455023  1
  O  O346  1  0.50150516  0.88512316  0.49430854  1
  O  O347  1  0.49281937  0.88099772  0.99485028  1
  O  O348  1  1.00281209  0.38112337  0.48948646  1
  O  O349  1  0.99479793  0.37987718  0.99562350  1
  O  O350  1  0.98907999  0.87896464  0.50089746  1
  O  O351  1  0.99333525  0.87973671  0.99639796  1
  O  O352  1  0.49935959  0.49290825  0.38105512  1
  O  O353  1  0.49479176  0.49535281  0.87948717  1
  O  O354  1  0.50337932  0.99480532  0.38490523  1
  O  O355  1  0.49387512  0.99487962  0.88089533  1
  O  O356  1  0.99694995  0.49385607  0.37890545  1
  O  O357  1  0.99408515  0.49434122  0.87931812  1
  O  O358  1  0.99094408  0.99574945  0.38359404  1
  O  O359  1  0.99241616  0.99335219  0.88103090  1
  O  O360  1  0.00342307  0.00709212  0.12057622  1
  O  O361  1  0.00680667  0.00148436  0.61890436  1
  O  O362  1  -0.00175367  0.51019534  0.11955958  1
  O  O363  1  0.00594023  0.50312105  0.62012727  1
  O  O364  1  0.50389380  0.00502736  0.12030373  1
  O  O365  1  0.50708616  0.00005535  0.61494917  1
  O  O366  1  0.50058765  0.50785842  0.11822258  1
  O  O367  1  0.50837569  0.50145120  0.61791868  1
  O  O368  1  0.24355270  0.38183669  0.24497677  1
  O  O369  1  0.24682826  0.38012751  0.74363773  1
  O  O370  1  0.24333019  0.88166062  0.24386978  1
  O  O371  1  0.24217737  0.87526732  0.74363803  1
  O  O372  1  0.74593003  0.37875250  0.24565882  1
  O  O373  1  0.74561341  0.38055403  0.74555483  1
  O  O374  1  0.74247562  0.87502098  0.24306155  1
  O  O375  1  0.74518673  0.88098912  0.74703757  1
  O  O376  1  0.24646788  0.11252952  0.24802079  1
  O  O377  1  0.26387044  0.12473559  0.74973137  1
  O  O378  1  0.25419143  0.62313111  0.25606821  1
  O  O379  1  0.25672593  0.61891907  0.75652259  1
  O  O380  1  0.75683718  0.12352329  0.25719793  1
  O  O381  1  0.75597153  0.11917455  0.75614748  1
  O  O382  1  0.75021699  0.61778365  0.25660566  1
  O  O383  1  0.75478975  0.61873828  0.75536225  1
  O  O384  1  0.37090713  0.11960910  0.36898003  1
  O  O385  1  0.37618009  0.12019444  0.86543870  1
  O  O386  1  0.36417048  0.62652407  0.36818906  1
  O  O387  1  0.36846222  0.61896967  0.86858084  1
  O  O388  1  0.87112363  0.11974985  0.37194861  1
  O  O389  1  0.86981668  0.11804261  0.87016853  1
  O  O390  1  0.86774096  0.61741127  0.37331612  1
  O  O391  1  0.86917037  0.61819253  0.86976565  1
  O  O392  1  0.12995878  0.37737455  0.13329433  1
  O  O393  1  0.13174588  0.38038987  0.63004855  1
  O  O394  1  0.12881922  0.88019704  0.12970205  1
  O  O395  1  0.12890342  0.87952497  0.63112327  1
  O  O396  1  0.63249788  0.37693360  0.13216034  1
  O  O397  1  0.63172391  0.38060525  0.63080243  1
  O  O398  1  0.62831796  0.87930298  0.13044118  1
  O  O399  1  0.63094444  0.88125265  0.63134973  1
  O  O400  1  0.12332004  0.26436290  0.25030151  1
  O  O401  1  0.11905456  0.25566750  0.74932328  1
  O  O402  1  0.11308910  0.75563942  0.24854644  1
  O  O403  1  0.11743812  0.75700397  0.75290630  1
  O  O404  1  0.62094815  0.25545215  0.25579338  1
  O  O405  1  0.61944226  0.25705053  0.75074190  1
  O  O406  1  0.61781440  0.75503913  0.25567893  1
  O  O407  1  0.61825083  0.75740170  0.75122984  1
  O  O408  1  0.38310459  0.25133435  0.24186308  1
  O  O409  1  0.38096658  0.24339668  0.74458266  1
  O  O410  1  0.38027954  0.74645407  0.24416883  1
  O  O411  1  0.38036392  0.74551887  0.74369169  1
  O  O412  1  0.87953434  0.24009283  0.24859694  1
  O  O413  1  0.88017476  0.24450010  0.74571198  1
  O  O414  1  0.88346864  0.74959894  0.24367465  1
  O  O415  1  0.88145858  0.74178830  0.74903087  1
  O  O416  1  0.38278392  0.49366781  0.49831072  1
  O  O417  1  0.38235164  0.49455226  0.99330458  1
  O  O418  1  0.38808655  0.99962062  0.50055372  1
  O  O419  1  0.38012838  0.99565122  0.99567307  1
  O  O420  1  0.88339509  0.49539524  0.49278069  1
  O  O421  1  0.87973701  0.49422023  0.99362153  1
  O  O422  1  0.87883848  0.99217646  0.49727778  1
  O  O423  1  0.87885485  0.99411423  0.99514178  1
  O  O424  1  0.11762319  0.00714716  0.00650766  1
  O  O425  1  0.11907050  0.00504180  0.50562130  1
  O  O426  1  0.11550738  0.50435969  0.00174780  1
  O  O427  1  0.11987891  0.50280274  0.50686897  1
  O  O428  1  0.61668613  0.00011848  0.00739021  1
  O  O429  1  0.61860569  0.00490524  0.50514907  1
  O  O430  1  0.61843418  0.50697428  0.00174692  1
  O  O431  1  0.62045570  0.50452701  0.50490021  1
  O  O432  1  0.37111598  0.37097223  0.11933395  1
  O  O433  1  0.37112596  0.37042883  0.61924416  1
  O  O434  1  0.36943860  0.87042770  0.11955331  1
  O  O435  1  0.36674245  0.86856585  0.62276199  1
  O  O436  1  0.86936194  0.37333837  0.11837943  1
  O  O437  1  0.86845800  0.36816725  0.62437228  1
  O  O438  1  0.86805130  0.87051549  0.11909656  1
  O  O439  1  0.86904624  0.87529787  0.61629585  1
  O  O440  1  0.12534400  0.12445343  0.38670479  1
  O  O441  1  0.12322879  0.12395807  0.88800273  1
  O  O442  1  0.13805953  0.62849027  0.37514442  1
  O  O443  1  0.13848608  0.62419533  0.87257147  1
  O  O444  1  0.63170067  0.13136675  0.38035340  1
  O  O445  1  0.63370032  0.12748547  0.87831935  1
  O  O446  1  0.62972070  0.62977360  0.38008664  1
  O  O447  1  0.63198600  0.62646438  0.88138644  1
