# generated using pymatgen
data_V3Zn3O8
_symmetry_space_group_name_H-M   'P 1'
_cell_length_a   17.08711700
_cell_length_b   17.08665686
_cell_length_c   17.08714664
_cell_angle_alpha   89.98496772
_cell_angle_beta   89.99516767
_cell_angle_gamma   90.00026501
_symmetry_Int_Tables_number   1
_chemical_formula_structural   V3Zn3O8
_chemical_formula_sum   'V96 Zn96 O256'
_cell_volume   4988.79227554
_cell_formula_units_Z   32
loop_
 _symmetry_equiv_pos_site_id
 _symmetry_equiv_pos_as_xyz
  1  'x, y, z'
loop_
 _atom_site_type_symbol
 _atom_site_label
 _atom_site_symmetry_multiplicity
 _atom_site_fract_x
 _atom_site_fract_y
 _atom_site_fract_z
 _atom_site_occupancy
  V  V0  1  0.75065630  0.12392829  0.87600422  1
  V  V1  1  0.49684029  0.49716958  0.49953455  1
  V  V2  1  0.62396741  0.25058235  0.37547503  1
  V  V3  1  0.74946717  0.49879231  0.25079927  1
  V  V4  1  0.62539799  0.49939137  0.12554843  1
  V  V5  1  0.50007356  -0.00039281  0.00064701  1
  V  V6  1  -0.00053307  0.49974965  0.00017196  1
  V  V7  1  0.87524050  0.00059054  0.37576169  1
  V  V8  1  0.00149436  0.00022765  0.00007389  1
  V  V9  1  0.00043317  0.12549909  0.12413438  1
  V  V10  1  0.12496465  0.00006467  0.62481822  1
  V  V11  1  0.37455988  -0.00000659  0.87414506  1
  V  V12  1  0.12371660  0.62447735  -0.00112571  1
  V  V13  1  0.25098030  -0.00096016  0.24823058  1
  V  V14  1  0.75015205  0.25069941  0.00167379  1
  V  V15  1  0.12561442  0.74970800  0.87485844  1
  V  V16  1  0.12554685  0.62479409  0.50010030  1
  V  V17  1  0.87481826  0.37510634  0.50017256  1
  V  V18  1  0.62514019  -0.00092070  0.62596791  1
  V  V19  1  0.12614650  -0.00115812  0.12334012  1
  V  V20  1  0.37386936  0.50047665  0.87426252  1
  V  V21  1  0.24995964  0.87478374  0.12452104  1
  V  V22  1  0.62501658  0.50088579  0.62670039  1
  V  V23  1  0.75003296  0.37586919  0.62648244  1
  V  V24  1  0.24957705  0.24874653  -0.00251970  1
  V  V25  1  0.74972914  0.37472517  0.12567086  1
  V  V26  1  0.37584389  0.87474563  -0.00109180  1
  V  V27  1  0.62553157  0.00015036  0.12610121  1
  V  V28  1  0.12380942  0.50026231  0.62480040  1
  V  V29  1  0.49990706  0.12470277  0.62450795  1
  V  V30  1  0.50051946  0.74887211  0.24959427  1
  V  V31  1  0.37583138  0.37479343  -0.00090000  1
  V  V32  1  0.00045775  0.24900132  0.24867320  1
  V  V33  1  0.62547358  0.87450184  0.25135308  1
  V  V34  1  0.37497508  0.75028536  0.62442397  1
  V  V35  1  0.87386027  0.12460294  0.75081294  1
  V  V36  1  -0.00096585  0.25151339  0.75073442  1
  V  V37  1  0.49919801  0.62545391  0.62493460  1
  V  V38  1  0.62465105  0.75003904  0.37462888  1
  V  V39  1  0.74926202  0.24987658  0.50062399  1
  V  V40  1  0.75119769  0.87581958  0.12631038  1
  V  V41  1  0.75002171  0.62464146  0.37647322  1
  V  V42  1  0.62442180  0.24941088  0.87565533  1
  V  V43  1  0.74993226  0.74934103  0.00032652  1
  V  V44  1  0.00039599  0.87572851  0.37543069  1
  V  V45  1  -0.00060841  0.12520008  0.62476916  1
  V  V46  1  0.62688062  0.62664136  -0.00011107  1
  V  V47  1  0.12494726  0.37542717  0.24977585  1
  V  V48  1  0.49949831  -0.00046840  0.49847488  1
  V  V49  1  0.87415552  0.24988572  0.62543716  1
  V  V50  1  0.50004912  0.50017567  0.00031471  1
  V  V51  1  0.49993459  0.25154745  0.25132802  1
  V  V52  1  0.25055260  0.74887272  0.49863394  1
  V  V53  1  0.12285393  0.37576685  0.74964869  1
  V  V54  1  0.50190848  0.75327473  0.75176953  1
  V  V55  1  0.74975846  0.50192208  0.75252274  1
  V  V56  1  0.37569270  0.24959262  0.12412894  1
  V  V57  1  0.37329786  0.12502366  0.74901169  1
  V  V58  1  0.75066135  0.75039032  0.50112134  1
  V  V59  1  0.00048898  0.87553144  0.87477864  1
  V  V60  1  0.87568883  0.87439084  0.00044825  1
  V  V61  1  0.00192023  0.75067112  0.25124582  1
  V  V62  1  0.87486840  0.37543250  0.00076787  1
  V  V63  1  0.12549538  0.87563410  0.74885451  1
  V  V64  1  0.24939185  0.87577504  0.62404939  1
  V  V65  1  0.37393796  0.62473485  0.75059465  1
  V  V66  1  0.00035514  0.50100234  0.49983824  1
  V  V67  1  0.24966254  0.74872098  -0.00093278  1
  V  V68  1  0.87488462  0.00031480  0.87504040  1
  V  V69  1  0.87562629  0.75034830  0.12635696  1
  V  V70  1  0.12584933  0.24880158  0.37471451  1
  V  V71  1  0.62474704  0.62520691  0.50045836  1
  V  V72  1  0.50119639  0.25130368  0.75037000  1
  V  V73  1  0.87544049  0.62546004  0.25123584  1
  V  V74  1  0.37534290  0.87507767  0.49849972  1
  V  V75  1  0.12511886  0.12564799  0.49873902  1
  V  V76  1  -0.00055218  -0.00022943  0.49882471  1
  V  V77  1  0.74996233  0.87491678  0.62610789  1
  V  V78  1  -0.00096873  0.37543451  0.87517012  1
  V  V79  1  0.12392581  0.49991576  0.12434824  1
  V  V80  1  0.37569020  0.74867057  0.12430312  1
  V  V81  1  0.75057722  0.12468564  0.37529358  1
  V  V82  1  0.49988584  0.62464978  0.12528688  1
  V  V83  1  0.24922769  0.12402442  0.37351851  1
  V  V84  1  0.00014123  0.37444611  0.37447802  1
  V  V85  1  0.25159226  0.62413904  0.37378545  1
  V  V86  1  0.87458049  0.49957920  0.37574210  1
  V  V87  1  0.62451257  0.12467415  0.50076310  1
  V  V88  1  0.50024430  0.12550083  0.12525911  1
  V  V89  1  0.25122842  0.49930433  0.24911925  1
  V  V90  1  0.62586251  0.12454921  0.00086422  1
  V  V91  1  0.37467207  -0.00035160  0.37391956  1
  V  V92  1  0.75055821  0.00090404  0.25180943  1
  V  V93  1  0.87522432  0.62691466  0.74916754  1
  V  V94  1  -0.00015421  0.74983880  0.74862658  1
  V  V95  1  0.25051289  0.37396543  0.62324199  1
  Zn  Zn96  1  0.87455057  0.24945758  0.12675465  1
  Zn  Zn97  1  0.87642044  0.87381699  0.50154075  1
  Zn  Zn98  1  0.24656334  0.12602702  0.87224021  1
  Zn  Zn99  1  0.12527797  0.24893440  0.87417904  1
  Zn  Zn100  1  0.25343400  0.24958816  0.49833781  1
  Zn  Zn101  1  0.37619914  0.62311752  0.24923102  1
  Zn  Zn102  1  0.24817417  0.62442620  0.87282594  1
  Zn  Zn103  1  0.24975344  0.37339088  0.12465524  1
  Zn  Zn104  1  0.49848545  0.37437647  0.37725111  1
  Zn  Zn105  1  0.62526583  0.37672487  0.75280649  1
  Zn  Zn106  1  0.87334102  0.50183583  0.87724209  1
  Zn  Zn107  1  -0.00070846  0.62516420  0.12495234  1
  Zn  Zn108  1  0.37434887  0.12457359  0.24968749  1
  Zn  Zn109  1  0.62602897  0.75297122  0.87641168  1
  Zn  Zn110  1  0.62531890  0.87719531  0.75409113  1
  Zn  Zn111  1  0.12628706  0.75188144  0.37450228  1
  Zn  Zn112  1  0.50211963  0.37575678  0.87462801  1
  Zn  Zn113  1  0.24893931  0.00138788  0.74952062  1
  Zn  Zn114  1  0.87729168  0.75216217  0.62336644  1
  Zn  Zn115  1  0.00057438  0.62761921  0.62327262  1
  Zn  Zn116  1  0.74862472  0.62807586  0.87538621  1
  Zn  Zn117  1  0.50250972  0.87497538  0.87546582  1
  Zn  Zn118  1  0.12611643  0.12536166  -0.00522829  1
  Zn  Zn119  1  0.50005680  0.87453794  0.37443943  1
  Zn  Zn120  1  0.37402003  0.25047289  0.62358217  1
  Zn  Zn121  1  0.87496589  0.12598978  0.25005622  1
  Zn  Zn122  1  0.12646858  0.87386320  0.25029482  1
  Zn  Zn123  1  0.37676344  0.49574233  0.37332452  1
  Zn  Zn124  1  0.62506429  0.37583498  0.25291955  1
  Zn  Zn125  1  0.74775247  -0.00143959  0.75154953  1
  Zn  Zn126  1  0.37476305  0.37063646  0.49877226  1
  Zn  Zn127  1  0.24789052  0.50085757  0.75028195  1
  Zn  Zn128  1  0.18740807  0.18615352  0.18550324  1
  Zn  Zn129  1  0.18591966  0.19011565  0.68651719  1
  Zn  Zn130  1  0.18635321  0.68589549  0.18514092  1
  Zn  Zn131  1  0.18819774  0.68674647  0.68728555  1
  Zn  Zn132  1  0.68638901  0.18816866  0.18886964  1
  Zn  Zn133  1  0.68715442  0.18585440  0.68881903  1
  Zn  Zn134  1  0.68779868  0.68654795  0.18726534  1
  Zn  Zn135  1  0.68659060  0.68870768  0.68687094  1
  Zn  Zn136  1  0.31495794  0.31343377  0.31492804  1
  Zn  Zn137  1  0.31207470  0.31507174  0.81150519  1
  Zn  Zn138  1  0.31447712  0.81239231  0.31062184  1
  Zn  Zn139  1  0.31238727  0.81315372  0.81190722  1
  Zn  Zn140  1  0.81353566  0.31124756  0.31122493  1
  Zn  Zn141  1  0.81268290  0.31344143  0.81479655  1
  Zn  Zn142  1  0.81426475  0.81369107  0.31500013  1
  Zn  Zn143  1  0.81189132  0.81204186  0.81286216  1
  Zn  Zn144  1  0.18711461  0.43725224  0.43753010  1
  Zn  Zn145  1  0.18740023  0.43478904  0.93695130  1
  Zn  Zn146  1  0.18620881  0.93708390  0.43589245  1
  Zn  Zn147  1  0.18881043  0.93735097  0.93680129  1
  Zn  Zn148  1  0.68472983  0.43630919  0.43828937  1
  Zn  Zn149  1  0.68656881  0.43690450  0.93703199  1
  Zn  Zn150  1  0.68749733  0.93643136  0.43898198  1
  Zn  Zn151  1  0.68701096  0.93546243  0.93722738  1
  Zn  Zn152  1  0.31339271  0.06444149  0.06186086  1
  Zn  Zn153  1  0.31150881  0.06246162  0.56086496  1
  Zn  Zn154  1  0.31121764  0.56332665  0.06162780  1
  Zn  Zn155  1  0.31193395  0.56095840  0.56422093  1
  Zn  Zn156  1  0.81443860  0.06233699  0.06268480  1
  Zn  Zn157  1  0.81246309  0.06077532  0.56240277  1
  Zn  Zn158  1  0.81324473  0.56282602  0.06465200  1
  Zn  Zn159  1  0.81335907  0.56374672  0.56477792  1
  Zn  Zn160  1  0.43628596  0.43500271  0.18577649  1
  Zn  Zn161  1  0.43590362  0.43683148  0.68735337  1
  Zn  Zn162  1  0.43750987  0.93547868  0.18783181  1
  Zn  Zn163  1  0.43716080  0.93764639  0.68564974  1
  Zn  Zn164  1  0.93681870  0.43716292  0.18639811  1
  Zn  Zn165  1  0.93678610  0.43967184  0.68706471  1
  Zn  Zn166  1  0.93753024  0.93853467  0.18920460  1
  Zn  Zn167  1  0.93634148  0.93810290  0.68796423  1
  Zn  Zn168  1  0.06427752  0.06081877  0.30952074  1
  Zn  Zn169  1  0.06273946  0.06403717  0.81211424  1
  Zn  Zn170  1  0.06424228  0.56350935  0.31352363  1
  Zn  Zn171  1  0.06050763  0.56155419  0.81275153  1
  Zn  Zn172  1  0.56205724  0.06423080  0.31322220  1
  Zn  Zn173  1  0.56219198  0.06256432  0.81249088  1
  Zn  Zn174  1  0.56327708  0.56282482  0.31308132  1
  Zn  Zn175  1  0.56200437  0.56711474  0.81485680  1
  Zn  Zn176  1  0.43432301  0.18726684  0.43770407  1
  Zn  Zn177  1  0.43703292  0.18616125  0.93633589  1
  Zn  Zn178  1  0.43707151  0.68544369  0.43588779  1
  Zn  Zn179  1  0.43815162  0.68575821  0.93684018  1
  Zn  Zn180  1  0.93733391  0.18728381  0.43677351  1
  Zn  Zn181  1  0.93684269  0.18926134  0.93840857  1
  Zn  Zn182  1  0.93701695  0.68858993  0.43790557  1
  Zn  Zn183  1  0.93736873  0.68676674  0.93564504  1
  Zn  Zn184  1  0.06440562  0.31312008  0.06214690  1
  Zn  Zn185  1  0.06374218  0.31225930  0.56191603  1
  Zn  Zn186  1  0.06315094  0.81210247  0.06311900  1
  Zn  Zn187  1  0.06340149  0.81149558  0.56137455  1
  Zn  Zn188  1  0.56279142  0.31420782  0.06307909  1
  Zn  Zn189  1  0.56426551  0.31346078  0.56618253  1
  Zn  Zn190  1  0.56293325  0.81314815  0.06351481  1
  Zn  Zn191  1  0.56324435  0.81378527  0.56301860  1
  O  O192  1  0.11474241  0.11831840  0.12120949  1
  O  O193  1  0.11845419  0.12008116  0.61995130  1
  O  O194  1  0.12144447  0.61819691  0.11710089  1
  O  O195  1  0.12498284  0.61811602  0.61751182  1
  O  O196  1  0.62049845  0.11889933  0.11965907  1
  O  O197  1  0.62009991  0.11950588  0.61924839  1
  O  O198  1  0.62002480  0.61860298  0.12001240  1
  O  O199  1  0.61896769  0.62021147  0.61939398  1
  O  O200  1  0.38030233  0.37919770  0.38096721  1
  O  O201  1  0.37857870  0.38524639  0.87925716  1
  O  O202  1  0.37665731  0.88101970  0.38147436  1
  O  O203  1  0.37711571  0.88476289  0.87968159  1
  O  O204  1  0.88000582  0.38007389  0.38107918  1
  O  O205  1  0.88050449  0.37779460  0.88281864  1
  O  O206  1  0.88207879  0.88269815  0.37813403  1
  O  O207  1  0.88111566  0.88021321  0.88068439  1
  O  O208  1  0.25465777  0.00416685  0.36849872  1
  O  O209  1  0.26332761  0.00191499  0.87296952  1
  O  O210  1  0.24875192  0.50762868  0.36557610  1
  O  O211  1  0.26263609  0.50051726  0.87422132  1
  O  O212  1  0.75433931  0.00516629  0.37143627  1
  O  O213  1  0.75717144  0.00623575  0.87593346  1
  O  O214  1  0.75472816  0.50481662  0.37172389  1
  O  O215  1  0.75051380  0.50243416  0.86294075  1
  O  O216  1  0.24370964  0.49974229  0.13449238  1
  O  O217  1  0.24240753  0.49097437  0.62629135  1
  O  O218  1  0.24663798  0.99460274  0.12762040  1
  O  O219  1  0.24276462  0.99336970  0.62514205  1
  O  O220  1  0.74486988  0.49495663  0.13178943  1
  O  O221  1  0.74515355  0.49634483  0.63330965  1
  O  O222  1  0.74539313  0.99542694  0.13090896  1
  O  O223  1  0.74376922  0.99149098  0.62510050  1
  O  O224  1  0.00502172  0.37022761  0.25570225  1
  O  O225  1  0.00207794  0.37067110  0.75431484  1
  O  O226  1  0.00000137  0.86544257  0.25593366  1
  O  O227  1  0.00552159  0.87049626  0.75546687  1
  O  O228  1  0.50187596  0.36195444  0.24977547  1
  O  O229  1  0.50138622  0.36230424  0.75016824  1
  O  O230  1  0.50801296  0.86733297  0.25055538  1
  O  O231  1  0.49931287  0.86358151  0.74854024  1
  O  O232  1  0.49983420  0.13530686  0.24390472  1
  O  O233  1  0.49228294  0.13212761  0.74516841  1
  O  O234  1  0.49934413  0.63038113  0.24299913  1
  O  O235  1  0.49382540  0.63350226  0.74408038  1
  O  O236  1  1.00084484  0.12958176  0.23957924  1
  O  O237  1  0.99312924  0.13096914  0.74364406  1
  O  O238  1  0.99402011  0.63445063  0.25173780  1
  O  O239  1  0.99095533  0.63064836  0.74872629  1
  O  O240  1  0.37008029  0.25464237  0.00353593  1
  O  O241  1  0.37167547  0.25155207  0.50650139  1
  O  O242  1  0.37039120  0.75465511  0.00444761  1
  O  O243  1  0.37049983  0.75422737  0.50494975  1
  O  O244  1  0.86727467  0.25689300  0.00299927  1
  O  O245  1  0.86937606  0.25547435  0.50548658  1
  O  O246  1  0.87138451  0.75547262  0.00639221  1
  O  O247  1  0.86628152  0.75173127  0.50266530  1
  O  O248  1  0.12437585  0.24261804  0.49181757  1
  O  O249  1  0.13778024  0.25048259  0.99842389  1
  O  O250  1  0.13353772  0.74299614  0.49803103  1
  O  O251  1  0.12937805  0.74526667  0.99441028  1
  O  O252  1  0.63024118  0.24412124  0.49682996  1
  O  O253  1  0.62967303  0.24355394  0.99574769  1
  O  O254  1  0.62966470  0.74395797  0.49473401  1
  O  O255  1  0.63238840  0.74401696  1.00352356  1
  O  O256  1  0.49690111  0.24501199  0.13192956  1
  O  O257  1  0.50097240  0.24289240  0.63544343  1
  O  O258  1  0.49550955  0.74420380  0.12997976  1
  O  O259  1  0.49422956  0.74489549  0.63101544  1
  O  O260  1  1.00130750  0.24056085  0.12934213  1
  O  O261  1  0.99308553  0.24511464  0.62959899  1
  O  O262  1  0.99388034  0.75022471  0.13519345  1
  O  O263  1  0.99822821  0.74852471  0.63282823  1
  O  O264  1  0.00543666  0.25497027  0.36919513  1
  O  O265  1  -0.00083791  0.25754180  0.86788184  1
  O  O266  1  0.00011412  0.75609502  0.36589528  1
  O  O267  1  0.00585925  0.75705845  0.86945370  1
  O  O268  1  0.50526306  0.24728718  0.36599741  1
  O  O269  1  0.50564164  0.24837758  0.86545999  1
  O  O270  1  0.50680365  0.74943605  0.36843113  1
  O  O271  1  0.49832891  0.75153325  0.86309712  1
  O  O272  1  0.24150068  0.12466913  0.49228940  1
  O  O273  1  0.25080546  0.13675117  0.99728086  1
  O  O274  1  0.24649596  0.62820906  0.49193255  1
  O  O275  1  0.24204467  0.63169880  0.99766516  1
  O  O276  1  0.74420224  0.13075061  0.49574730  1
  O  O277  1  0.74533644  0.12978325  0.99604063  1
  O  O278  1  0.74415839  0.62892227  0.49594526  1
  O  O279  1  0.74502778  0.63135635  1.00104452  1
  O  O280  1  0.25726960  0.36573449  0.00161468  1
  O  O281  1  0.24879564  0.37418088  0.51122266  1
  O  O282  1  0.25653337  0.86874237  0.00477964  1
  O  O283  1  0.25528365  0.86901743  0.50428140  1
  O  O284  1  0.75449948  0.37033631  0.00566594  1
  O  O285  1  0.75530694  0.37001618  0.50629322  1
  O  O286  1  0.75661881  0.87066174  0.00780481  1
  O  O287  1  0.75055871  0.86910769  0.50947611  1
  O  O288  1  0.13204161  0.49566832  0.24556586  1
  O  O289  1  0.12416242  0.49358466  0.74305804  1
  O  O290  1  0.13291130  0.99683822  0.24096206  1
  O  O291  1  0.12587704  0.99370050  0.74293611  1
  O  O292  1  0.63187765  0.49901513  0.24416460  1
  O  O293  1  0.63336464  0.50256661  0.74536874  1
  O  O294  1  0.63035256  0.99512109  0.24567644  1
  O  O295  1  0.62615931  0.99909959  0.74142911  1
  O  O296  1  0.36929282  0.00046124  0.25528404  1
  O  O297  1  0.37622717  0.00837466  0.75702050  1
  O  O298  1  0.36312211  0.50110959  0.24912436  1
  O  O299  1  0.37621965  0.50596572  0.75938940  1
  O  O300  1  0.86767719  0.00181769  0.25732114  1
  O  O301  1  0.87386354  0.00729342  0.75771866  1
  O  O302  1  0.86997130  0.50495536  0.25680491  1
  O  O303  1  0.86540592  0.50887280  0.74938268  1
  O  O304  1  0.11867194  0.36960325  0.36946162  1
  O  O305  1  0.11701003  0.37351057  0.86726794  1
  O  O306  1  0.11655591  0.87223947  0.37124450  1
  O  O307  1  0.11986651  0.87021090  0.86909482  1
  O  O308  1  0.62067156  0.36593386  0.37392784  1
  O  O309  1  0.62209971  0.36610681  0.87204636  1
  O  O310  1  0.62435719  0.86790133  0.36883093  1
  O  O311  1  0.61979468  0.87157686  0.87199279  1
  O  O312  1  0.38371362  0.13134852  0.12605286  1
  O  O313  1  0.38118303  0.12303030  0.63480450  1
  O  O314  1  0.38194670  0.63139929  0.12461046  1
  O  O315  1  0.37985135  0.63099489  0.63003885  1
  O  O316  1  0.88844000  0.12499470  0.12669682  1
  O  O317  1  0.87952683  0.13043348  0.62988654  1
  O  O318  1  0.87682544  0.63234837  0.13398920  1
  O  O319  1  0.87697841  0.62773627  0.63705539  1
  O  O320  1  0.25695249  0.25024528  0.11604664  1
  O  O321  1  0.24924025  0.26167430  0.62253711  1
  O  O322  1  0.25526545  0.75435998  0.11894870  1
  O  O323  1  0.25599283  0.75549959  0.61860979  1
  O  O324  1  0.74993211  0.25559688  0.11917201  1
  O  O325  1  0.75461038  0.25480394  0.62032288  1
  O  O326  1  0.75660179  0.75679978  0.12211283  1
  O  O327  1  0.74925711  0.75946282  0.61925352  1
  O  O328  1  0.24253784  0.24273297  0.37428428  1
  O  O329  1  0.25124481  0.24961650  0.88533573  1
  O  O330  1  0.25060898  0.74022128  0.37897631  1
  O  O331  1  0.24348807  0.74981917  0.88155592  1
  O  O332  1  0.74516240  0.24493036  0.38145508  1
  O  O333  1  0.74464493  0.24372868  0.88151282  1
  O  O334  1  0.74481601  0.74392745  0.38017217  1
  O  O335  1  0.74829028  0.74936431  0.88525048  1
  O  O336  1  0.00041763  0.11918202  0.00837997  1
  O  O337  1  0.00497703  0.12015293  0.50554238  1
  O  O338  1  0.00553199  0.61859795  0.00092126  1
  O  O339  1  0.00666577  0.61872921  0.49909296  1
  O  O340  1  0.50624714  0.11959609  0.00555714  1
  O  O341  1  0.50549797  0.11944667  0.50526108  1
  O  O342  1  0.50601129  0.61981208  0.00667861  1
  O  O343  1  0.50519512  0.61802314  0.50567143  1
  O  O344  1  0.50102903  0.38722131  0.50365921  1
  O  O345  1  0.49371700  0.38228962  0.99825797  1
  O  O346  1  0.49332595  0.88124466  0.49870178  1
  O  O347  1  0.49291466  0.88211738  1.00111338  1
  O  O348  1  0.99416970  0.37999587  0.49387848  1
  O  O349  1  0.99489154  0.37977768  0.99544241  1
  O  O350  1  0.99967381  0.88177519  0.49352367  1
  O  O351  1  0.99480213  0.87966317  0.99458096  1
  O  O352  1  0.50032391  0.50009136  0.38687050  1
  O  O353  1  0.49033011  0.50068479  0.88124217  1
  O  O354  1  0.49396157  0.99910544  0.38098084  1
  O  O355  1  0.48976177  1.00066265  0.88152572  1
  O  O356  1  0.99443535  0.49417439  0.37948645  1
  O  O357  1  0.99696888  0.49275585  0.88217270  1
  O  O358  1  0.99550416  0.99561835  0.37891376  1
  O  O359  1  0.99468126  0.99456362  0.88034915  1
  O  O360  1  0.00510776  0.00602779  0.12017809  1
  O  O361  1  0.00483245  0.00587043  0.61948778  1
  O  O362  1  0.00630036  0.50167141  0.11901840  1
  O  O363  1  0.00566320  0.50123011  0.61657881  1
  O  O364  1  0.50599068  0.00520573  0.12088312  1
  O  O365  1  0.50478659  0.00527394  0.61816308  1
  O  O366  1  0.50502941  0.50468244  0.12008748  1
  O  O367  1  0.50518661  0.50605006  0.61997928  1
  O  O368  1  0.24373142  0.38484632  0.25023574  1
  O  O369  1  0.24232127  0.37677927  0.74056388  1
  O  O370  1  0.24966075  0.88010438  0.24171539  1
  O  O371  1  0.24374146  0.87636643  0.74187446  1
  O  O372  1  0.74917944  0.38135937  0.24467212  1
  O  O373  1  0.75116339  0.38552370  0.74471574  1
  O  O374  1  0.74525635  0.88062708  0.24556888  1
  O  O375  1  0.74800057  0.87621164  0.73877824  1
  O  O376  1  0.25113321  0.11728719  0.25514695  1
  O  O377  1  0.26213544  0.12484667  0.74900173  1
  O  O378  1  0.24889816  0.61629725  0.25699203  1
  O  O379  1  0.25832666  0.62212704  0.75234498  1
  O  O380  1  0.75014132  0.11859918  0.25722335  1
  O  O381  1  0.75668613  0.12369376  0.75777861  1
  O  O382  1  0.75570603  0.61949072  0.25683866  1
  O  O383  1  0.75691679  0.61789902  0.74913815  1
  O  O384  1  0.36704411  0.11683267  0.37304151  1
  O  O385  1  0.37532022  0.11618185  0.86509183  1
  O  O386  1  0.36237492  0.62031595  0.37270099  1
  O  O387  1  0.37335529  0.61521848  0.87030045  1
  O  O388  1  0.86799863  0.11892929  0.37425406  1
  O  O389  1  0.87014523  0.12004824  0.87096454  1
  O  O390  1  0.86890502  0.61854268  0.37107431  1
  O  O391  1  0.87180054  0.62312559  0.86206659  1
  O  O392  1  0.12703483  0.38190133  0.13270120  1
  O  O393  1  0.13022972  0.38054317  0.62948331  1
  O  O394  1  0.13268618  0.88074293  0.12526849  1
  O  O395  1  0.13004391  0.88072646  0.62922881  1
  O  O396  1  0.63207021  0.38246747  0.12654746  1
  O  O397  1  0.63335524  0.38253920  0.62970526  1
  O  O398  1  0.63178710  0.88117452  0.13140416  1
  O  O399  1  0.63418826  0.88116150  0.62581736  1
  O  O400  1  0.11996408  0.25553630  0.25472111  1
  O  O401  1  0.11548420  0.25774332  0.74934231  1
  O  O402  1  0.11305869  0.75016946  0.25028052  1
  O  O403  1  0.12012680  0.75568117  0.75489724  1
  O  O404  1  0.61567743  0.25041471  0.25625970  1
  O  O405  1  0.61578728  0.24803899  0.75639384  1
  O  O406  1  0.62091535  0.75475378  0.25476833  1
  O  O407  1  0.61184546  0.75021049  0.75005473  1
  O  O408  1  0.38437696  0.24840550  0.24391745  1
  O  O409  1  0.38414938  0.24100463  0.74995606  1
  O  O410  1  0.38197018  0.74727405  0.24182903  1
  O  O411  1  0.38198865  0.74547583  0.74381347  1
  O  O412  1  0.88420994  0.24642366  0.24736687  1
  O  O413  1  0.87881102  0.24479152  0.74417664  1
  O  O414  1  0.88252615  0.74550832  0.24666478  1
  O  O415  1  0.88065571  0.74201865  0.74896431  1
  O  O416  1  0.38831798  0.50031037  0.50126110  1
  O  O417  1  0.37974171  0.49603348  0.99331955  1
  O  O418  1  0.38009312  0.99454870  0.49417220  1
  O  O419  1  0.38009467  0.99571949  0.99250079  1
  O  O420  1  0.87928121  0.49479956  0.49503464  1
  O  O421  1  0.88085366  0.49410091  0.99990887  1
  O  O422  1  0.88260424  0.99986779  0.49339916  1
  O  O423  1  0.88144582  0.99343903  0.99499354  1
  O  O424  1  0.11886009  0.00048123  0.00528488  1
  O  O425  1  0.11865941  0.00608637  0.50507347  1
  O  O426  1  0.11993384  0.50380792  0.00452169  1
  O  O427  1  0.11883606  0.50524450  0.50400406  1
  O  O428  1  0.62028941  0.00502857  0.00699748  1
  O  O429  1  0.61932121  0.00577461  0.50497841  1
  O  O430  1  0.62004193  0.50586249  0.00573562  1
  O  O431  1  0.61779233  0.50605698  0.50664432  1
  O  O432  1  0.37269255  0.36722148  0.11664815  1
  O  O433  1  0.36234259  0.37416862  0.62497524  1
  O  O434  1  0.36982544  0.86883780  0.11793505  1
  O  O435  1  0.36897394  0.87031038  0.61799305  1
  O  O436  1  0.86761804  0.37337720  0.11866268  1
  O  O437  1  0.86968208  0.36971121  0.61925502  1
  O  O438  1  0.87026392  0.87090654  0.12018789  1
  O  O439  1  0.86336319  0.87514850  0.62303565  1
  O  O440  1  0.12923901  0.12895085  0.37919047  1
  O  O441  1  0.12873867  0.12995424  0.87647213  1
  O  O442  1  0.13665004  0.62636168  0.38077443  1
  O  O443  1  0.12543685  0.63192949  0.88034723  1
  O  O444  1  0.63117792  0.13028010  0.38206061  1
  O  O445  1  0.63067419  0.12883056  0.88206050  1
  O  O446  1  0.63172777  0.63055578  0.38088476  1
  O  O447  1  0.62706728  0.63036531  0.88507859  1
