# generated using pymatgen
data_V3Zn3O8
_symmetry_space_group_name_H-M   'P 1'
_cell_length_a   17.08789603
_cell_length_b   17.08733943
_cell_length_c   17.08692899
_cell_angle_alpha   90.00607395
_cell_angle_beta   89.99746475
_cell_angle_gamma   90.00709099
_symmetry_Int_Tables_number   1
_chemical_formula_structural   V3Zn3O8
_chemical_formula_sum   'V96 Zn96 O256'
_cell_volume   4989.15558839
_cell_formula_units_Z   32
loop_
 _symmetry_equiv_pos_site_id
 _symmetry_equiv_pos_as_xyz
  1  'x, y, z'
loop_
 _atom_site_type_symbol
 _atom_site_label
 _atom_site_symmetry_multiplicity
 _atom_site_fract_x
 _atom_site_fract_y
 _atom_site_fract_z
 _atom_site_occupancy
  V  V0  1  0.49927070  0.25078231  0.25031068  1
  V  V1  1  0.24748538  0.50073195  0.24929197  1
  V  V2  1  0.24925045  0.87550217  0.62689404  1
  V  V3  1  0.62432517  0.62585888  0.49852556  1
  V  V4  1  0.12416402  0.25026268  0.37351615  1
  V  V5  1  0.25168105  0.24937885  0.00028166  1
  V  V6  1  0.62437602  0.37506819  0.74938380  1
  V  V7  1  0.87258697  0.50030130  0.37349327  1
  V  V8  1  0.87520000  0.49735393  0.87490367  1
  V  V9  1  0.75042801  0.37576876  0.12349909  1
  V  V10  1  0.75109211  -0.00010610  0.75124338  1
  V  V11  1  0.37619979  0.12450494  0.25162691  1
  V  V12  1  -0.00097410  0.62353425  0.62355876  1
  V  V13  1  0.87506348  0.87447726  0.50118108  1
  V  V14  1  0.37714597  0.12477339  0.75032890  1
  V  V15  1  0.62818000  0.24874072  0.37615838  1
  V  V16  1  0.12324360  0.62389223  0.49960766  1
  V  V17  1  0.12522116  0.37413308  0.74901504  1
  V  V18  1  0.37420628  0.74922916  0.62503058  1
  V  V19  1  0.62289548  0.37745597  0.24931901  1
  V  V20  1  -0.00112535  0.75147414  0.25020438  1
  V  V21  1  0.50203968  -0.00116104  0.50010479  1
  V  V22  1  0.37343567  0.75081645  0.12431977  1
  V  V23  1  0.50153202  0.12472793  0.12496123  1
  V  V24  1  0.12345257  0.62490230  -0.00030806  1
  V  V25  1  0.62594355  0.00088651  0.12401036  1
  V  V26  1  0.00016324  0.37380038  0.87428047  1
  V  V27  1  0.62511490  0.87424514  0.75162947  1
  V  V28  1  0.74974263  0.37336264  0.62269072  1
  V  V29  1  0.12336576  0.75031408  0.87393852  1
  V  V30  1  0.87608507  0.00122567  0.87613273  1
  V  V31  1  0.62258741  0.50124098  0.12463669  1
  V  V32  1  0.25112806  -0.00109547  0.25146951  1
  V  V33  1  -0.00060030  0.87555756  0.37689424  1
  V  V34  1  0.75119337  0.74901278  -0.00114944  1
  V  V35  1  0.37330387  0.62469427  0.74969091  1
  V  V36  1  0.37666629  -0.00056362  0.87636356  1
  V  V37  1  0.25160095  0.12440471  0.37754311  1
  V  V38  1  0.25015363  -0.00134832  0.75032683  1
  V  V39  1  -0.00151095  0.49931170  0.49897900  1
  V  V40  1  0.25076509  0.24899562  0.50018868  1
  V  V41  1  0.75158631  0.00016549  0.24929196  1
  V  V42  1  0.37251723  0.62548869  0.24939794  1
  V  V43  1  0.12543904  0.87577596  0.25158853  1
  V  V44  1  0.12575444  0.25016276  0.87450231  1
  V  V45  1  0.24952988  0.87529139  0.12624418  1
  V  V46  1  0.25001882  0.74939746  0.50049453  1
  V  V47  1  0.87454759  0.62361050  0.74930068  1
  V  V48  1  0.37523980  0.25004018  0.12599088  1
  V  V49  1  0.37542898  0.37586439  0.49969742  1
  V  V50  1  0.00037439  0.74968787  0.75104210  1
  V  V51  1  0.62375363  0.49965045  0.62434683  1
  V  V52  1  0.24898487  0.37543615  0.12574962  1
  V  V53  1  0.87518046  0.12609492  0.25066595  1
  V  V54  1  0.74891938  0.74965482  0.50080131  1
  V  V55  1  0.37726304  -0.00090282  0.37654540  1
  V  V56  1  0.50138373  -0.00002979  0.00010606  1
  V  V57  1  0.75042739  0.12667449  0.87638523  1
  V  V58  1  0.62608343  0.24991945  0.87639992  1
  V  V59  1  0.87434331  0.24956522  0.62299526  1
  V  V60  1  0.75028799  0.87507196  0.62644954  1
  V  V61  1  0.62488996  0.87399828  0.24932427  1
  V  V62  1  0.24897612  0.62467884  0.87390937  1
  V  V63  1  0.75198335  0.87534280  0.12353264  1
  V  V64  1  0.49862112  0.50160946  -0.00013702  1
  V  V65  1  0.74985879  0.49930827  0.74961452  1
  V  V66  1  0.24857101  0.75127079  0.00041432  1
  V  V67  1  0.49989383  0.75063136  0.75119914  1
  V  V68  1  0.49981190  0.37507911  0.87407545  1
  V  V69  1  0.87525666  0.75109184  0.12517952  1
  V  V70  1  0.49900831  0.62485188  0.62487893  1
  V  V71  1  0.50029446  0.87511196  0.87546434  1
  V  V72  1  0.24897296  0.37489717  0.62557248  1
  V  V73  1  0.25234367  0.12412136  0.87570638  1
  V  V74  1  0.12706214  0.12472776  0.00114225  1
  V  V75  1  0.49878250  0.62535871  0.12388215  1
  V  V76  1  0.50026084  0.75103219  0.24923549  1
  V  V77  1  0.24872481  0.62465063  0.37401096  1
  V  V78  1  0.37635049  0.87454337  0.50019954  1
  V  V79  1  0.00173535  0.12803555  0.12710979  1
  V  V80  1  0.00192852  0.12500121  0.62565192  1
  V  V81  1  0.37324525  0.50020694  0.87379325  1
  V  V82  1  0.62654715  -0.00019006  0.62478477  1
  V  V83  1  0.00145532  -0.00040464  0.50163573  1
  V  V84  1  0.50206363  0.12558616  0.62574187  1
  V  V85  1  0.87399934  0.37405189  0.49794186  1
  V  V86  1  0.87477052  0.74915150  0.62595188  1
  V  V87  1  0.12394514  0.50024256  0.12427403  1
  V  V88  1  0.12443993  0.75047450  0.37593169  1
  V  V89  1  0.00025343  0.00000863  -0.00059709  1
  V  V90  1  0.87549183  0.12570822  0.74974109  1
  V  V91  1  0.37470801  0.37521167  -0.00063674  1
  V  V92  1  0.74928828  0.62464720  0.87525152  1
  V  V93  1  0.00006076  0.49906060  -0.00094551  1
  V  V94  1  0.49831507  0.37606122  0.37560679  1
  V  V95  1  0.87273278  0.62582856  0.24962438  1
  Zn  Zn96  1  0.75362650  0.25038020  0.00124238  1
  Zn  Zn97  1  0.75121751  0.12285102  0.37620512  1
  Zn  Zn98  1  0.74661107  0.50262807  0.24954787  1
  Zn  Zn99  1  0.37401127  0.50078838  0.37414487  1
  Zn  Zn100  1  0.49951132  0.25050246  0.74943091  1
  Zn  Zn101  1  0.75099202  0.24577159  0.49843246  1
  Zn  Zn102  1  0.62792684  0.12642613  0.00146554  1
  Zn  Zn103  1  0.87388464  0.00024193  0.37519163  1
  Zn  Zn104  1  0.62930300  0.12305042  0.49813013  1
  Zn  Zn105  1  0.87533413  0.37351897  0.00104836  1
  Zn  Zn106  1  0.37692707  0.25004296  0.62736236  1
  Zn  Zn107  1  0.12791868  0.12400478  0.50249282  1
  Zn  Zn108  1  0.12328371  0.87655624  0.75084904  1
  Zn  Zn109  1  0.37472323  0.87546826  0.00043936  1
  Zn  Zn110  1  0.12162453  0.37531570  0.24936091  1
  Zn  Zn111  1  0.62463695  0.75108240  0.37363506  1
  Zn  Zn112  1  0.12661027  0.00043567  0.12691992  1
  Zn  Zn113  1  0.49850141  0.50105514  0.49880061  1
  Zn  Zn114  1  -0.00126558  0.62489401  0.12374609  1
  Zn  Zn115  1  0.00023130  0.25007727  0.74980964  1
  Zn  Zn116  1  0.62488496  0.74828860  0.87607250  1
  Zn  Zn117  1  0.24775666  0.50071668  0.74854731  1
  Zn  Zn118  1  0.87508474  0.25312211  0.12442973  1
  Zn  Zn119  1  0.12322444  0.49845398  0.62429775  1
  Zn  Zn120  1  -0.00078837  0.25264962  0.25068671  1
  Zn  Zn121  1  0.50223415  0.87370481  0.37508977  1
  Zn  Zn122  1  0.74689694  0.62720978  0.37367908  1
  Zn  Zn123  1  0.00034285  0.87465744  0.87427611  1
  Zn  Zn124  1  0.12621809  -0.00080389  0.62827342  1
  Zn  Zn125  1  0.87685439  0.87426793  -0.00144066  1
  Zn  Zn126  1  0.62373834  0.62645552  -0.00187744  1
  Zn  Zn127  1  -0.00093122  0.37359047  0.37134848  1
  Zn  Zn128  1  0.18884282  0.18650578  0.18973739  1
  Zn  Zn129  1  0.18867240  0.18762649  0.68883147  1
  Zn  Zn130  1  0.18540659  0.68763819  0.18649095  1
  Zn  Zn131  1  0.18515552  0.68741327  0.68689334  1
  Zn  Zn132  1  0.68793982  0.18927906  0.18874223  1
  Zn  Zn133  1  0.68820570  0.18800901  0.68897391  1
  Zn  Zn134  1  0.68644627  0.68852877  0.18455139  1
  Zn  Zn135  1  0.68631126  0.68733092  0.68792436  1
  Zn  Zn136  1  0.30996212  0.31349326  0.31281694  1
  Zn  Zn137  1  0.31347710  0.31091806  0.81091246  1
  Zn  Zn138  1  0.31380811  0.81238559  0.31352284  1
  Zn  Zn139  1  0.31227372  0.81292243  0.81329511  1
  Zn  Zn140  1  0.81124699  0.31375242  0.30768456  1
  Zn  Zn141  1  0.81290979  0.31202620  0.81027207  1
  Zn  Zn142  1  0.81043447  0.81305375  0.31493215  1
  Zn  Zn143  1  0.81488083  0.81309332  0.81502186  1
  Zn  Zn144  1  0.18627208  0.43712784  0.43626407  1
  Zn  Zn145  1  0.18673277  0.43766779  0.93699697  1
  Zn  Zn146  1  0.18789314  0.93742987  0.43965289  1
  Zn  Zn147  1  0.18595595  0.93621140  0.93729191  1
  Zn  Zn148  1  0.68772718  0.43784972  0.43738444  1
  Zn  Zn149  1  0.68610722  0.43876087  0.93908305  1
  Zn  Zn150  1  0.68789498  0.93715962  0.43518691  1
  Zn  Zn151  1  0.68783288  0.93707443  0.93828735  1
  Zn  Zn152  1  0.31499133  0.06096259  0.06391510  1
  Zn  Zn153  1  0.31542106  0.06103115  0.56420647  1
  Zn  Zn154  1  0.31055604  0.56329289  0.06179273  1
  Zn  Zn155  1  0.31088201  0.56067904  0.56174029  1
  Zn  Zn156  1  0.81406057  0.06533925  0.06260770  1
  Zn  Zn157  1  0.81302186  0.06337308  0.56139407  1
  Zn  Zn158  1  0.81204894  0.56115696  0.06164933  1
  Zn  Zn159  1  0.81068358  0.56111179  0.56160122  1
  Zn  Zn160  1  0.43549645  0.43877737  0.18820545  1
  Zn  Zn161  1  0.43731512  0.43894274  0.68763871  1
  Zn  Zn162  1  0.43809352  0.93649291  0.18668965  1
  Zn  Zn163  1  0.43717452  0.93798572  0.68801894  1
  Zn  Zn164  1  0.93899185  0.43770065  0.18821321  1
  Zn  Zn165  1  0.93781482  0.43545579  0.68664984  1
  Zn  Zn166  1  0.93787370  0.93919556  0.18659809  1
  Zn  Zn167  1  0.93791003  0.93669014  0.68941616  1
  Zn  Zn168  1  0.06420147  0.06319094  0.31494845  1
  Zn  Zn169  1  0.06486521  0.06322700  0.81275157  1
  Zn  Zn170  1  0.06004968  0.56291736  0.31155580  1
  Zn  Zn171  1  0.06298749  0.56045449  0.81106821  1
  Zn  Zn172  1  0.56404699  0.06168970  0.31175959  1
  Zn  Zn173  1  0.56422651  0.06230633  0.81265662  1
  Zn  Zn174  1  0.55823651  0.56229519  0.31254272  1
  Zn  Zn175  1  0.56248313  0.56282263  0.81259599  1
  Zn  Zn176  1  0.43979938  0.18825734  0.43979739  1
  Zn  Zn177  1  0.43992545  0.18704477  0.93838655  1
  Zn  Zn178  1  0.43769174  0.68851330  0.43467246  1
  Zn  Zn179  1  0.43513919  0.68860382  0.93735772  1
  Zn  Zn180  1  0.93792592  0.18650082  0.43747294  1
  Zn  Zn181  1  0.93685387  0.19014633  0.94005022  1
  Zn  Zn182  1  0.93607239  0.68730013  0.43702157  1
  Zn  Zn183  1  0.93679537  0.68547974  0.93676482  1
  Zn  Zn184  1  0.06375582  0.31323462  0.06081221  1
  Zn  Zn185  1  0.06175119  0.31174626  0.55843059  1
  Zn  Zn186  1  0.06296699  0.81344074  0.06387892  1
  Zn  Zn187  1  0.06351017  0.81212002  0.56559273  1
  Zn  Zn188  1  0.56290198  0.31370948  0.06144953  1
  Zn  Zn189  1  0.56290206  0.31124265  0.56064707  1
  Zn  Zn190  1  0.56439693  0.81248721  0.06130677  1
  Zn  Zn191  1  0.56220547  0.81209519  0.56414950  1
  O  O192  1  0.11861717  0.12316696  0.12059702  1
  O  O193  1  0.11393249  0.12403736  0.62426840  1
  O  O194  1  0.12267549  0.61899090  0.11748626  1
  O  O195  1  0.11745960  0.62304587  0.61698611  1
  O  O196  1  0.61874234  0.11965873  0.12537264  1
  O  O197  1  0.61721225  0.11811000  0.62618048  1
  O  O198  1  0.61626117  0.61863712  0.12350117  1
  O  O199  1  0.61909177  0.62008789  0.61795535  1
  O  O200  1  0.37874372  0.37492498  0.38438405  1
  O  O201  1  0.37939813  0.37964494  0.88000760  1
  O  O202  1  0.37676873  0.88113342  0.38262308  1
  O  O203  1  0.38218063  0.88192021  0.87641355  1
  O  O204  1  0.87388551  0.38508323  0.37800179  1
  O  O205  1  0.88163143  0.38073057  0.87365150  1
  O  O206  1  0.88216819  0.87569805  0.38325715  1
  O  O207  1  0.87936510  0.88548825  0.87823737  1
  O  O208  1  0.25716205  0.00447458  0.37183784  1
  O  O209  1  0.25668273  0.00557190  0.87171617  1
  O  O210  1  0.24939743  0.50759239  0.36793979  1
  O  O211  1  0.25609073  0.50669279  0.87406427  1
  O  O212  1  0.75348840  0.00141410  0.36481766  1
  O  O213  1  0.75548105  0.00633268  0.87004051  1
  O  O214  1  0.76124943  0.50397421  0.37286720  1
  O  O215  1  0.75475088  0.50361118  0.86851004  1
  O  O216  1  0.24378516  0.49515053  0.12875446  1
  O  O217  1  0.24698504  0.48617499  0.62466106  1
  O  O218  1  0.24999786  0.99434979  0.13350509  1
  O  O219  1  0.25081402  0.99382007  0.63190770  1
  O  O220  1  0.74158877  0.49281570  0.12631348  1
  O  O221  1  0.74408288  0.49386313  0.63030136  1
  O  O222  1  0.74582210  0.99541602  0.12897555  1
  O  O223  1  0.74674949  0.99423051  0.63149021  1
  O  O224  1  0.00389635  0.37023597  0.25324381  1
  O  O225  1  0.00714002  0.37213814  0.75526878  1
  O  O226  1  0.00494538  0.87127585  0.25662515  1
  O  O227  1  0.00166449  0.86574354  0.75193765  1
  O  O228  1  0.50257987  0.36958372  0.25494256  1
  O  O229  1  0.50642501  0.37440820  0.75623212  1
  O  O230  1  0.50687544  0.86850028  0.24895398  1
  O  O231  1  0.50513720  0.87025248  0.75482285  1
  O  O232  1  0.49441918  0.13066008  0.24465783  1
  O  O233  1  0.49607749  0.12305040  0.74051318  1
  O  O234  1  0.49210641  0.63051406  0.24312171  1
  O  O235  1  0.49359403  0.63030482  0.74451061  1
  O  O236  1  0.99384023  0.12327522  0.24185417  1
  O  O237  1  0.99476176  0.12491001  0.74044074  1
  O  O238  1  0.98832071  0.63267676  0.24930554  1
  O  O239  1  0.99337545  0.62847394  0.74355255  1
  O  O240  1  0.37088050  0.25524771  0.00574745  1
  O  O241  1  0.36997735  0.26074693  0.50165026  1
  O  O242  1  0.36631030  0.75173329  0.00668743  1
  O  O243  1  0.36930335  0.75410309  0.50571169  1
  O  O244  1  0.87180448  0.25576244  0.00605303  1
  O  O245  1  0.87363951  0.25626814  0.50445209  1
  O  O246  1  0.86931000  0.75041422  0.00650510  1
  O  O247  1  0.86989370  0.75462753  0.50701549  1
  O  O248  1  0.13243079  0.24738160  0.49051805  1
  O  O249  1  0.13302237  0.24419638  0.99456759  1
  O  O250  1  0.12995269  0.74433022  0.49484951  1
  O  O251  1  0.12889069  0.74444339  0.99500288  1
  O  O252  1  0.62617949  0.24870820  0.48706893  1
  O  O253  1  0.62629575  0.25043964  0.98656015  1
  O  O254  1  0.62976297  0.74034853  0.50251622  1
  O  O255  1  0.63526500  0.74727936  0.99762147  1
  O  O256  1  0.49471017  0.24607358  0.13043717  1
  O  O257  1  0.50104406  0.23763600  0.62664731  1
  O  O258  1  0.49336527  0.74500331  0.12897613  1
  O  O259  1  0.49302503  0.74471241  0.63134523  1
  O  O260  1  1.00221166  0.23702784  0.12565914  1
  O  O261  1  0.99434825  0.23926789  0.62350887  1
  O  O262  1  0.99371318  0.74921726  0.13261449  1
  O  O263  1  0.99331374  0.74296156  0.62969028  1
  O  O264  1  0.01260144  0.24850608  0.37456042  1
  O  O265  1  0.00828531  0.25486169  0.87390215  1
  O  O266  1  0.00499164  0.75600032  0.37095816  1
  O  O267  1  0.00526432  0.74921056  0.86883912  1
  O  O268  1  0.50728614  0.25588708  0.36958887  1
  O  O269  1  0.50910733  0.25617542  0.87397190  1
  O  O270  1  0.50223265  0.75241515  0.36482739  1
  O  O271  1  0.49997367  0.75620984  0.86849041  1
  O  O272  1  0.25175778  0.13037235  0.49575626  1
  O  O273  1  0.24752507  0.12994478  0.99584906  1
  O  O274  1  0.24392554  0.63018076  0.49476953  1
  O  O275  1  0.24328469  0.63132327  0.99394645  1
  O  O276  1  0.74742129  0.12766869  0.49438728  1
  O  O277  1  0.74765801  0.12874249  0.99229067  1
  O  O278  1  0.73893312  0.63077135  0.50193540  1
  O  O279  1  0.74971940  0.63147857  0.99320759  1
  O  O280  1  0.25579096  0.36894989  0.00483773  1
  O  O281  1  0.25677155  0.36978185  0.50651555  1
  O  O282  1  0.25027266  0.86884925  0.00758506  1
  O  O283  1  0.25637569  0.86885720  0.50574973  1
  O  O284  1  0.74958068  0.37555458  0.01190250  1
  O  O285  1  0.75624449  0.37353579  0.50611801  1
  O  O286  1  0.75333461  0.86808241  0.00582784  1
  O  O287  1  0.75510710  0.87025587  0.50762438  1
  O  O288  1  0.13014871  0.50098251  0.24281303  1
  O  O289  1  0.12776645  0.49037933  0.74542821  1
  O  O290  1  0.13300608  0.99337018  0.25179354  1
  O  O291  1  0.13470892  0.99827707  0.74942304  1
  O  O292  1  0.62338043  0.49499092  0.24339763  1
  O  O293  1  0.63025623  0.49472843  0.74395065  1
  O  O294  1  0.63094857  0.99477241  0.24253646  1
  O  O295  1  0.63214806  0.99378462  0.74499010  1
  O  O296  1  0.37117806  0.00503713  0.25656763  1
  O  O297  1  0.37025714  0.00550141  0.75691456  1
  O  O298  1  0.36582815  0.50796372  0.24962922  1
  O  O299  1  0.37240834  0.50693534  0.75630983  1
  O  O300  1  0.87031855  0.00950623  0.24996533  1
  O  O301  1  0.86985462  0.00605193  0.75564038  1
  O  O302  1  0.87445295  0.51021704  0.25767846  1
  O  O303  1  0.86914161  0.50433127  0.75419241  1
  O  O304  1  0.12436416  0.36284353  0.37353152  1
  O  O305  1  0.12110077  0.36922403  0.86915333  1
  O  O306  1  0.11979079  0.86901951  0.37169217  1
  O  O307  1  0.12208842  0.86551943  0.87268048  1
  O  O308  1  0.61896330  0.36923103  0.36977725  1
  O  O309  1  0.62015423  0.36924483  0.86929556  1
  O  O310  1  0.62255227  0.87273462  0.36512604  1
  O  O311  1  0.61858291  0.87413927  0.86791433  1
  O  O312  1  0.38104200  0.13088035  0.13199080  1
  O  O313  1  0.38668227  0.12461999  0.63093658  1
  O  O314  1  0.37832621  0.63105672  0.12978886  1
  O  O315  1  0.37851281  0.62969401  0.62889813  1
  O  O316  1  0.88522271  0.12586909  0.13361067  1
  O  O317  1  0.88309632  0.12917136  0.63012960  1
  O  O318  1  0.87547141  0.63036158  0.13494693  1
  O  O319  1  0.87881489  0.62957698  0.62957367  1
  O  O320  1  0.25633034  0.25414338  0.11997311  1
  O  O321  1  0.25209818  0.25943293  0.61958999  1
  O  O322  1  0.25357025  0.75538881  0.12030147  1
  O  O323  1  0.25551449  0.75404635  0.61916301  1
  O  O324  1  0.74766597  0.26369611  0.12424158  1
  O  O325  1  0.75590264  0.25613764  0.62365252  1
  O  O326  1  0.75630797  0.75537068  0.11847351  1
  O  O327  1  0.75561243  0.75557144  0.62145755  1
  O  O328  1  0.24430100  0.24374104  0.38048640  1
  O  O329  1  0.24665096  0.24401919  0.88134311  1
  O  O330  1  0.24394617  0.74496536  0.38106935  1
  O  O331  1  0.24455057  0.74403372  0.88047850  1
  O  O332  1  0.73739279  0.25059848  0.37289663  1
  O  O333  1  0.74058185  0.24608417  0.87416086  1
  O  O334  1  0.74618518  0.74741552  0.38524639  1
  O  O335  1  0.75097053  0.74302893  0.88123228  1
  O  O336  1  0.00617108  0.11862639  0.00804623  1
  O  O337  1  -0.00064340  0.11520880  0.50955506  1
  O  O338  1  0.00623849  0.61723898  0.00034674  1
  O  O339  1  0.00353552  0.62017644  0.50429793  1
  O  O340  1  0.50271850  0.11859715  0.00756678  1
  O  O341  1  0.50226368  0.11842058  0.51053122  1
  O  O342  1  0.49827976  0.61917124  0.00616308  1
  O  O343  1  0.50776397  0.62558889  0.50617160  1
  O  O344  1  0.49004594  0.37534890  0.49573198  1
  O  O345  1  0.49305666  0.38121189  0.99438692  1
  O  O346  1  0.49389442  0.88078035  0.50076272  1
  O  O347  1  0.49867327  0.88171791  0.99387460  1
  O  O348  1  0.99147405  0.38141233  0.49610568  1
  O  O349  1  1.00083195  0.38189306  0.99188420  1
  O  O350  1  0.99532805  0.88128321  0.49811071  1
  O  O351  1  1.00000893  0.88933833  1.00043667  1
  O  O352  1  0.49467640  0.49183472  0.37834673  1
  O  O353  1  0.49326366  0.49484949  0.87969443  1
  O  O354  1  0.49451009  0.99932031  0.38177026  1
  O  O355  1  0.49603544  0.99531716  0.87977698  1
  O  O356  1  0.98743756  0.50098392  0.38024421  1
  O  O357  1  0.99485520  0.49381018  0.87922682  1
  O  O358  1  0.99967448  0.99424447  0.38603088  1
  O  O359  1  0.99533293  1.00373100  0.88557840  1
  O  O360  1  0.00243090  0.01036199  0.11679262  1
  O  O361  1  -0.00040616  0.00812455  0.61839861  1
  O  O362  1  0.00631772  0.50173514  0.11727865  1
  O  O363  1  -0.00137012  0.50606137  0.61654959  1
  O  O364  1  0.50559664  0.00553062  0.12056002  1
  O  O365  1  0.50614973  0.00674707  0.62082955  1
  O  O366  1  0.50230436  0.50532814  0.11929817  1
  O  O367  1  0.50612914  0.50734934  0.62302231  1
  O  O368  1  0.24829396  0.38215409  0.24257840  1
  O  O369  1  0.24538715  0.37452892  0.74034626  1
  O  O370  1  0.24483489  0.87949310  0.24685002  1
  O  O371  1  0.25066617  0.88103311  0.74388591  1
  O  O372  1  0.74141949  0.37942769  0.24016626  1
  O  O373  1  0.74419302  0.38083997  0.74272964  1
  O  O374  1  0.74596116  0.87981558  0.24276340  1
  O  O375  1  0.74604632  0.88022538  0.74556973  1
  O  O376  1  0.25790435  0.11866178  0.25674633  1
  O  O377  1  0.25704857  0.11956261  0.75627018  1
  O  O378  1  0.25313453  0.62133466  0.25454217  1
  O  O379  1  0.25563972  0.62408239  0.75531720  1
  O  O380  1  0.76057515  0.11925358  0.24805990  1
  O  O381  1  0.75611912  0.11887837  0.75547711  1
  O  O382  1  0.76089674  0.62520289  0.25114678  1
  O  O383  1  0.75536532  0.61858791  0.75349373  1
  O  O384  1  0.37178456  0.12000543  0.37106411  1
  O  O385  1  0.37141000  0.11948357  0.87092659  1
  O  O386  1  0.36637092  0.62483500  0.36793563  1
  O  O387  1  0.36862997  0.62015911  0.86917295  1
  O  O388  1  0.87577475  0.12254314  0.36228181  1
  O  O389  1  0.87054146  0.12106477  0.86924877  1
  O  O390  1  0.87270329  0.61810593  0.36689835  1
  O  O391  1  0.86940245  0.61700900  0.86765898  1
  O  O392  1  0.13287910  0.38157732  0.12439011  1
  O  O393  1  0.13370930  0.37316724  0.62868962  1
  O  O394  1  0.13145228  0.87697831  0.13415089  1
  O  O395  1  0.13429943  0.87645071  0.62834399  1
  O  O396  1  0.62893128  0.38132843  0.13003377  1
  O  O397  1  0.62909330  0.37962085  0.62921608  1
  O  O398  1  0.63208738  0.88137399  0.12997367  1
  O  O399  1  0.63098815  0.88011720  0.63184148  1
  O  O400  1  0.12633264  0.24991438  0.26245990  1
  O  O401  1  0.12427792  0.25588950  0.75734166  1
  O  O402  1  0.11913698  0.75551105  0.25677326  1
  O  O403  1  0.11738081  0.74857605  0.75666380  1
  O  O404  1  0.61791059  0.25703978  0.25718270  1
  O  O405  1  0.62398882  0.25646172  0.76061312  1
  O  O406  1  0.61835797  0.75609804  0.24846572  1
  O  O407  1  0.61785451  0.75670872  0.75064112  1
  O  O408  1  0.37953003  0.24451200  0.24572662  1
  O  O409  1  0.37953367  0.24079684  0.74812375  1
  O  O410  1  0.37858292  0.74454359  0.24348957  1
  O  O411  1  0.37984615  0.74409922  0.74414170  1
  O  O412  1  0.87723387  0.23890594  0.24654452  1
  O  O413  1  0.87735501  0.24310459  0.74171318  1
  O  O414  1  0.87891672  0.74364774  0.24641661  1
  O  O415  1  0.87959812  0.74285071  0.74470913  1
  O  O416  1  0.37478891  0.48706618  0.49783864  1
  O  O417  1  0.37867951  0.49451021  0.99411153  1
  O  O418  1  0.38182514  0.99359687  0.49561599  1
  O  O419  1  0.38290204  0.99874228  0.99391713  1
  O  O420  1  0.87808477  0.49589484  0.49143490  1
  O  O421  1  0.88187551  0.49788415  0.99228491  1
  O  O422  1  0.88621394  0.99298137  0.50060819  1
  O  O423  1  0.88633080  1.00228116  0.99516389  1
  O  O424  1  0.11685972  0.00730424  0.00139258  1
  O  O425  1  0.11308321  0.00082738  0.50366457  1
  O  O426  1  0.12019661  0.50579497  0.00418689  1
  O  O427  1  0.11677465  0.50633019  0.49929282  1
  O  O428  1  0.61926927  0.00209513  0.00698091  1
  O  O429  1  0.62013488  -0.00038192  0.50744658  1
  O  O430  1  0.61528913  0.50244901  0.00607622  1
  O  O431  1  0.62396283  0.50973068  0.50614714  1
  O  O432  1  0.36948754  0.36930161  0.11915919  1
  O  O433  1  0.36731300  0.37372116  0.61755078  1
  O  O434  1  0.36721456  0.86821046  0.12462164  1
  O  O435  1  0.36995524  0.86871032  0.62005688  1
  O  O436  1  0.86251769  0.37618802  0.12596803  1
  O  O437  1  0.86964431  0.36918262  0.61862729  1
  O  O438  1  0.86955466  0.86892492  0.12406085  1
  O  O439  1  0.86928609  0.86879668  0.62122489  1
  O  O440  1  0.13325808  0.13233568  0.37863992  1
  O  O441  1  0.13299178  0.13063023  0.88116842  1
  O  O442  1  0.12857013  0.63166432  0.37979960  1
  O  O443  1  0.12990624  0.62973142  0.88002378  1
  O  O444  1  0.62578894  0.13731111  0.37332729  1
  O  O445  1  0.63106539  0.13454753  0.87439748  1
  O  O446  1  0.62475576  0.62551030  0.38713260  1
  O  O447  1  0.63346743  0.62640739  0.87589877  1
