# generated using pymatgen
data_V3Zn3O8
_symmetry_space_group_name_H-M   'P 1'
_cell_length_a   17.08341214
_cell_length_b   17.08269400
_cell_length_c   17.08305836
_cell_angle_alpha   89.97963377
_cell_angle_beta   90.00694358
_cell_angle_gamma   90.00661679
_symmetry_Int_Tables_number   1
_chemical_formula_structural   V3Zn3O8
_chemical_formula_sum   'V96 Zn96 O256'
_cell_volume   4985.36053010
_cell_formula_units_Z   32
loop_
 _symmetry_equiv_pos_site_id
 _symmetry_equiv_pos_as_xyz
  1  'x, y, z'
loop_
 _atom_site_type_symbol
 _atom_site_label
 _atom_site_symmetry_multiplicity
 _atom_site_fract_x
 _atom_site_fract_y
 _atom_site_fract_z
 _atom_site_occupancy
  V  V0  1  0.87599117  0.37550430  0.49994854  1
  V  V1  1  0.37465695  0.49947328  0.87440197  1
  V  V2  1  0.49901009  0.74986079  0.75029758  1
  V  V3  1  0.87524102  0.62549509  0.74965091  1
  V  V4  1  0.49914496  0.62565356  0.12382464  1
  V  V5  1  0.37463324  0.75016044  0.12523170  1
  V  V6  1  0.00083054  0.12384911  0.62519703  1
  V  V7  1  0.62408115  0.74969508  0.87459147  1
  V  V8  1  0.62446423  0.50038760  0.12442748  1
  V  V9  1  0.87685691  0.37643806  0.00043797  1
  V  V10  1  0.87583076  0.62648989  0.25094673  1
  V  V11  1  0.62395013  0.62442825  0.00002317  1
  V  V12  1  0.24911346  0.49850468  0.74751859  1
  V  V13  1  0.62393301  0.74929214  0.37496911  1
  V  V14  1  -0.00011898  0.12492514  0.12470696  1
  V  V15  1  0.87558158  0.24987041  0.62560800  1
  V  V16  1  0.37465464  0.74863668  0.62518603  1
  V  V17  1  0.87634790  0.50002522  0.37677698  1
  V  V18  1  0.74983070  0.37679227  0.12612286  1
  V  V19  1  -0.00008779  0.25030273  0.25055347  1
  V  V20  1  0.24852261  0.74863101  -0.00043119  1
  V  V21  1  0.87412787  0.12481201  0.75250589  1
  V  V22  1  0.37605740  0.24971735  0.62417978  1
  V  V23  1  0.49927907  0.37566301  0.87495562  1
  V  V24  1  0.24922903  0.87354498  0.62560596  1
  V  V25  1  0.24920769  0.37461503  0.12456538  1
  V  V26  1  0.00128158  0.62475578  0.12371595  1
  V  V27  1  0.12542531  0.74912777  0.87553412  1
  V  V28  1  0.75135312  0.50104261  0.75065650  1
  V  V29  1  0.37633801  -0.00060245  0.87574575  1
  V  V30  1  0.25077863  0.24914682  -0.00101947  1
  V  V31  1  0.50074378  0.00044228  0.50276000  1
  V  V32  1  0.87467527  0.87458588  0.50119333  1
  V  V33  1  0.75087866  0.37508857  0.62629809  1
  V  V34  1  0.87502735  -0.00010441  0.37488448  1
  V  V35  1  0.87435453  0.25130082  0.12647110  1
  V  V36  1  -0.00126831  0.75069971  0.24981946  1
  V  V37  1  0.75100206  0.12564469  0.87545565  1
  V  V38  1  0.62471992  0.50135550  0.62472151  1
  V  V39  1  0.62543528  0.25025309  0.37700637  1
  V  V40  1  0.00000265  0.74964361  0.75047732  1
  V  V41  1  -0.00016524  0.37538248  0.87574655  1
  V  V42  1  0.74925030  0.62594681  0.37633974  1
  V  V43  1  0.62484047  0.12601447  0.00116993  1
  V  V44  1  0.12589295  0.24930340  0.87345397  1
  V  V45  1  0.37568695  0.12474209  0.25048559  1
  V  V46  1  0.12561051  0.37627694  0.24803071  1
  V  V47  1  0.62589245  0.37522863  0.75057685  1
  V  V48  1  0.74888963  0.00086063  0.25067651  1
  V  V49  1  0.49987863  0.25007501  0.25030637  1
  V  V50  1  0.12569825  0.00012616  0.12552828  1
  V  V51  1  0.12567753  0.37469639  0.74782811  1
  V  V52  1  0.49986374  0.87548394  0.87543832  1
  V  V53  1  0.12448627  0.87701311  0.25006560  1
  V  V54  1  0.74978071  0.87598127  0.62646157  1
  V  V55  1  0.62530423  0.37601095  0.25008931  1
  V  V56  1  0.74989589  0.24892821  0.50096582  1
  V  V57  1  0.37642517  0.12541216  0.74875004  1
  V  V58  1  0.62541594  0.87589830  0.74883111  1
  V  V59  1  0.24997336  0.87546982  0.12591157  1
  V  V60  1  0.37469193  0.62520462  0.24896085  1
  V  V61  1  0.25077231  0.12405766  0.87434618  1
  V  V62  1  -0.00064455  0.87574357  0.37518594  1
  V  V63  1  0.25082572  0.62423352  0.37342130  1
  V  V64  1  0.74951768  0.25142781  0.00134894  1
  V  V65  1  0.12537277  0.12448725  -0.00036111  1
  V  V66  1  0.62510385  0.00112720  0.12603710  1
  V  V67  1  0.50137276  0.62406090  0.62463300  1
  V  V68  1  0.37393863  0.62418789  0.75073767  1
  V  V69  1  0.12483013  0.62333646  0.49916111  1
  V  V70  1  0.37535390  0.49963855  0.37327031  1
  V  V71  1  0.12495189  0.75026011  0.37461242  1
  V  V72  1  0.00080347  0.25023042  0.74956434  1
  V  V73  1  0.25041001  0.24784155  0.49877557  1
  V  V74  1  0.62489371  0.87496845  0.25051932  1
  V  V75  1  0.12529170  0.24837406  0.37533839  1
  V  V76  1  0.37420156  0.37524043  -0.00108668  1
  V  V77  1  0.87426730  0.12564796  0.25078451  1
  V  V78  1  0.12466696  0.00039328  0.62484248  1
  V  V79  1  0.37595983  0.24949989  0.12544369  1
  V  V80  1  0.75090539  0.75195725  0.00193793  1
  V  V81  1  0.25044498  0.74840814  0.49975852  1
  V  V82  1  0.49991838  0.24971074  0.74899377  1
  V  V83  1  0.49981261  0.37535494  0.37489776  1
  V  V84  1  0.74942839  0.12594239  0.37697321  1
  V  V85  1  0.37397998  -0.00055048  0.37380374  1
  V  V86  1  0.37633331  0.37401726  0.49815788  1
  V  V87  1  -0.00132691  0.87613627  0.87597898  1
  V  V88  1  0.00082987  0.62397700  0.62372827  1
  V  V89  1  0.37446954  0.87415700  0.49979491  1
  V  V90  1  0.25076161  -0.00090854  0.75028645  1
  V  V91  1  0.50112204  0.00042498  0.00020672  1
  V  V92  1  0.62517145  0.25125609  0.87549735  1
  V  V93  1  0.12476307  0.87415234  0.75019043  1
  V  V94  1  0.75035656  0.62484477  0.87397895  1
  V  V95  1  -0.00117351  -0.00049187  -0.00121493  1
  Zn  Zn96  1  0.49945493  0.75093797  0.24876588  1
  Zn  Zn97  1  0.75005496  0.50080658  0.24959009  1
  Zn  Zn98  1  0.00323872  0.49754497  0.50002336  1
  Zn  Zn99  1  0.75235257  0.87555637  0.12436737  1
  Zn  Zn100  1  0.50041087  0.12522831  0.12576622  1
  Zn  Zn101  1  0.87688323  0.50044923  0.87647828  1
  Zn  Zn102  1  0.00286144  0.00100539  0.50009853  1
  Zn  Zn103  1  0.62343688  0.62402323  0.49955949  1
  Zn  Zn104  1  0.49802114  0.50060065  -0.00075703  1
  Zn  Zn105  1  0.24822679  0.12238906  0.37330513  1
  Zn  Zn106  1  0.24920477  0.37470585  0.62232531  1
  Zn  Zn107  1  0.12306212  0.62235441  -0.00189170  1
  Zn  Zn108  1  0.74923348  0.00111190  0.75235225  1
  Zn  Zn109  1  0.12524023  0.50015001  0.12012124  1
  Zn  Zn110  1  0.12630320  0.49686695  0.62072916  1
  Zn  Zn111  1  0.00010983  0.37566615  0.37599023  1
  Zn  Zn112  1  0.24759045  0.62340511  0.87573864  1
  Zn  Zn113  1  0.87432100  0.75049684  0.62485554  1
  Zn  Zn114  1  0.12360964  0.12324469  0.49977225  1
  Zn  Zn115  1  0.62518826  0.00193013  0.62650377  1
  Zn  Zn116  1  0.50140667  0.50048657  0.49926401  1
  Zn  Zn117  1  0.87384221  0.87705810  0.00109198  1
  Zn  Zn118  1  0.49941706  0.87210330  0.37608792  1
  Zn  Zn119  1  0.87262591  -0.00112056  0.87597317  1
  Zn  Zn120  1  0.00091172  0.50144222  -0.00187032  1
  Zn  Zn121  1  0.74771922  0.75060336  0.50186072  1
  Zn  Zn122  1  0.37649218  0.87543177  0.00179843  1
  Zn  Zn123  1  0.62521591  0.12399414  0.50332809  1
  Zn  Zn124  1  0.25067790  0.00115267  0.24915886  1
  Zn  Zn125  1  0.24911817  0.50128736  0.24682118  1
  Zn  Zn126  1  0.87449687  0.75224999  0.12461429  1
  Zn  Zn127  1  0.50356026  0.12492013  0.62526188  1
  Zn  Zn128  1  0.19005161  0.18668206  0.18786155  1
  Zn  Zn129  1  0.18883684  0.18674505  0.68570997  1
  Zn  Zn130  1  0.18619258  0.68863841  0.18783509  1
  Zn  Zn131  1  0.18623803  0.68516460  0.68727571  1
  Zn  Zn132  1  0.68661629  0.18832610  0.18881275  1
  Zn  Zn133  1  0.68677429  0.18578148  0.68723126  1
  Zn  Zn134  1  0.68769700  0.68602739  0.18793090  1
  Zn  Zn135  1  0.68789635  0.68939671  0.68699553  1
  Zn  Zn136  1  0.31172431  0.31209296  0.31205200  1
  Zn  Zn137  1  0.31285523  0.31299207  0.81123283  1
  Zn  Zn138  1  0.31170539  0.81284750  0.31138642  1
  Zn  Zn139  1  0.31282951  0.81251613  0.81440408  1
  Zn  Zn140  1  0.81092217  0.31390139  0.31323242  1
  Zn  Zn141  1  0.81382647  0.31220947  0.81375586  1
  Zn  Zn142  1  0.81158148  0.81202219  0.31289417  1
  Zn  Zn143  1  0.81441431  0.81227797  0.81301163  1
  Zn  Zn144  1  0.18971530  0.43733563  0.43519623  1
  Zn  Zn145  1  0.18510648  0.43816380  0.93674169  1
  Zn  Zn146  1  0.18784992  0.93695477  0.43884975  1
  Zn  Zn147  1  0.18686128  0.93565892  0.93854886  1
  Zn  Zn148  1  0.68804111  0.43787530  0.43973310  1
  Zn  Zn149  1  0.68871407  0.43912521  0.93848937  1
  Zn  Zn150  1  0.68745755  0.93736760  0.43802272  1
  Zn  Zn151  1  0.68637387  0.93868006  0.93632211  1
  Zn  Zn152  1  0.31420769  0.06229365  0.06285518  1
  Zn  Zn153  1  0.31272957  0.06362605  0.56274839  1
  Zn  Zn154  1  0.31069170  0.56144600  0.06332753  1
  Zn  Zn155  1  0.31482896  0.56142169  0.56114059  1
  Zn  Zn156  1  0.81210011  0.06221513  0.06235395  1
  Zn  Zn157  1  0.81387494  0.06129089  0.56392520  1
  Zn  Zn158  1  0.81407303  0.56283398  0.06249437  1
  Zn  Zn159  1  0.81215993  0.56304041  0.56183748  1
  Zn  Zn160  1  0.43750389  0.43856548  0.18694182  1
  Zn  Zn161  1  0.43713974  0.43619949  0.68578868  1
  Zn  Zn162  1  0.43980071  0.93676051  0.18694201  1
  Zn  Zn163  1  0.43681442  0.93622580  0.68751313  1
  Zn  Zn164  1  0.93854382  0.43983366  0.18868848  1
  Zn  Zn165  1  0.93797776  0.43895099  0.68873626  1
  Zn  Zn166  1  0.93557126  0.93645968  0.18495381  1
  Zn  Zn167  1  0.93661366  0.94020601  0.68951585  1
  Zn  Zn168  1  0.06089265  0.06230190  0.31199123  1
  Zn  Zn169  1  0.06182924  0.06176515  0.81179701  1
  Zn  Zn170  1  0.06198966  0.56270868  0.31147342  1
  Zn  Zn171  1  0.06359333  0.56130194  0.81312746  1
  Zn  Zn172  1  0.56101317  0.06333584  0.31591599  1
  Zn  Zn173  1  0.56419414  0.06242896  0.81232129  1
  Zn  Zn174  1  0.56024066  0.56207377  0.30911834  1
  Zn  Zn175  1  0.56205082  0.56204351  0.81175148  1
  Zn  Zn176  1  0.43807153  0.18499604  0.43681950  1
  Zn  Zn177  1  0.43879501  0.18682385  0.93676809  1
  Zn  Zn178  1  0.43926190  0.68535459  0.43710441  1
  Zn  Zn179  1  0.43481922  0.68680256  0.93796828  1
  Zn  Zn180  1  0.93841065  0.18711271  0.43909112  1
  Zn  Zn181  1  0.93721954  0.18898496  0.93815523  1
  Zn  Zn182  1  0.93758167  0.68949088  0.43864678  1
  Zn  Zn183  1  0.93619247  0.68859839  0.93684720  1
  Zn  Zn184  1  0.06207179  0.31107180  0.06165495  1
  Zn  Zn185  1  0.06212679  0.31346897  0.56230120  1
  Zn  Zn186  1  0.06237938  0.81237669  0.06271256  1
  Zn  Zn187  1  0.06222506  0.81136817  0.56207094  1
  Zn  Zn188  1  0.56089975  0.31421248  0.06296894  1
  Zn  Zn189  1  0.56278098  0.31329404  0.56269652  1
  Zn  Zn190  1  0.56359783  0.81314646  0.06319610  1
  Zn  Zn191  1  0.56243924  0.81289832  0.56164952  1
  O  O192  1  0.11990750  0.12120518  0.11943672  1
  O  O193  1  0.11891292  0.11834402  0.62506862  1
  O  O194  1  0.11295869  0.62394763  0.12651012  1
  O  O195  1  0.11630085  0.62356576  0.61840465  1
  O  O196  1  0.62362943  0.12005486  0.11929982  1
  O  O197  1  0.62215364  0.12001341  0.62110751  1
  O  O198  1  0.61943636  0.62006983  0.12027146  1
  O  O199  1  0.61957640  0.61964334  0.62498059  1
  O  O200  1  0.38050152  0.37904099  0.37802628  1
  O  O201  1  0.38003145  0.37896525  0.87945888  1
  O  O202  1  0.37579161  0.88245151  0.38045442  1
  O  O203  1  0.38219260  0.88182868  0.87641242  1
  O  O204  1  0.87415468  0.38466323  0.37997849  1
  O  O205  1  0.88210517  0.37381985  0.88250507  1
  O  O206  1  0.87863515  0.88013481  0.38200452  1
  O  O207  1  0.88393735  0.87736498  0.87796612  1
  O  O208  1  0.26242675  0.00007873  0.37485446  1
  O  O209  1  0.25512520  0.00431214  0.87003502  1
  O  O210  1  0.25733316  0.50691301  0.37092569  1
  O  O211  1  0.25552147  0.49973399  0.86318906  1
  O  O212  1  0.75538254  0.00618012  0.37000551  1
  O  O213  1  0.75116309  0.01060731  0.87461973  1
  O  O214  1  0.75844237  0.50887536  0.37466827  1
  O  O215  1  0.75081994  0.50709845  0.86770060  1
  O  O216  1  0.24581566  0.49043676  0.12757404  1
  O  O217  1  0.25059403  0.49747790  0.63578553  1
  O  O218  1  0.24335933  0.99373767  0.12477614  1
  O  O219  1  0.24613022  0.99341629  0.63101958  1
  O  O220  1  0.74344879  0.49451245  0.12697143  1
  O  O221  1  0.74547446  0.49460377  0.63110498  1
  O  O222  1  0.74269919  1.00049346  0.13312509  1
  O  O223  1  0.74922162  0.98663206  0.62739567  1
  O  O224  1  0.00912615  0.36798892  0.25086139  1
  O  O225  1  0.00544879  0.36854565  0.75440975  1
  O  O226  1  0.00457937  0.87087382  0.25570364  1
  O  O227  1  0.00602202  0.86951923  0.75452516  1
  O  O228  1  0.50549518  0.36925130  0.25524099  1
  O  O229  1  0.50600104  0.36940447  0.75549791  1
  O  O230  1  0.51374078  0.87393201  0.25302843  1
  O  O231  1  0.50412302  0.86848149  0.75491532  1
  O  O232  1  0.49361620  0.13262121  0.24984637  1
  O  O233  1  0.49356675  0.13216810  0.75051365  1
  O  O234  1  0.49282923  0.62799025  0.24146954  1
  O  O235  1  0.49377653  0.63112823  0.74503902  1
  O  O236  1  0.99372131  0.13053029  0.24403094  1
  O  O237  1  0.99515617  0.13179106  0.74556250  1
  O  O238  1  0.99534414  0.63161009  0.24432089  1
  O  O239  1  0.99626871  0.62971280  0.74193016  1
  O  O240  1  0.36964711  0.25444673  0.00409207  1
  O  O241  1  0.36795774  0.25354712  0.50223339  1
  O  O242  1  0.36475512  0.75190237  0.00564352  1
  O  O243  1  0.36969262  0.75386192  0.50517637  1
  O  O244  1  0.86895014  0.25542613  0.00794353  1
  O  O245  1  0.86942132  0.25537825  0.50598904  1
  O  O246  1  0.86087477  0.75087942  -0.00032727  1
  O  O247  1  0.87235846  0.76394066  0.50008538  1
  O  O248  1  0.13301256  0.25100229  0.49090287  1
  O  O249  1  0.13128872  0.24346430  0.99373892  1
  O  O250  1  0.13134302  0.74483490  0.49384246  1
  O  O251  1  0.13440751  0.75017034  0.99457873  1
  O  O252  1  0.63251634  0.25012597  0.49417691  1
  O  O253  1  0.62980990  0.24682746  0.99529316  1
  O  O254  1  0.62637084  0.74876767  0.48678573  1
  O  O255  1  0.63146254  0.74409459  0.99420890  1
  O  O256  1  0.49332623  0.25001102  0.13218713  1
  O  O257  1  0.49390932  0.24942742  0.63175644  1
  O  O258  1  0.49308839  0.74394260  0.12504044  1
  O  O259  1  0.49387823  0.74534821  0.63099035  1
  O  O260  1  0.99401247  0.24370443  0.13049313  1
  O  O261  1  0.99461455  0.24465790  0.63077455  1
  O  O262  1  0.99891303  0.74214611  0.13207390  1
  O  O263  1  1.00036567  0.73929146  0.63103973  1
  O  O264  1  0.00915645  0.25075045  0.36937585  1
  O  O265  1  0.00729940  0.25438448  0.86881034  1
  O  O266  1  0.00592089  0.75583834  0.36987267  1
  O  O267  1  0.00582786  0.75561407  0.86940495  1
  O  O268  1  0.50530003  0.25565674  0.36989951  1
  O  O269  1  0.50552814  0.25616871  0.86918455  1
  O  O270  1  0.51103458  0.75023860  0.37122084  1
  O  O271  1  0.50412763  0.75481575  0.86958352  1
  O  O272  1  0.24857136  0.13732459  0.49731530  1
  O  O273  1  0.24528957  0.12960916  0.99389765  1
  O  O274  1  0.24577229  0.63006125  0.49412778  1
  O  O275  1  0.24774545  0.63820905  0.99979675  1
  O  O276  1  0.75157787  0.13119151  0.49412333  1
  O  O277  1  0.74433742  0.13299118  0.99636059  1
  O  O278  1  0.74820545  0.62848534  0.48786524  1
  O  O279  1  0.74386292  0.63225339  0.99429347  1
  O  O280  1  0.25455267  0.36740677  0.00360276  1
  O  O281  1  0.25662907  0.36328173  0.49841589  1
  O  O282  1  0.25074555  0.86462722  0.00629643  1
  O  O283  1  0.25487422  0.86742628  0.50632095  1
  O  O284  1  0.75531339  0.36959510  0.00638029  1
  O  O285  1  0.75616669  0.36894959  0.50712409  1
  O  O286  1  0.74705698  0.86298229  0.00001521  1
  O  O287  1  0.75818833  0.87515824  0.50738989  1
  O  O288  1  0.12523233  0.48562072  0.25043884  1
  O  O289  1  0.13524382  0.49378883  0.74878748  1
  O  O290  1  0.12573554  0.99494421  0.24348977  1
  O  O291  1  0.13194939  0.99373584  0.74527385  1
  O  O292  1  0.62662044  0.49323962  0.24284276  1
  O  O293  1  0.63154052  0.49410736  0.74499083  1
  O  O294  1  0.62909227  0.99379647  0.24813422  1
  O  O295  1  0.62666647  0.99071402  0.74789120  1
  O  O296  1  0.37702366  0.00439905  0.25942974  1
  O  O297  1  0.36972078  0.00456276  0.75563101  1
  O  O298  1  0.37280358  0.50677577  0.25538082  1
  O  O299  1  0.36760568  0.50324042  0.75415716  1
  O  O300  1  0.86941596  0.00621109  0.25516075  1
  O  O301  1  0.87229592  0.01029011  0.75443666  1
  O  O302  1  0.87324566  0.50640683  0.26141123  1
  O  O303  1  0.86780916  0.50720666  0.75127204  1
  O  O304  1  0.12485720  0.36435240  0.36545949  1
  O  O305  1  0.12040764  0.36692055  0.86822172  1
  O  O306  1  0.11980119  0.86985967  0.37052043  1
  O  O307  1  0.11981168  0.86930989  0.86839147  1
  O  O308  1  0.62072568  0.37024574  0.37005160  1
  O  O309  1  0.62038027  0.37048653  0.87005319  1
  O  O310  1  0.62580952  0.86635731  0.36702824  1
  O  O311  1  0.61895173  0.86904784  0.86882684  1
  O  O312  1  0.37758586  0.13153043  0.13188220  1
  O  O313  1  0.37642140  0.13196045  0.63224724  1
  O  O314  1  0.37892223  0.63032404  0.12930995  1
  O  O315  1  0.38020281  0.63016017  0.63074325  1
  O  O316  1  0.87971848  0.13163489  0.13147238  1
  O  O317  1  0.87977018  0.13102479  0.63174265  1
  O  O318  1  0.88342862  0.62732915  0.13300295  1
  O  O319  1  0.88399056  0.62758748  0.62903735  1
  O  O320  1  0.25624189  0.25417303  0.11792705  1
  O  O321  1  0.25601906  0.25086081  0.61437103  1
  O  O322  1  0.25367700  0.75549747  0.11780141  1
  O  O323  1  0.25494591  0.75366256  0.61974571  1
  O  O324  1  0.75484981  0.25628622  0.12094967  1
  O  O325  1  0.75649006  0.25605909  0.62115141  1
  O  O326  1  0.74913688  0.74930401  0.11311127  1
  O  O327  1  0.75257706  0.76218221  0.62264519  1
  O  O328  1  0.24186233  0.24847629  0.38202464  1
  O  O329  1  0.24572575  0.24359757  0.87907455  1
  O  O330  1  0.24472565  0.74449078  0.38080634  1
  O  O331  1  0.24472572  0.75025841  0.88409024  1
  O  O332  1  0.74548399  0.24542659  0.38139553  1
  O  O333  1  0.74379833  0.24686190  0.88216262  1
  O  O334  1  0.74135834  0.74145179  0.37537009  1
  O  O335  1  0.74302612  0.74444080  0.88141819  1
  O  O336  1  0.00663886  0.12156265  0.00545114  1
  O  O337  1  0.00159182  0.12234388  0.50939156  1
  O  O338  1  -0.00020137  0.62704469  0.01153010  1
  O  O339  1  0.00549047  0.62590099  0.50861864  1
  O  O340  1  0.50758661  0.11937309  0.00077458  1
  O  O341  1  0.50014009  0.11305466  0.50182642  1
  O  O342  1  0.50597085  0.62386446  0.00545348  1
  O  O343  1  0.50203364  0.62169356  0.50911000  1
  O  O344  1  0.49370842  0.37501773  0.49179306  1
  O  O345  1  0.49199601  0.37608587  0.99258390  1
  O  O346  1  0.49217368  0.88274657  0.49863055  1
  O  O347  1  0.50047138  0.88202836  0.99289225  1
  O  O348  1  0.99164585  0.37725532  0.49681880  1
  O  O349  1  0.99383538  0.37276046  0.99373466  1
  O  O350  1  0.99099466  0.87561148  0.49446086  1
  O  O351  1  1.00097329  0.88156325  0.99341168  1
  O  O352  1  0.49358625  0.49297265  0.37478617  1
  O  O353  1  0.49266944  0.49307752  0.87466310  1
  O  O354  1  0.48951549  0.99747383  0.38406390  1
  O  O355  1  0.49566236  0.99495972  0.88020051  1
  O  O356  1  0.98699153  0.50037120  0.37690974  1
  O  O357  1  0.99757987  0.49034851  0.87512364  1
  O  O358  1  0.99266997  0.99363055  0.37601422  1
  O  O359  1  1.00095462  0.99382972  0.88170338  1
  O  O360  1  0.00599162  0.00663517  0.11984584  1
  O  O361  1  0.00749061  0.00607464  0.62573009  1
  O  O362  1  0.00181373  0.51225317  0.12508967  1
  O  O363  1  0.00191647  0.51289295  0.62376719  1
  O  O364  1  0.50753829  0.00223343  0.11846749  1
  O  O365  1  0.49805392  0.00003205  0.61392295  1
  O  O366  1  0.50603500  0.50660198  0.12175410  1
  O  O367  1  0.50693270  0.50628875  0.62644309  1
  O  O368  1  0.24030635  0.37260305  0.24310464  1
  O  O369  1  0.24524360  0.38262034  0.74788785  1
  O  O370  1  0.24194642  0.87700289  0.24363138  1
  O  O371  1  0.24501046  0.87927418  0.74486333  1
  O  O372  1  0.74311445  0.37647028  0.24348282  1
  O  O373  1  0.74567085  0.37962276  0.74538121  1
  O  O374  1  0.73959312  0.88193220  0.25125306  1
  O  O375  1  0.74497018  0.87466599  0.74199519  1
  O  O376  1  0.25965036  0.12159167  0.25275685  1
  O  O377  1  0.25609507  0.11901328  0.75550556  1
  O  O378  1  0.25579131  0.62515596  0.25617986  1
  O  O379  1  0.25549073  0.61521868  0.75031307  1
  O  O380  1  0.75544023  0.12145755  0.25692945  1
  O  O381  1  0.75656938  0.12679570  0.75787455  1
  O  O382  1  0.75605471  0.62452426  0.26102984  1
  O  O383  1  0.75509573  0.62120043  0.75430294  1
  O  O384  1  0.37395902  0.11492168  0.36899211  1
  O  O385  1  0.36960977  0.11950666  0.86915279  1
  O  O386  1  0.37006638  0.62048471  0.36909229  1
  O  O387  1  0.37200741  0.61847035  0.86772279  1
  O  O388  1  0.87000070  0.12062429  0.36945447  1
  O  O389  1  0.86824756  0.12791393  0.86957161  1
  O  O390  1  0.86825547  0.61943703  0.37244081  1
  O  O391  1  0.86838257  0.62395629  0.86749494  1
  O  O392  1  0.13003800  0.37082029  0.13452868  1
  O  O393  1  0.12755512  0.37703434  0.63210604  1
  O  O394  1  0.12936463  0.88087077  0.13115796  1
  O  O395  1  0.13045786  0.87860994  0.63082261  1
  O  O396  1  0.63003398  0.37997518  0.13005627  1
  O  O397  1  0.63143315  0.37975346  0.63198420  1
  O  O398  1  0.62758411  0.88090743  0.13553577  1
  O  O399  1  0.63412249  0.87456481  0.62987416  1
  O  O400  1  0.12104256  0.25596347  0.25656221  1
  O  O401  1  0.12107230  0.25422718  0.75441518  1
  O  O402  1  0.11908813  0.75718513  0.25665421  1
  O  O403  1  0.12066562  0.75553412  0.75488525  1
  O  O404  1  0.62011681  0.25632105  0.25681290  1
  O  O405  1  0.62048831  0.25649039  0.75603041  1
  O  O406  1  0.62604958  0.75830607  0.25790758  1
  O  O407  1  0.61806872  0.75531546  0.75564964  1
  O  O408  1  0.38043720  0.24510685  0.24551236  1
  O  O409  1  0.38012899  0.24540680  0.74492673  1
  O  O410  1  0.37614053  0.74393079  0.24338670  1
  O  O411  1  0.37902520  0.74465459  0.74474085  1
  O  O412  1  0.87937543  0.24544405  0.24607207  1
  O  O413  1  0.88125828  0.24556554  0.74435984  1
  O  O414  1  0.88142648  0.74376946  0.25134596  1
  O  O415  1  0.88290735  0.74339616  0.74842047  1
  O  O416  1  0.37634685  0.49200493  0.49174659  1
  O  O417  1  0.37344108  0.49295170  0.99215465  1
  O  O418  1  0.37994826  0.99452596  0.49316798  1
  O  O419  1  0.38214110  0.99899265  0.99332221  1
  O  O420  1  0.87469343  0.49454509  0.49097778  1
  O  O421  1  0.87782698  0.49137918  0.99763002  1
  O  O422  1  0.87649108  0.98889838  0.49408470  1
  O  O423  1  0.88356109  0.99998189  0.99775287  1
  O  O424  1  0.11999000  0.00613061  0.00541437  1
  O  O425  1  0.12423910  0.00195723  0.50821735  1
  O  O426  1  0.12007455  0.50397215  0.00208201  1
  O  O427  1  0.12400413  0.50702830  0.49958870  1
  O  O428  1  0.62060362  0.00671437  0.00566040  1
  O  O429  1  0.61230767  -0.00096800  0.50013785  1
  O  O430  1  0.62313597  0.50683364  0.00605938  1
  O  O431  1  0.62306143  0.50181133  0.50908914  1
  O  O432  1  0.36959231  0.36885299  0.11927164  1
  O  O433  1  0.37392714  0.36708406  0.61669918  1
  O  O434  1  0.36878935  0.86886597  0.12445800  1
  O  O435  1  0.36788339  0.86773992  0.62081246  1
  O  O436  1  0.87011192  0.36992177  0.12209680  1
  O  O437  1  0.87014952  0.36961893  0.62105935  1
  O  O438  1  0.86957568  0.87046783  0.12064115  1
  O  O439  1  0.86882777  0.87490543  0.61765237  1
  O  O440  1  0.12610377  0.13656119  0.37526114  1
  O  O441  1  0.13158522  0.12961909  0.87941537  1
  O  O442  1  0.13006831  0.63099997  0.37877471  1
  O  O443  1  0.12738590  0.63461165  0.87584899  1
  O  O444  1  0.63194814  0.13252036  0.37777122  1
  O  O445  1  0.63046316  0.13287344  0.88095011  1
  O  O446  1  0.63289580  0.63191105  0.37212728  1
  O  O447  1  0.62976167  0.63075043  0.87904784  1
