# generated using pymatgen
data_V3Zn3O8
_symmetry_space_group_name_H-M   'P 1'
_cell_length_a   17.09062005
_cell_length_b   17.08930550
_cell_length_c   17.08961958
_cell_angle_alpha   90.00613867
_cell_angle_beta   90.00177978
_cell_angle_gamma   89.99353689
_symmetry_Int_Tables_number   1
_chemical_formula_structural   V3Zn3O8
_chemical_formula_sum   'V96 Zn96 O256'
_cell_volume   4991.31090792
_cell_formula_units_Z   32
loop_
 _symmetry_equiv_pos_site_id
 _symmetry_equiv_pos_as_xyz
  1  'x, y, z'
loop_
 _atom_site_type_symbol
 _atom_site_label
 _atom_site_symmetry_multiplicity
 _atom_site_fract_x
 _atom_site_fract_y
 _atom_site_fract_z
 _atom_site_occupancy
  V  V0  1  0.37499922  0.62433871  0.75102391  1
  V  V1  1  0.50076741  0.12421565  0.12370065  1
  V  V2  1  0.12443368  0.25203317  0.87416217  1
  V  V3  1  0.87454701  0.74898197  0.62493252  1
  V  V4  1  0.49978689  0.49971662  0.49958943  1
  V  V5  1  -0.00063993  -0.00042994  -0.00091227  1
  V  V6  1  0.62551917  0.74821976  0.87602146  1
  V  V7  1  0.74960818  0.74912948  0.00003660  1
  V  V8  1  0.25237014  0.12420376  0.87328567  1
  V  V9  1  -0.00131670  0.24877100  0.74803842  1
  V  V10  1  0.37487729  0.37471932  0.00065011  1
  V  V11  1  0.00044845  0.25067446  0.24826111  1
  V  V12  1  0.12569939  0.37521431  0.24915957  1
  V  V13  1  0.37460426  0.62654489  0.25176411  1
  V  V14  1  0.87625841  0.37487422  0.49910863  1
  V  V15  1  0.37522750  0.24984563  0.12449858  1
  V  V16  1  0.25053431  0.87436957  0.62536408  1
  V  V17  1  0.74967367  0.62474207  0.87559183  1
  V  V18  1  0.75058845  -0.00177430  0.74978639  1
  V  V19  1  0.12454062  0.75048748  0.87468429  1
  V  V20  1  0.12411621  0.00012242  0.62426905  1
  V  V21  1  0.49955802  0.74990597  0.25087318  1
  V  V22  1  0.25074642  0.62480220  0.87558019  1
  V  V23  1  0.37559742  0.87627946  -0.00003751  1
  V  V24  1  0.87583392  0.49952357  0.87504692  1
  V  V25  1  0.50004827  0.87562394  0.37650153  1
  V  V26  1  0.12295921  0.12386745  0.50025414  1
  V  V27  1  0.37442348  0.00131620  0.37474368  1
  V  V28  1  0.00085807  0.62571049  0.12516257  1
  V  V29  1  0.12498466  0.75069584  0.37592044  1
  V  V30  1  0.62505931  0.75049289  0.37583650  1
  V  V31  1  0.37471365  0.37497144  0.50010822  1
  V  V32  1  0.49852463  0.62413685  0.62607039  1
  V  V33  1  0.12467288  0.50024795  0.62463037  1
  V  V34  1  0.24892630  0.24962683  0.49947678  1
  V  V35  1  0.87445404  0.00043552  0.37448588  1
  V  V36  1  0.62373731  0.00073463  0.12410649  1
  V  V37  1  0.74997453  0.37558966  0.12480830  1
  V  V38  1  0.87459419  0.62606970  0.25067451  1
  V  V39  1  0.12575077  0.87707106  0.24973382  1
  V  V40  1  0.87623285  0.37576434  -0.00101801  1
  V  V41  1  0.62463204  0.62432188  0.50035565  1
  V  V42  1  0.87415806  0.12517197  0.24967663  1
  V  V43  1  0.24864490  0.62603800  0.37596209  1
  V  V44  1  0.62490792  0.87564447  0.25090629  1
  V  V45  1  0.12483494  0.87442254  0.75011456  1
  V  V46  1  0.74904089  0.87452312  0.62582280  1
  V  V47  1  0.37420561  0.49998240  0.87530821  1
  V  V48  1  0.75036343  0.00101768  0.24957899  1
  V  V49  1  0.75028901  0.62438169  0.37460599  1
  V  V50  1  0.50011034  0.87467328  0.87543260  1
  V  V51  1  0.74928529  0.87479028  0.12539631  1
  V  V52  1  0.37712240  0.24708928  0.62746986  1
  V  V53  1  0.24802629  0.37606677  0.62756416  1
  V  V54  1  0.62355690  0.12454966  0.50089535  1
  V  V55  1  0.74991180  0.24950940  -0.00152903  1
  V  V56  1  0.37522647  0.12419978  0.25032273  1
  V  V57  1  0.25015472  0.75162186  0.00121651  1
  V  V58  1  0.49984875  0.62467397  0.12502923  1
  V  V59  1  0.74917830  0.12530378  0.87432089  1
  V  V60  1  0.74934451  0.49913280  0.24897623  1
  V  V61  1  0.87513511  0.25016151  0.12370338  1
  V  V62  1  0.00040547  0.62334481  0.62424121  1
  V  V63  1  0.12578225  -0.00015683  0.12574578  1
  V  V64  1  0.00019696  0.50102879  -0.00015170  1
  V  V65  1  0.12421702  0.62551187  0.50014292  1
  V  V66  1  0.87462812  0.75076311  0.12540193  1
  V  V67  1  0.87538879  0.87531248  0.00011498  1
  V  V68  1  0.00010649  0.37543343  0.37457403  1
  V  V69  1  -0.00017670  0.75068349  0.25055022  1
  V  V70  1  0.74919572  0.24941570  0.49759383  1
  V  V71  1  0.87497791  -0.00100199  0.87486972  1
  V  V72  1  0.62462748  0.49886811  0.62497214  1
  V  V73  1  0.50019671  0.37438197  0.37347462  1
  V  V74  1  0.37500620  0.87447892  0.50212944  1
  V  V75  1  0.50048778  0.25135110  0.25011780  1
  V  V76  1  0.50030894  0.50032282  0.00087037  1
  V  V77  1  0.12584148  0.24934973  0.37450784  1
  V  V78  1  0.87489029  0.62403505  0.74923970  1
  V  V79  1  0.37454652  0.50063043  0.37572644  1
  V  V80  1  0.12492652  0.62573885  0.00082742  1
  V  V81  1  0.24929550  0.50013292  0.25017857  1
  V  V82  1  0.12486636  0.12469825  -0.00055751  1
  V  V83  1  0.87434661  0.87556987  0.49941116  1
  V  V84  1  0.00031982  0.74985560  0.75034370  1
  V  V85  1  0.74961581  0.74920347  0.50048214  1
  V  V86  1  0.25067953  0.37492576  0.12541030  1
  V  V87  1  0.25025374  0.00045075  0.75070870  1
  V  V88  1  -0.00060182  0.87627226  0.37571161  1
  V  V89  1  0.62433064  0.37292650  0.75066666  1
  V  V90  1  0.00013674  0.12547272  0.12383351  1
  V  V91  1  0.75035470  0.49886427  0.74998900  1
  V  V92  1  0.62548836  0.87378671  0.74973578  1
  V  V93  1  0.75048204  0.37461760  0.62388724  1
  V  V94  1  0.49960519  0.74825677  0.75053994  1
  V  V95  1  0.50064669  0.37388714  0.87412398  1
  Zn  Zn96  1  0.62474324  0.37383921  0.24937875  1
  Zn  Zn97  1  0.24998281  0.00050168  0.24798048  1
  Zn  Zn98  1  0.62456280  0.25034832  0.37228146  1
  Zn  Zn99  1  0.50123227  0.00125280  -0.00234551  1
  Zn  Zn100  1  0.62316344  0.00012654  0.62526086  1
  Zn  Zn101  1  0.24824197  0.50060498  0.75169150  1
  Zn  Zn102  1  0.12525019  0.50035413  0.12500310  1
  Zn  Zn103  1  -0.00064791  0.50006472  0.49832087  1
  Zn  Zn104  1  0.37308289  0.75272640  0.12714778  1
  Zn  Zn105  1  0.37940817  0.12274152  0.74942716  1
  Zn  Zn106  1  0.62567222  0.62344420  0.00124346  1
  Zn  Zn107  1  0.62355471  0.24870722  0.87442557  1
  Zn  Zn108  1  0.74836106  0.12597832  0.37328948  1
  Zn  Zn109  1  0.62330496  0.12489305  -0.00087318  1
  Zn  Zn110  1  0.24993270  0.25016709  -0.00025136  1
  Zn  Zn111  1  0.25164225  0.87616006  0.12685307  1
  Zn  Zn112  1  0.24954090  0.12476526  0.37269345  1
  Zn  Zn113  1  0.00005426  0.87535677  0.87449697  1
  Zn  Zn114  1  0.37853114  0.00116405  0.87315891  1
  Zn  Zn115  1  -0.00315193  0.12253175  0.62573054  1
  Zn  Zn116  1  0.87700020  0.50101864  0.37483056  1
  Zn  Zn117  1  0.87522758  0.12318673  0.74576358  1
  Zn  Zn118  1  -0.00218201  0.00049048  0.50150452  1
  Zn  Zn119  1  0.00101353  0.37638321  0.87411378  1
  Zn  Zn120  1  0.50141112  0.12222208  0.62873028  1
  Zn  Zn121  1  0.62487120  0.49831365  0.12355790  1
  Zn  Zn122  1  0.87659893  0.24654943  0.62516078  1
  Zn  Zn123  1  0.50208178  0.24670348  0.75145460  1
  Zn  Zn124  1  0.24947943  0.74957589  0.50216829  1
  Zn  Zn125  1  0.37343257  0.74879297  0.62582686  1
  Zn  Zn126  1  0.12296893  0.37775443  0.75083861  1
  Zn  Zn127  1  0.50139376  0.00177630  0.50406029  1
  Zn  Zn128  1  0.19004279  0.18648674  0.18757439  1
  Zn  Zn129  1  0.18653797  0.18736186  0.68777078  1
  Zn  Zn130  1  0.18772921  0.69010321  0.18711670  1
  Zn  Zn131  1  0.18901993  0.68793842  0.68757491  1
  Zn  Zn132  1  0.68596141  0.18814736  0.18619879  1
  Zn  Zn133  1  0.68861666  0.18727131  0.68651183  1
  Zn  Zn134  1  0.68557086  0.68694846  0.18745039  1
  Zn  Zn135  1  0.68654168  0.68671781  0.68816224  1
  Zn  Zn136  1  0.31312353  0.31168601  0.31216943  1
  Zn  Zn137  1  0.31317332  0.31183695  0.81185300  1
  Zn  Zn138  1  0.31048650  0.81369596  0.31360363  1
  Zn  Zn139  1  0.31304439  0.81214750  0.81352035  1
  Zn  Zn140  1  0.81362689  0.31313371  0.31279510  1
  Zn  Zn141  1  0.81387471  0.31211104  0.81235092  1
  Zn  Zn142  1  0.81180645  0.81326623  0.31303474  1
  Zn  Zn143  1  0.81294725  0.81234926  0.81348150  1
  Zn  Zn144  1  0.18655350  0.43821083  0.43868196  1
  Zn  Zn145  1  0.18825050  0.43835385  0.93994147  1
  Zn  Zn146  1  0.18917799  0.93788551  0.43740106  1
  Zn  Zn147  1  0.18795295  0.93755380  0.93767352  1
  Zn  Zn148  1  0.68667247  0.43668893  0.43448151  1
  Zn  Zn149  1  0.68614784  0.43725319  0.93824179  1
  Zn  Zn150  1  0.68886153  0.93964738  0.43782514  1
  Zn  Zn151  1  0.68647836  0.93753963  0.93768594  1
  Zn  Zn152  1  0.31214373  0.06146661  0.06112434  1
  Zn  Zn153  1  0.30965061  0.06202805  0.56156665  1
  Zn  Zn154  1  0.31315909  0.56279891  0.06358356  1
  Zn  Zn155  1  0.31135890  0.56245234  0.56275250  1
  Zn  Zn156  1  0.81152725  0.06252086  0.06144622  1
  Zn  Zn157  1  0.81146730  0.06302889  0.56376023  1
  Zn  Zn158  1  0.81396640  0.56295262  0.06282659  1
  Zn  Zn159  1  0.81258731  0.56050180  0.56218392  1
  Zn  Zn160  1  0.43636151  0.43813075  0.18805448  1
  Zn  Zn161  1  0.43675753  0.43679874  0.68927924  1
  Zn  Zn162  1  0.43836791  0.93823342  0.18679453  1
  Zn  Zn163  1  0.43886511  0.94001604  0.68807742  1
  Zn  Zn164  1  0.93691378  0.43871676  0.18625177  1
  Zn  Zn165  1  0.93920550  0.43448473  0.68677653  1
  Zn  Zn166  1  0.93855955  0.93836600  0.18724214  1
  Zn  Zn167  1  0.93817581  0.93757697  0.68706823  1
  Zn  Zn168  1  0.06094278  0.06265271  0.31297977  1
  Zn  Zn169  1  0.06265260  0.06315504  0.81192106  1
  Zn  Zn170  1  0.06239765  0.56146445  0.31329241  1
  Zn  Zn171  1  0.06379150  0.56259074  0.81175969  1
  Zn  Zn172  1  0.56200987  0.06442430  0.31433405  1
  Zn  Zn173  1  0.56242509  0.06097970  0.81023733  1
  Zn  Zn174  1  0.56337175  0.56172839  0.31236699  1
  Zn  Zn175  1  0.56263336  0.56052442  0.81375920  1
  Zn  Zn176  1  0.43889710  0.18813446  0.43883756  1
  Zn  Zn177  1  0.43889539  0.18934668  0.93901072  1
  Zn  Zn178  1  0.43725919  0.68870361  0.43819370  1
  Zn  Zn179  1  0.43670493  0.68870885  0.93880169  1
  Zn  Zn180  1  0.93763169  0.18796683  0.43530763  1
  Zn  Zn181  1  0.93668645  0.18653664  0.93506290  1
  Zn  Zn182  1  0.93814645  0.68812737  0.43764112  1
  Zn  Zn183  1  0.93748196  0.68744885  0.93705498  1
  Zn  Zn184  1  0.06331710  0.31374844  0.06115112  1
  Zn  Zn185  1  0.06198717  0.31114085  0.56271425  1
  Zn  Zn186  1  0.06274615  0.81386902  0.06285612  1
  Zn  Zn187  1  0.06168281  0.81262017  0.56257401  1
  Zn  Zn188  1  0.56524291  0.31219214  0.06203772  1
  Zn  Zn189  1  0.56235701  0.31139106  0.56180985  1
  Zn  Zn190  1  0.56178237  0.81166045  0.06281002  1
  Zn  Zn191  1  0.56071336  0.81183811  0.56418992  1
  O  O192  1  0.11899244  0.12128897  0.11938568  1
  O  O193  1  0.12570399  0.11932203  0.61472264  1
  O  O194  1  0.11810149  0.62520837  0.11881298  1
  O  O195  1  0.11998680  0.62047439  0.62014856  1
  O  O196  1  0.61853060  0.11784322  0.12411746  1
  O  O197  1  0.62635142  0.12424811  0.61275838  1
  O  O198  1  0.61155399  0.62300717  0.12480751  1
  O  O199  1  0.61936693  0.61843526  0.61983488  1
  O  O200  1  0.37907526  0.38156451  0.38097475  1
  O  O201  1  0.37916422  0.38011589  0.88041161  1
  O  O202  1  0.37969202  0.88197760  0.38255854  1
  O  O203  1  0.38148568  0.87461732  0.88386480  1
  O  O204  1  0.88158041  0.37525195  0.38371700  1
  O  O205  1  0.87580996  0.38264624  0.88190655  1
  O  O206  1  0.87946408  0.87962307  0.37966125  1
  O  O207  1  0.87575989  0.88060433  0.88281953  1
  O  O208  1  0.26393394  0.00107292  0.37313623  1
  O  O209  1  0.24770553  0.01068629  0.86911465  1
  O  O210  1  0.25520603  0.50542847  0.37013260  1
  O  O211  1  0.25644995  0.50690968  0.87518676  1
  O  O212  1  0.75721101  0.00048965  0.36610812  1
  O  O213  1  0.75524337  0.00607600  0.87066674  1
  O  O214  1  0.75210014  0.50592622  0.36564601  1
  O  O215  1  0.75608404  0.50508141  0.86933736  1
  O  O216  1  0.24961011  0.49390969  0.13283716  1
  O  O217  1  0.24484487  0.49007413  0.62509116  1
  O  O218  1  0.24058065  0.99799143  0.12626115  1
  O  O219  1  0.24358988  0.99397593  0.63097071  1
  O  O220  1  0.75121025  0.49563192  0.13376640  1
  O  O221  1  0.74398825  0.49488127  0.63027333  1
  O  O222  1  0.74526574  0.99367904  0.13061158  1
  O  O223  1  0.74872533  0.99084689  0.63204346  1
  O  O224  1  0.00493476  0.36949343  0.25324341  1
  O  O225  1  0.00300853  0.36438925  0.75377217  1
  O  O226  1  0.00435291  0.86942841  0.25579936  1
  O  O227  1  0.00674834  0.86713689  0.75092589  1
  O  O228  1  0.49896568  0.36976230  0.25596092  1
  O  O229  1  0.50710221  0.37508289  0.75639332  1
  O  O230  1  0.50572901  0.86951987  0.25646647  1
  O  O231  1  0.50548685  0.86759772  0.75558257  1
  O  O232  1  0.49407164  0.13104617  0.24428811  1
  O  O233  1  0.49702404  0.12940095  0.74714702  1
  O  O234  1  0.49486953  0.62919939  0.24459656  1
  O  O235  1  0.49514764  0.62809754  0.74545381  1
  O  O236  1  0.99438663  0.13168517  0.24329801  1
  O  O237  1  0.99885306  0.13558132  0.74935078  1
  O  O238  1  0.99471910  0.63131843  0.24573257  1
  O  O239  1  0.99378807  0.63018185  0.74392671  1
  O  O240  1  0.37294665  0.25775274  0.00723483  1
  O  O241  1  0.36865181  0.25601310  0.50728107  1
  O  O242  1  0.36877492  0.75985944  0.00067866  1
  O  O243  1  0.37356436  0.76302086  0.50042296  1
  O  O244  1  0.87090084  0.25537212  0.00478783  1
  O  O245  1  0.86719390  0.25911166  0.49893337  1
  O  O246  1  0.86977017  0.75499915  0.00605086  1
  O  O247  1  0.86853345  0.75470024  0.50537626  1
  O  O248  1  0.12925340  0.24273089  0.49463419  1
  O  O249  1  0.12507068  0.24359286  0.99011470  1
  O  O250  1  0.12523636  0.74379246  0.49321093  1
  O  O251  1  0.12927485  0.74540174  0.99445204  1
  O  O252  1  0.63417717  0.24429410  0.49842639  1
  O  O253  1  0.63532123  0.24734516  0.99626761  1
  O  O254  1  0.62999158  0.74384341  0.49529199  1
  O  O255  1  0.63224024  0.74813637  0.99411687  1
  O  O256  1  0.49414549  0.24503794  0.13004332  1
  O  O257  1  0.48659526  0.25120970  0.62493114  1
  O  O258  1  0.49879497  0.74056253  0.13251882  1
  O  O259  1  0.49834209  0.74134943  0.63243170  1
  O  O260  1  0.99483142  0.24499992  0.12882948  1
  O  O261  1  1.00095849  0.24781946  0.63631743  1
  O  O262  1  0.99393314  0.74561593  0.13097266  1
  O  O263  1  0.99374995  0.74370804  0.63079966  1
  O  O264  1  0.00605533  0.25565704  0.36716314  1
  O  O265  1  0.00953596  0.24955938  0.86800464  1
  O  O266  1  0.00473692  0.75612408  0.36905108  1
  O  O267  1  0.00613994  0.75029334  0.86789999  1
  O  O268  1  0.49788411  0.25795606  0.36800035  1
  O  O269  1  0.50234128  0.25923579  0.87321857  1
  O  O270  1  0.50652816  0.75487436  0.37047629  1
  O  O271  1  0.50640453  0.75364067  0.86987158  1
  O  O272  1  0.23848905  0.13077479  0.49702105  1
  O  O273  1  0.24331506  0.12642624  0.98987211  1
  O  O274  1  0.24339983  0.62623610  0.49331956  1
  O  O275  1  0.24536447  0.63080200  0.99530201  1
  O  O276  1  0.74360016  0.13498978  0.49796643  1
  O  O277  1  0.75060642  0.13054448  0.99053324  1
  O  O278  1  0.74435014  0.62938978  0.49538068  1
  O  O279  1  0.75018311  0.63147028  0.99396741  1
  O  O280  1  0.25716203  0.37379661  0.00733994  1
  O  O281  1  0.25486830  0.37048476  0.50849448  1
  O  O282  1  0.25921126  0.86951193  -0.00073694  1
  O  O283  1  0.25964490  0.87459148  0.50579976  1
  O  O284  1  0.75724542  0.37044784  0.00464848  1
  O  O285  1  0.75633216  0.36881341  0.50287627  1
  O  O286  1  0.75561118  0.86876939  0.00644798  1
  O  O287  1  0.75457767  0.86771170  0.50491029  1
  O  O288  1  0.13173455  0.49317574  0.24892611  1
  O  O289  1  0.12817796  0.49766172  0.74166809  1
  O  O290  1  0.12385290  0.99497925  0.24386885  1
  O  O291  1  0.13021169  0.99412259  0.74473000  1
  O  O292  1  0.63896249  0.50000148  0.24841501  1
  O  O293  1  0.63120524  0.49411808  0.74411376  1
  O  O294  1  0.63019964  0.99436276  0.24545176  1
  O  O295  1  0.63388201  0.99010977  0.74958216  1
  O  O296  1  0.37619582  0.00484768  0.25987151  1
  O  O297  1  0.36484757  0.00193470  0.75328855  1
  O  O298  1  0.36904635  0.50661086  0.25723560  1
  O  O299  1  0.37298661  0.50636170  0.75763349  1
  O  O300  1  0.86997740  0.00542968  0.25364383  1
  O  O301  1  0.86833692  -0.00151716  0.75729905  1
  O  O302  1  0.86494654  0.50699408  0.25041527  1
  O  O303  1  0.86991921  0.50462250  0.75408443  1
  O  O304  1  0.12036149  0.36883745  0.36959649  1
  O  O305  1  0.12574793  0.36316614  0.87507189  1
  O  O306  1  0.11907428  0.87096852  0.37062508  1
  O  O307  1  0.12389953  0.86803487  0.86820226  1
  O  O308  1  0.61528011  0.37302494  0.37173738  1
  O  O309  1  0.61901670  0.37535667  0.86744546  1
  O  O310  1  0.62044848  0.86995430  0.37071944  1
  O  O311  1  0.62092780  0.86717638  0.86965193  1
  O  O312  1  0.38048973  0.12954520  0.12972575  1
  O  O313  1  0.37198122  0.13743442  0.62362554  1
  O  O314  1  0.38484819  0.62709018  0.13264272  1
  O  O315  1  0.38130594  0.62480844  0.63123102  1
  O  O316  1  0.88078211  0.13043031  0.12937762  1
  O  O317  1  0.87880680  0.12879166  0.62725769  1
  O  O318  1  0.88061430  0.63241134  0.13096360  1
  O  O319  1  0.87924979  0.62932374  0.62965167  1
  O  O320  1  0.25727997  0.25664328  0.12368901  1
  O  O321  1  0.25533196  0.25841595  0.61981434  1
  O  O322  1  0.25266226  0.75369078  0.11689608  1
  O  O323  1  0.25324722  0.75826767  0.62252555  1
  O  O324  1  0.75712200  0.25505563  0.11929908  1
  O  O325  1  0.75198078  0.25718838  0.61292354  1
  O  O326  1  0.75481091  0.75499679  0.12105754  1
  O  O327  1  0.75543483  0.75305557  0.61984190  1
  O  O328  1  0.24374265  0.24985159  0.38192585  1
  O  O329  1  0.24074688  0.24181396  0.87418080  1
  O  O330  1  0.24227038  0.74340986  0.37708569  1
  O  O331  1  0.24371155  0.74396833  0.88095229  1
  O  O332  1  0.74875254  0.25032193  0.38637103  1
  O  O333  1  0.75162701  0.24007614  0.87967035  1
  O  O334  1  0.74406703  0.74474983  0.38050724  1
  O  O335  1  0.74566597  0.74398059  0.88031886  1
  O  O336  1  0.00451617  0.11968003  0.00487367  1
  O  O337  1  0.01271437  0.12541131  0.50021268  1
  O  O338  1  0.00467290  0.62128047  0.00570480  1
  O  O339  1  0.00518580  0.62399282  0.50685141  1
  O  O340  1  0.50198675  0.12225827  0.00775313  1
  O  O341  1  0.51172112  0.12607500  0.50314477  1
  O  O342  1  0.49869252  0.62032639  0.01041138  1
  O  O343  1  0.50510137  0.61939748  0.50490185  1
  O  O344  1  0.49399611  0.38117638  0.49469162  1
  O  O345  1  0.49415560  0.38069355  0.99535620  1
  O  O346  1  0.49137916  0.87513086  0.49456104  1
  O  O347  1  0.49127037  0.87311654  0.99410507  1
  O  O348  1  0.99086478  0.37304153  0.49419027  1
  O  O349  1  0.99374631  0.38240547  0.99844664  1
  O  O350  1  0.99172084  0.87498622  0.49329714  1
  O  O351  1  0.99287256  0.88149031  0.99879602  1
  O  O352  1  0.49385970  0.49606491  0.38036356  1
  O  O353  1  0.49341068  0.49467215  0.88117490  1
  O  O354  1  0.48975066  0.99369520  0.37763048  1
  O  O355  1  0.49907591  0.98991285  0.87692730  1
  O  O356  1  0.99702936  0.49162507  0.37739108  1
  O  O357  1  0.99351825  0.50053218  0.88128575  1
  O  O358  1  0.99208666  0.99335144  0.37673147  1
  O  O359  1  0.99377287  0.99940586  0.88165519  1
  O  O360  1  0.00457484  0.00695993  0.11886702  1
  O  O361  1  0.00881140  0.00122269  0.62161390  1
  O  O362  1  0.00067826  0.50826144  0.11854577  1
  O  O363  1  0.00610843  0.50600983  0.62276958  1
  O  O364  1  0.50718503  0.00653694  0.12462811  1
  O  O365  1  0.50504787  0.00337189  0.62138365  1
  O  O366  1  0.49901550  0.50982128  0.12095833  1
  O  O367  1  0.50507219  0.50404739  0.61889101  1
  O  O368  1  0.24543240  0.38037697  0.24552455  1
  O  O369  1  0.24812937  0.37588467  0.73716064  1
  O  O370  1  0.24127822  0.87831203  0.24839100  1
  O  O371  1  0.24426090  0.87991446  0.74567711  1
  O  O372  1  0.75248415  0.38443127  0.24437046  1
  O  O373  1  0.74579797  0.38052112  0.74394880  1
  O  O374  1  0.74440595  0.87986347  0.24443836  1
  O  O375  1  0.74514795  0.87747528  0.74530448  1
  O  O376  1  0.25930576  0.12213803  0.25319424  1
  O  O377  1  0.24879106  0.11921988  0.75922895  1
  O  O378  1  0.25455227  0.62059948  0.25619472  1
  O  O379  1  0.25684283  0.62452705  0.75794626  1
  O  O380  1  0.75692036  0.11938829  0.24958552  1
  O  O381  1  0.75147170  0.11828627  0.75872908  1
  O  O382  1  0.75466668  0.61899002  0.25414363  1
  O  O383  1  0.75557022  0.61867811  0.75463653  1
  O  O384  1  0.37593794  0.11569412  0.37116441  1
  O  O385  1  0.36172652  0.12602461  0.87507351  1
  O  O386  1  0.36965756  0.61989426  0.37158093  1
  O  O387  1  0.37036243  0.61953358  0.87110550  1
  O  O388  1  0.87379151  0.11911924  0.36712403  1
  O  O389  1  0.86426467  0.11747139  0.87385191  1
  O  O390  1  0.86801958  0.62536465  0.36876502  1
  O  O391  1  0.86923520  0.61984293  0.86854376  1
  O  O392  1  0.13179090  0.37597622  0.13158343  1
  O  O393  1  0.13493558  0.37997915  0.62295413  1
  O  O394  1  0.12400542  0.88243906  0.13207315  1
  O  O395  1  0.13046132  0.87982586  0.63014690  1
  O  O396  1  0.63449525  0.37837072  0.12832029  1
  O  O397  1  0.63030780  0.38100879  0.62901831  1
  O  O398  1  0.62991671  0.87908071  0.13197881  1
  O  O399  1  0.63248758  0.87226383  0.63203852  1
  O  O400  1  0.11974409  0.25497129  0.25434979  1
  O  O401  1  0.11774633  0.25098753  0.75903148  1
  O  O402  1  0.11829048  0.75583723  0.25622233  1
  O  O403  1  0.11954606  0.75433290  0.75504318  1
  O  O404  1  0.61626594  0.25220853  0.25175992  1
  O  O405  1  0.62512969  0.25963789  0.75123825  1
  O  O406  1  0.62033592  0.75586499  0.25674754  1
  O  O407  1  0.61980603  0.75359595  0.75635220  1
  O  O408  1  0.38072107  0.24443796  0.24418344  1
  O  O409  1  0.37513619  0.24869690  0.73784776  1
  O  O410  1  0.38202443  0.74437518  0.25180915  1
  O  O411  1  0.38257663  0.74239529  0.75021060  1
  O  O412  1  0.88066713  0.24547015  0.24342241  1
  O  O413  1  0.88648187  0.24862851  0.74949797  1
  O  O414  1  0.87963711  0.74606425  0.24474351  1
  O  O415  1  0.87925515  0.74359773  0.74439905  1
  O  O416  1  0.38042116  0.49502600  0.49489760  1
  O  O417  1  0.38065716  0.49457855  0.99485990  1
  O  O418  1  0.37554466  0.99103449  0.49232901  1
  O  O419  1  0.37661614  0.98795739  0.99598022  1
  O  O420  1  0.87474411  0.48671282  0.49759097  1
  O  O421  1  0.88051676  0.49603153  0.99442763  1
  O  O422  1  0.87405556  0.99277050  0.49282360  1
  O  O423  1  0.87981322  0.99416467  0.99574080  1
  O  O424  1  0.11859571  0.00532266  0.00478184  1
  O  O425  1  0.12485675  0.00888628  0.50419985  1
  O  O426  1  0.11851665  0.50802912  0.00181742  1
  O  O427  1  0.12271279  0.50729742  0.50656628  1
  O  O428  1  0.62363281  0.00081111  0.00974909  1
  O  O429  1  0.62568672  0.01111320  0.50084838  1
  O  O430  1  0.61638919  0.50351624  0.00261455  1
  O  O431  1  0.61993534  0.50505880  0.50497708  1
  O  O432  1  0.37010554  0.36985837  0.12043406  1
  O  O433  1  0.36653828  0.36928232  0.61980537  1
  O  O434  1  0.37491584  0.87344622  0.11415175  1
  O  O435  1  0.37010695  0.87515289  0.61594244  1
  O  O436  1  0.87031747  0.36910337  0.11870937  1
  O  O437  1  0.86921280  0.37290130  0.61439820  1
  O  O438  1  0.86906664  0.86985939  0.12066445  1
  O  O439  1  0.86907975  0.86778823  0.61965192  1
  O  O440  1  0.12573948  0.13072377  0.38277966  1
  O  O441  1  0.13267159  0.13289650  0.87945145  1
  O  O442  1  0.12910298  0.63074986  0.37986937  1
  O  O443  1  0.13056018  0.63093369  0.88101746  1
  O  O444  1  0.62768320  0.12862179  0.38556856  1
  O  O445  1  0.63902475  0.12447096  0.87624444  1
  O  O446  1  0.62994982  0.63059358  0.38108661  1
  O  O447  1  0.63222356  0.63050584  0.87582753  1
