# generated using pymatgen
data_V3Zn3O8
_symmetry_space_group_name_H-M   'P 1'
_cell_length_a   17.08839467
_cell_length_b   17.08897917
_cell_length_c   17.08915908
_cell_angle_alpha   89.99684997
_cell_angle_beta   90.01158098
_cell_angle_gamma   90.01006884
_symmetry_Int_Tables_number   1
_chemical_formula_structural   V3Zn3O8
_chemical_formula_sum   'V96 Zn96 O256'
_cell_volume   4990.43108713
_cell_formula_units_Z   32
loop_
 _symmetry_equiv_pos_site_id
 _symmetry_equiv_pos_as_xyz
  1  'x, y, z'
loop_
 _atom_site_type_symbol
 _atom_site_label
 _atom_site_symmetry_multiplicity
 _atom_site_fract_x
 _atom_site_fract_y
 _atom_site_fract_z
 _atom_site_occupancy
  V  V0  1  0.49913951  0.75053465  0.24969296  1
  V  V1  1  0.24914729  0.00046657  0.24955619  1
  V  V2  1  0.12417175  0.75004239  0.87590011  1
  V  V3  1  0.62447726  0.75012738  0.87588699  1
  V  V4  1  0.12611848  0.37498543  0.75028923  1
  V  V5  1  0.50174977  0.37492665  0.37498014  1
  V  V6  1  0.12393556  0.74954500  0.37469845  1
  V  V7  1  0.62518454  0.25076360  0.37349110  1
  V  V8  1  0.75076470  0.62262835  0.37598029  1
  V  V9  1  0.00062100  0.37334164  0.37416634  1
  V  V10  1  0.50078668  0.12586448  0.62452825  1
  V  V11  1  0.75000051  0.37441870  0.62681413  1
  V  V12  1  0.37628689  0.25076776  0.62466243  1
  V  V13  1  0.50109732  0.37728677  0.87512805  1
  V  V14  1  -0.00044137  0.74945830  0.75052365  1
  V  V15  1  0.62565063  -0.00002597  0.62453321  1
  V  V16  1  0.00010558  0.37471570  0.87578695  1
  V  V17  1  0.87641395  0.12668194  0.24741365  1
  V  V18  1  0.37620108  0.37569813  0.49983771  1
  V  V19  1  0.87637660  0.37236154  0.50032460  1
  V  V20  1  0.74789462  0.62521891  0.87717930  1
  V  V21  1  0.50008056  0.12543555  0.12493065  1
  V  V22  1  -0.00027131  0.74966804  0.25073056  1
  V  V23  1  0.12388116  0.62533329  0.00082154  1
  V  V24  1  0.25111894  0.37562860  0.62504958  1
  V  V25  1  0.37498834  0.12548710  0.75000359  1
  V  V26  1  0.49950955  0.00065530  -0.00111468  1
  V  V27  1  0.87513387  0.87331450  0.49965546  1
  V  V28  1  0.12542599  0.37512044  0.24927173  1
  V  V29  1  -0.00047269  0.87323580  0.37538665  1
  V  V30  1  0.00159949  -0.00129990  0.49954377  1
  V  V31  1  0.62459435  0.87465347  0.25017254  1
  V  V32  1  0.87442656  0.62407607  0.75100041  1
  V  V33  1  0.25004533  0.62500692  0.37524385  1
  V  V34  1  0.25029119  0.12566244  0.87385688  1
  V  V35  1  0.62473364  -0.00045617  0.12548618  1
  V  V36  1  0.62460005  0.62445351  0.50169656  1
  V  V37  1  0.37442774  0.87567890  0.49956076  1
  V  V38  1  0.50102148  0.50090447  0.50101092  1
  V  V39  1  0.24920605  0.87631539  0.12499913  1
  V  V40  1  0.50043388  0.62513839  0.62510396  1
  V  V41  1  0.12526127  0.87519168  0.74929529  1
  V  V42  1  0.49932564  0.87651568  0.87492144  1
  V  V43  1  0.00085995  0.49801802  0.50021191  1
  V  V44  1  0.49905946  -0.00026716  0.49912249  1
  V  V45  1  0.37567971  0.37702826  0.00030137  1
  V  V46  1  0.62609766  0.12590724  -0.00036698  1
  V  V47  1  0.37577842  0.12552932  0.24916860  1
  V  V48  1  0.37519542  0.62660597  0.24928719  1
  V  V49  1  0.12646418  0.25037053  0.87448207  1
  V  V50  1  0.87345695  0.74855830  0.12583155  1
  V  V51  1  0.37467406  0.75076317  0.62459207  1
  V  V52  1  0.62627165  0.25007096  0.87560528  1
  V  V53  1  0.24986861  0.74993778  0.49994677  1
  V  V54  1  0.12597228  0.25009175  0.37380049  1
  V  V55  1  0.25071695  0.24991414  0.49923358  1
  V  V56  1  0.25071354  0.24990432  -0.00123115  1
  V  V57  1  0.62375672  0.50252027  0.12447994  1
  V  V58  1  0.75097777  0.37424034  0.12441524  1
  V  V59  1  0.00238162  0.12347348  0.62431824  1
  V  V60  1  0.25089469  0.50168503  0.75095057  1
  V  V61  1  0.37496831  0.00143440  0.87424204  1
  V  V62  1  0.24978746  0.12580753  0.37523202  1
  V  V63  1  0.12564806  0.49964061  0.62502664  1
  V  V64  1  0.87307102  0.87397585  0.00076129  1
  V  V65  1  0.49919514  0.75089353  0.75006692  1
  V  V66  1  0.12488661  0.50045068  0.12517049  1
  V  V67  1  0.62487465  0.87591504  0.74941774  1
  V  V68  1  0.87475940  0.12206103  0.75033378  1
  V  V69  1  0.87623054  0.24801037  0.62319666  1
  V  V70  1  0.62584771  0.12406303  0.49899004  1
  V  V71  1  0.87463710  0.74848340  0.62536901  1
  V  V72  1  0.37428862  0.00021450  0.37514292  1
  V  V73  1  -0.00046180  0.00246092  0.00014124  1
  V  V74  1  -0.00043243  0.62355571  0.62569062  1
  V  V75  1  0.12511699  0.62410076  0.50017615  1
  V  V76  1  0.74940195  -0.00081036  0.24978234  1
  V  V77  1  0.62430316  0.74991855  0.37496852  1
  V  V78  1  0.37353334  0.75141340  0.12563947  1
  V  V79  1  0.12358051  0.00236058  0.12490267  1
  V  V80  1  0.24935458  0.62606073  0.87487253  1
  V  V81  1  0.24878501  0.87571701  0.62620975  1
  V  V82  1  0.25015028  0.50002716  0.24935996  1
  V  V83  1  0.37404397  0.62621301  0.75083146  1
  V  V84  1  0.87471467  0.49820507  0.87588763  1
  V  V85  1  0.24896068  0.75215878  0.00123100  1
  V  V86  1  0.74921438  0.87453929  0.62526773  1
  V  V87  1  0.87391813  0.49927714  0.37516705  1
  V  V88  1  0.75033978  0.12484839  0.87462390  1
  V  V89  1  0.75016360  0.12395796  0.37449567  1
  V  V90  1  0.37587626  0.24972219  0.12461617  1
  V  V91  1  0.74957325  0.74871538  0.50058240  1
  V  V92  1  -0.00078122  0.87435367  0.87514734  1
  V  V93  1  0.50151231  0.25078796  0.74991738  1
  V  V94  1  0.00000209  0.62480722  0.12528955  1
  V  V95  1  0.37612615  0.50034900  0.37444305  1
  Zn  Zn96  1  0.74833232  0.87350067  0.12547360  1
  Zn  Zn97  1  0.00230700  0.24820301  0.74958876  1
  Zn  Zn98  1  -0.00012386  0.50001815  0.00153586  1
  Zn  Zn99  1  0.87499270  -0.00097686  0.37311347  1
  Zn  Zn100  1  0.37583628  0.50323135  0.87699205  1
  Zn  Zn101  1  0.87307358  -0.00119939  0.87496724  1
  Zn  Zn102  1  -0.00122147  0.12958740  0.12350715  1
  Zn  Zn103  1  0.24858919  0.00069280  0.74923541  1
  Zn  Zn104  1  0.87473496  0.37227077  0.00061906  1
  Zn  Zn105  1  0.75192626  0.24756225  0.49958697  1
  Zn  Zn106  1  0.12345618  0.87558069  0.25084911  1
  Zn  Zn107  1  0.37354865  0.87695707  -0.00041582  1
  Zn  Zn108  1  0.49882648  0.50435666  0.00073729  1
  Zn  Zn109  1  0.49953007  0.62577701  0.12239113  1
  Zn  Zn110  1  0.75006764  0.50008406  0.25046761  1
  Zn  Zn111  1  0.00105814  0.24944344  0.24682424  1
  Zn  Zn112  1  0.75016821  -0.00173542  0.75084929  1
  Zn  Zn113  1  0.25019497  0.37495708  0.12468566  1
  Zn  Zn114  1  0.12789230  0.00003835  0.62637717  1
  Zn  Zn115  1  0.49884329  0.87487050  0.37494087  1
  Zn  Zn116  1  0.62550260  0.49901162  0.62758748  1
  Zn  Zn117  1  0.62594688  0.37622849  0.74975373  1
  Zn  Zn118  1  0.74529816  0.75038631  0.00218530  1
  Zn  Zn119  1  0.62488586  0.37720394  0.24968253  1
  Zn  Zn120  1  0.61907740  0.62771719  0.00061712  1
  Zn  Zn121  1  0.12409631  0.12730564  -0.00132415  1
  Zn  Zn122  1  0.75334745  0.24933915  0.00131030  1
  Zn  Zn123  1  0.87365367  0.62292714  0.25088459  1
  Zn  Zn124  1  0.74641706  0.49828214  0.75085114  1
  Zn  Zn125  1  0.50003941  0.25187448  0.24868341  1
  Zn  Zn126  1  0.12666372  0.12393702  0.49962948  1
  Zn  Zn127  1  0.87851006  0.25307351  0.12288892  1
  Zn  Zn128  1  0.18900739  0.18853419  0.18642263  1
  Zn  Zn129  1  0.18814392  0.18840959  0.68808183  1
  Zn  Zn130  1  0.18672547  0.68780190  0.18814653  1
  Zn  Zn131  1  0.18675164  0.68885916  0.68779665  1
  Zn  Zn132  1  0.68897696  0.18808516  0.18794466  1
  Zn  Zn133  1  0.68869624  0.18908533  0.68825197  1
  Zn  Zn134  1  0.68775975  0.68531359  0.19008299  1
  Zn  Zn135  1  0.68694090  0.68708978  0.68997355  1
  Zn  Zn136  1  0.31307654  0.31297374  0.31131121  1
  Zn  Zn137  1  0.31429035  0.31271364  0.81262167  1
  Zn  Zn138  1  0.31093920  0.81458243  0.31172134  1
  Zn  Zn139  1  0.31185460  0.81405798  0.81296987  1
  Zn  Zn140  1  0.81076801  0.31251334  0.30937201  1
  Zn  Zn141  1  0.81388750  0.30810361  0.81062103  1
  Zn  Zn142  1  0.81150696  0.81188009  0.31268633  1
  Zn  Zn143  1  0.81116469  0.81104186  0.81314514  1
  Zn  Zn144  1  0.18839285  0.43650485  0.43598528  1
  Zn  Zn145  1  0.18787451  0.43889406  0.93831174  1
  Zn  Zn146  1  0.18647704  0.93657099  0.43746439  1
  Zn  Zn147  1  0.18741550  0.93880520  0.93676503  1
  Zn  Zn148  1  0.68866259  0.43648890  0.44182381  1
  Zn  Zn149  1  0.68674658  0.43858810  0.94206133  1
  Zn  Zn150  1  0.68746218  0.93683102  0.43578488  1
  Zn  Zn151  1  0.68782511  0.93982261  0.93647112  1
  Zn  Zn152  1  0.31218168  0.06382116  0.06071444  1
  Zn  Zn153  1  0.31244211  0.06246629  0.56283199  1
  Zn  Zn154  1  0.31101726  0.56402962  0.06349731  1
  Zn  Zn155  1  0.31411458  0.56275796  0.56286857  1
  Zn  Zn156  1  0.81044565  0.06237155  0.06393878  1
  Zn  Zn157  1  0.81309738  0.06005588  0.56131040  1
  Zn  Zn158  1  0.81051827  0.56037211  0.06114140  1
  Zn  Zn159  1  0.81244356  0.55904284  0.56166281  1
  Zn  Zn160  1  0.44038198  0.43752882  0.18830028  1
  Zn  Zn161  1  0.43751922  0.43949556  0.68895788  1
  Zn  Zn162  1  0.43772155  0.93681738  0.18744438  1
  Zn  Zn163  1  0.43693534  0.93910142  0.68735865  1
  Zn  Zn164  1  0.93677805  0.43821081  0.18972905  1
  Zn  Zn165  1  0.93651806  0.43643098  0.68979554  1
  Zn  Zn166  1  0.93700126  0.93785144  0.18816446  1
  Zn  Zn167  1  0.93799779  0.93704268  0.68604194  1
  Zn  Zn168  1  0.06204082  0.06319298  0.31250841  1
  Zn  Zn169  1  0.06365598  0.06076202  0.81298680  1
  Zn  Zn170  1  0.06065960  0.56190569  0.31134164  1
  Zn  Zn171  1  0.06267847  0.56148400  0.81303137  1
  Zn  Zn172  1  0.56148044  0.06259695  0.31175733  1
  Zn  Zn173  1  0.56340863  0.06311307  0.81183180  1
  Zn  Zn174  1  0.56335583  0.56324217  0.31007273  1
  Zn  Zn175  1  0.56367247  0.56073816  0.81052205  1
  Zn  Zn176  1  0.43835670  0.18759424  0.43662050  1
  Zn  Zn177  1  0.43844880  0.18905443  0.93746896  1
  Zn  Zn178  1  0.43832005  0.68768945  0.43647240  1
  Zn  Zn179  1  0.43615344  0.68960099  0.93958935  1
  Zn  Zn180  1  0.93783732  0.18650989  0.43471050  1
  Zn  Zn181  1  0.93562352  0.19015129  0.93762440  1
  Zn  Zn182  1  0.93712746  0.68545689  0.43809027  1
  Zn  Zn183  1  0.93664280  0.68652283  0.93896452  1
  Zn  Zn184  1  0.06281462  0.31242342  0.06272171  1
  Zn  Zn185  1  0.06427565  0.31030965  0.56132354  1
  Zn  Zn186  1  0.06124519  0.81404237  0.06416601  1
  Zn  Zn187  1  0.06290808  0.81145222  0.56349480  1
  Zn  Zn188  1  0.56470352  0.31331176  0.06230655  1
  Zn  Zn189  1  0.56514786  0.31209349  0.56047863  1
  Zn  Zn190  1  0.56034233  0.81308578  0.06230057  1
  Zn  Zn191  1  0.56199447  0.81291231  0.56165836  1
  O  O192  1  0.12445686  0.11251937  0.12195841  1
  O  O193  1  0.11374081  0.12412374  0.62381501  1
  O  O194  1  0.11966644  0.62070286  0.12026800  1
  O  O195  1  0.11960104  0.61946478  0.62013860  1
  O  O196  1  0.61984869  0.11947917  0.12017538  1
  O  O197  1  0.61998505  0.12073022  0.61939478  1
  O  O198  1  0.62478156  0.61598822  0.12308239  1
  O  O199  1  0.61788481  0.62588274  0.61919178  1
  O  O200  1  0.38051771  0.38089997  0.38100496  1
  O  O201  1  0.38405597  0.37482454  0.88363638  1
  O  O202  1  0.37423672  0.88233225  0.38206140  1
  O  O203  1  0.38164919  0.88249806  0.87521168  1
  O  O204  1  0.88032559  0.37854949  0.38086709  1
  O  O205  1  0.88337566  0.38207661  0.87150166  1
  O  O206  1  0.88134321  0.87442656  0.38269123  1
  O  O207  1  0.88069730  0.87408927  0.88438895  1
  O  O208  1  0.25416141  0.00554289  0.37017161  1
  O  O209  1  0.25644537  0.00720561  0.87328345  1
  O  O210  1  0.25627502  0.50585143  0.37035153  1
  O  O211  1  0.25065489  0.50820590  0.86809269  1
  O  O212  1  0.75091443  0.00614870  0.36803638  1
  O  O213  1  0.75328107  0.00819057  0.87095543  1
  O  O214  1  0.75647960  0.50526146  0.37844013  1
  O  O215  1  0.75803559  0.50680980  0.87382039  1
  O  O216  1  0.24313871  0.49938573  0.13240358  1
  O  O217  1  0.24522973  0.49538500  0.62992269  1
  O  O218  1  0.24212071  0.99702528  0.12854180  1
  O  O219  1  0.24829404  0.99206088  0.62699180  1
  O  O220  1  0.74178221  0.49299569  0.12521868  1
  O  O221  1  0.75122845  0.48734884  0.62735797  1
  O  O222  1  0.74158774  0.99726413  0.13176794  1
  O  O223  1  0.74328412  0.99209747  0.62532673  1
  O  O224  1  0.00790224  0.37465645  0.25788888  1
  O  O225  1  0.00700991  0.37372034  0.75955066  1
  O  O226  1  0.00062729  0.86829295  0.25733686  1
  O  O227  1  0.00332491  0.86820352  0.75490880  1
  O  O228  1  0.50310661  0.37192134  0.25995462  1
  O  O229  1  0.49797258  0.36897024  0.75988044  1
  O  O230  1  0.50614356  0.86906068  0.25268463  1
  O  O231  1  0.50501998  0.86997966  0.75418293  1
  O  O232  1  0.49269632  0.12567030  0.24267562  1
  O  O233  1  0.49517185  0.13128724  0.74373867  1
  O  O234  1  0.49169285  0.63286600  0.24901636  1
  O  O235  1  0.49391941  0.63176809  0.74524505  1
  O  O236  1  0.98841336  0.12444782  0.24883132  1
  O  O237  1  0.99299224  0.12325041  0.74007755  1
  O  O238  1  0.99724984  0.63203337  0.24356271  1
  O  O239  1  0.99531163  0.62995869  0.74486065  1
  O  O240  1  0.37102913  0.25832136  0.00421803  1
  O  O241  1  0.37083756  0.25611201  0.50522384  1
  O  O242  1  0.36583929  0.75382044  0.00705565  1
  O  O243  1  0.36926673  0.75474313  0.50475708  1
  O  O244  1  0.87110528  0.25425222  0.00409644  1
  O  O245  1  0.87515636  0.25489168  0.50555967  1
  O  O246  1  0.87655670  0.75907889  0.00895902  1
  O  O247  1  0.86981856  0.75362162  0.50666157  1
  O  O248  1  0.13382940  0.24883474  0.49273952  1
  O  O249  1  0.13279031  0.24971120  0.99234306  1
  O  O250  1  0.12999537  0.74295919  0.49534056  1
  O  O251  1  0.12876611  0.74563758  0.99538914  1
  O  O252  1  0.62626621  0.24205492  0.48915253  1
  O  O253  1  0.62602405  0.24207518  0.99269676  1
  O  O254  1  0.63007431  0.74473803  0.49540551  1
  O  O255  1  0.62652061  0.74947892  0.99171242  1
  O  O256  1  0.49438761  0.24308296  0.12547339  1
  O  O257  1  0.49548532  0.24554157  0.62885370  1
  O  O258  1  0.49148414  0.75031770  0.13239345  1
  O  O259  1  0.49382096  0.74545860  0.63014594  1
  O  O260  1  0.99830145  0.24658708  0.12880356  1
  O  O261  1  0.99603227  0.23853534  0.62458918  1
  O  O262  1  0.99267074  0.74550816  0.13023495  1
  O  O263  1  0.99422306  0.74290270  0.63030783  1
  O  O264  1  0.00826041  0.25613647  0.37344451  1
  O  O265  1  0.00664773  0.25918624  0.87254934  1
  O  O266  1  0.00465125  0.75303401  0.37146217  1
  O  O267  1  0.00468838  0.75410617  0.87005867  1
  O  O268  1  0.50917652  0.25567051  0.37537358  1
  O  O269  1  0.50533763  0.25797911  0.86982695  1
  O  O270  1  0.50630467  0.75154390  0.36882657  1
  O  O271  1  0.50392791  0.75661418  0.86843246  1
  O  O272  1  0.24996732  0.13189820  0.49383270  1
  O  O273  1  0.24929826  0.13253171  0.99145441  1
  O  O274  1  0.24509242  0.62995234  0.49527601  1
  O  O275  1  0.24331641  0.63221590  0.99471881  1
  O  O276  1  0.74393398  0.12435155  0.49344661  1
  O  O277  1  0.74312265  0.12466342  0.99311406  1
  O  O278  1  0.74456640  0.63013711  0.49701797  1
  O  O279  1  0.75009549  0.62751896  0.98548487  1
  O  O280  1  0.26088583  0.36913592  -0.00133738  1
  O  O281  1  0.25687676  0.37097182  0.50539773  1
  O  O282  1  0.24954845  0.86942358  0.00651179  1
  O  O283  1  0.25485015  0.86873112  0.50519191  1
  O  O284  1  0.75161691  0.37320932  0.01110626  1
  O  O285  1  0.75850744  0.37163749  0.51048194  1
  O  O286  1  0.76250084  0.87417716  0.00093545  1
  O  O287  1  0.75485403  0.86830461  0.50531897  1
  O  O288  1  0.13091759  0.49567915  0.24550822  1
  O  O289  1  0.13119200  0.49541124  0.74382789  1
  O  O290  1  0.12993501  0.99947532  0.24082655  1
  O  O291  1  0.12678684  0.99029656  0.74774208  1
  O  O292  1  0.62784103  0.49887761  0.23934800  1
  O  O293  1  0.62856271  0.49420546  0.74489389  1
  O  O294  1  0.62895080  0.99501842  0.24490411  1
  O  O295  1  0.62509245  0.99366424  0.74174368  1
  O  O296  1  0.36892885  0.00589101  0.25497236  1
  O  O297  1  0.37461397  0.00831974  0.75612911  1
  O  O298  1  0.37027328  0.50575910  0.25566168  1
  O  O299  1  0.36778523  0.50843387  0.75156187  1
  O  O300  1  0.86834764  0.00749168  0.25112052  1
  O  O301  1  0.87435992  0.01071909  0.75034186  1
  O  O302  1  0.87267839  0.50315694  0.26092668  1
  O  O303  1  0.87419296  0.50598278  0.76090973  1
  O  O304  1  0.12072277  0.37026441  0.36961790  1
  O  O305  1  0.11886649  0.37172582  0.86943561  1
  O  O306  1  0.11797195  0.86666675  0.37486279  1
  O  O307  1  0.11903801  0.86865786  0.87027321  1
  O  O308  1  0.62086854  0.36574775  0.37761716  1
  O  O309  1  0.61518954  0.36977192  0.87617453  1
  O  O310  1  0.62292273  0.86748090  0.36904590  1
  O  O311  1  0.61939538  0.87110193  0.86869558  1
  O  O312  1  0.38036048  0.12977443  0.12937747  1
  O  O313  1  0.38129625  0.13168089  0.62924817  1
  O  O314  1  0.37287552  0.63354655  0.13298953  1
  O  O315  1  0.37983150  0.63194673  0.63017291  1
  O  O316  1  0.87459761  0.12543114  0.13665646  1
  O  O317  1  0.88309533  0.12710893  0.63048117  1
  O  O318  1  0.88003249  0.63424097  0.12329147  1
  O  O319  1  0.88016534  0.62873465  0.62994926  1
  O  O320  1  0.25779623  0.25191337  0.11698775  1
  O  O321  1  0.25642226  0.25650589  0.61967913  1
  O  O322  1  0.25278162  0.75643554  0.12094791  1
  O  O323  1  0.25523350  0.75431507  0.61884901  1
  O  O324  1  0.74942329  0.26223985  0.12432547  1
  O  O325  1  0.75760735  0.25682873  0.62244053  1
  O  O326  1  0.76142439  0.75068406  0.12321710  1
  O  O327  1  0.75512254  0.75423966  0.62017689  1
  O  O328  1  0.24665841  0.24540769  0.38034751  1
  O  O329  1  0.24613366  0.24563272  0.87895550  1
  O  O330  1  0.24458643  0.74451607  0.38072549  1
  O  O331  1  0.24309884  0.74582344  0.88053113  1
  O  O332  1  0.74057895  0.24381835  0.37662863  1
  O  O333  1  0.74348703  0.24280535  0.87527209  1
  O  O334  1  0.74458930  0.74382942  0.38229849  1
  O  O335  1  0.74385836  0.74087124  0.87573563  1
  O  O336  1  0.00018179  0.11226549  -0.00013722  1
  O  O337  1  -0.00032816  0.11555698  0.50782541  1
  O  O338  1  0.00699757  0.62432905  0.00665206  1
  O  O339  1  0.00587286  0.61832861  0.50642858  1
  O  O340  1  0.50583247  0.11992654  0.00478167  1
  O  O341  1  0.50501843  0.11942851  0.50558291  1
  O  O342  1  0.50016729  0.62208006  0.00350808  1
  O  O343  1  0.50435515  0.62065214  0.50538135  1
  O  O344  1  0.49465151  0.38074443  0.49549072  1
  O  O345  1  0.49087695  0.37410572  0.99050496  1
  O  O346  1  0.49237587  0.88160674  0.49911693  1
  O  O347  1  0.49786855  0.88315143  0.99228467  1
  O  O348  1  0.99671861  0.37949296  0.49508202  1
  O  O349  1  1.00032372  0.37838286  0.98527106  1
  O  O350  1  0.99493869  0.87998235  0.49663595  1
  O  O351  1  0.99202051  0.88206782  0.99578124  1
  O  O352  1  0.49507309  0.49590089  0.38132944  1
  O  O353  1  0.49735742  0.48832943  0.87622352  1
  O  O354  1  0.49227642  0.99954497  0.38160087  1
  O  O355  1  0.49528655  0.99627580  0.87939554  1
  O  O356  1  0.99586677  0.49378438  0.38205626  1
  O  O357  1  0.99255126  0.49213073  0.87431679  1
  O  O358  1  0.99951017  0.99322304  0.38473369  1
  O  O359  1  0.99831389  0.99311922  0.88515435  1
  O  O360  1  0.00802617  -0.00054826  0.11641083  1
  O  O361  1  0.00060239  0.00719358  0.61611262  1
  O  O362  1  0.00638606  0.50688534  0.12397056  1
  O  O363  1  0.00588065  0.50375316  0.62055830  1
  O  O364  1  0.50470260  0.00590387  0.11910152  1
  O  O365  1  0.50510117  0.00643524  0.61888999  1
  O  O366  1  0.51038514  0.50191834  0.12387609  1
  O  O367  1  0.49890829  0.50767079  0.61823311  1
  O  O368  1  0.24452195  0.38294609  0.24895422  1
  O  O369  1  0.24664274  0.38096978  0.74425321  1
  O  O370  1  0.24647981  0.88328142  0.24378110  1
  O  O371  1  0.24307332  0.87443746  0.74357143  1
  O  O372  1  0.74615194  0.37857036  0.23946582  1
  O  O373  1  0.75126983  0.37378911  0.73808960  1
  O  O374  1  0.74300936  0.88070165  0.24907511  1
  O  O375  1  0.74354389  0.87496099  0.74308977  1
  O  O376  1  0.25626501  0.11944730  0.25534204  1
  O  O377  1  0.25772548  0.12525515  0.75555438  1
  O  O378  1  0.25490313  0.62026434  0.25686321  1
  O  O379  1  0.25396888  0.62175353  0.75473498  1
  O  O380  1  0.75649710  0.11878070  0.25499561  1
  O  O381  1  0.76006778  0.12305259  0.75365814  1
  O  O382  1  0.75335831  0.62295318  0.26172301  1
  O  O383  1  0.75637734  0.62456431  0.76080922  1
  O  O384  1  0.36931880  0.12004019  0.36990080  1
  O  O385  1  0.37094831  0.12179512  0.86891876  1
  O  O386  1  0.36900279  0.61984439  0.37037013  1
  O  O387  1  0.36687000  0.62638941  0.86817135  1
  O  O388  1  0.86870523  0.12243471  0.36583159  1
  O  O389  1  0.87116608  0.12395113  0.86436441  1
  O  O390  1  0.86848994  0.61734237  0.37788709  1
  O  O391  1  0.86896950  0.61838332  0.87065895  1
  O  O392  1  0.12749536  0.38271878  0.13090141  1
  O  O393  1  0.13124438  0.38023941  0.62955461  1
  O  O394  1  0.12935706  0.88678504  0.12638193  1
  O  O395  1  0.13082392  0.87344070  0.63167747  1
  O  O396  1  0.63208027  0.38372155  0.12563313  1
  O  O397  1  0.63737552  0.37390274  0.62504771  1
  O  O398  1  0.62576693  0.88153510  0.13153932  1
  O  O399  1  0.62958248  0.87955062  0.62941454  1
  O  O400  1  0.12684759  0.25686538  0.25661185  1
  O  O401  1  0.12459427  0.25816557  0.75591986  1
  O  O402  1  0.11821633  0.75133391  0.25725917  1
  O  O403  1  0.11820838  0.75425987  0.75611477  1
  O  O404  1  0.62281500  0.24990878  0.26390972  1
  O  O405  1  0.61815579  0.25201119  0.75700687  1
  O  O406  1  0.61945428  0.75480425  0.25548789  1
  O  O407  1  0.61808215  0.75634155  0.75513442  1
  O  O408  1  0.37589017  0.24318432  0.24328880  1
  O  O409  1  0.38136727  0.24535656  0.74360174  1
  O  O410  1  0.37821309  0.74595334  0.24590161  1
  O  O411  1  0.37966238  0.74580943  0.74400711  1
  O  O412  1  0.87603462  0.23799677  0.24837643  1
  O  O413  1  0.87975433  0.23639289  0.74289229  1
  O  O414  1  0.88039769  0.74922607  0.24003219  1
  O  O415  1  0.88068558  0.74409738  0.74486923  1
  O  O416  1  0.38020427  0.49551444  0.49414423  1
  O  O417  1  0.37440819  0.48848089  0.99895446  1
  O  O418  1  0.37960406  0.99527945  0.49471397  1
  O  O419  1  0.38194076  1.00036122  0.99253057  1
  O  O420  1  0.88308781  0.49244344  0.49568327  1
  O  O421  1  0.87788595  0.49826417  0.98547230  1
  O  O422  1  0.88600281  0.99234833  0.49899414  1
  O  O423  1  0.88366188  0.99019754  1.00226249  1
  O  O424  1  0.11537944  0.00021008  0.00729788  1
  O  O425  1  0.11287779  0.00070503  0.50277477  1
  O  O426  1  0.12461869  0.50788499  0.00651687  1
  O  O427  1  0.12115208  0.50444496  0.50551612  1
  O  O428  1  0.61886625  0.00583448  0.00518880  1
  O  O429  1  0.61901277  0.00429877  0.50488747  1
  O  O430  1  0.62179057  0.50385015  0.01130275  1
  O  O431  1  0.61803117  0.50689900  0.50380783  1
  O  O432  1  0.37592534  0.36963781  0.11492058  1
  O  O433  1  0.37046298  0.37037840  0.61973674  1
  O  O434  1  0.36673601  0.86998676  0.12369691  1
  O  O435  1  0.36978032  0.86950672  0.61963041  1
  O  O436  1  0.86425270  0.37784426  0.12345292  1
  O  O437  1  0.87113501  0.36810073  0.62079460  1
  O  O438  1  0.87557858  0.86547062  0.11681418  1
  O  O439  1  0.86994867  0.86760891  0.61992687  1
  O  O440  1  0.13238364  0.13124468  0.37611356  1
  O  O441  1  0.13119174  0.13222627  0.87504272  1
  O  O442  1  0.13021440  0.62908097  0.38126292  1
  O  O443  1  0.12925119  0.63127519  0.87968768  1
  O  O444  1  0.62910539  0.13144690  0.37939831  1
  O  O445  1  0.62987293  0.13006772  0.87966380  1
  O  O446  1  0.63010945  0.63021005  0.38235012  1
  O  O447  1  0.63368252  0.63051590  0.87370989  1
