# generated using pymatgen
data_V3Zn3O8
_symmetry_space_group_name_H-M   'P 1'
_cell_length_a   17.08550044
_cell_length_b   17.08464983
_cell_length_c   17.08476875
_cell_angle_alpha   90.00422503
_cell_angle_beta   90.01182207
_cell_angle_gamma   89.99453498
_symmetry_Int_Tables_number   1
_chemical_formula_structural   V3Zn3O8
_chemical_formula_sum   'V96 Zn96 O256'
_cell_volume   4987.04030437
_cell_formula_units_Z   32
loop_
 _symmetry_equiv_pos_site_id
 _symmetry_equiv_pos_as_xyz
  1  'x, y, z'
loop_
 _atom_site_type_symbol
 _atom_site_label
 _atom_site_symmetry_multiplicity
 _atom_site_fract_x
 _atom_site_fract_y
 _atom_site_fract_z
 _atom_site_occupancy
  V  V0  1  0.50069618  0.24985929  0.24991600  1
  V  V1  1  0.62565044  0.49909548  0.12523864  1
  V  V2  1  0.37508105  0.37593124  -0.00113541  1
  V  V3  1  0.49818075  0.12593402  0.62561798  1
  V  V4  1  0.62641257  0.75011282  0.37484801  1
  V  V5  1  0.25170561  0.25100121  0.50045193  1
  V  V6  1  0.37487038  0.12552121  0.74864758  1
  V  V7  1  -0.00147232  0.87499224  0.87548103  1
  V  V8  1  0.87567101  0.87528149  0.50094209  1
  V  V9  1  0.37477875  0.25037502  0.12512494  1
  V  V10  1  0.75039351  -0.00016884  0.25048822  1
  V  V11  1  0.74930678  0.00043075  0.74949083  1
  V  V12  1  0.24889779  0.37499995  0.12556206  1
  V  V13  1  0.24894549  0.12552920  0.87608512  1
  V  V14  1  0.25193045  0.62584132  0.37433952  1
  V  V15  1  0.50060464  0.37480862  0.37376092  1
  V  V16  1  0.00075201  0.50067650  0.50052055  1
  V  V17  1  0.12405470  0.00010479  0.12546878  1
  V  V18  1  0.62463346  0.74962884  0.87519082  1
  V  V19  1  0.87561385  0.62502184  0.25034615  1
  V  V20  1  0.75047453  0.49963201  0.24979014  1
  V  V21  1  0.37477748  0.12455858  0.25060649  1
  V  V22  1  0.87421716  0.87462872  -0.00056247  1
  V  V23  1  0.00100272  0.62449485  0.62411956  1
  V  V24  1  0.12662584  0.37593829  0.74934762  1
  V  V25  1  0.74849207  0.74930846  -0.00062966  1
  V  V26  1  0.12387359  0.62501098  -0.00010373  1
  V  V27  1  0.37434696  0.87585905  0.00011767  1
  V  V28  1  0.49923037  0.00053277  -0.00117059  1
  V  V29  1  0.49859484  0.49871454  -0.00147782  1
  V  V30  1  0.62433581  0.12482078  0.50027875  1
  V  V31  1  0.12493961  0.12451282  0.00143126  1
  V  V32  1  0.87497721  0.00017484  0.37506940  1
  V  V33  1  0.25050286  0.74985427  0.50127123  1
  V  V34  1  0.62449579  0.00053784  0.62497805  1
  V  V35  1  0.37494060  -0.00015365  0.87525527  1
  V  V36  1  0.87577831  0.12493892  0.74947945  1
  V  V37  1  0.87460549  0.50023307  0.37419140  1
  V  V38  1  0.87451125  0.37490390  0.50012126  1
  V  V39  1  0.75020094  0.37448706  0.12485368  1
  V  V40  1  0.62501681  0.00037561  0.12405723  1
  V  V41  1  0.12460100  0.25144643  0.37497673  1
  V  V42  1  0.62440693  0.87487646  0.75020216  1
  V  V43  1  0.37560580  0.62537864  0.24973544  1
  V  V44  1  0.49809477  0.74923295  0.75025183  1
  V  V45  1  -0.00091716  0.75087836  0.75042775  1
  V  V46  1  0.62701716  0.62651830  0.49951797  1
  V  V47  1  0.74919064  0.12500151  0.87439705  1
  V  V48  1  0.12452332  0.37537930  0.25070967  1
  V  V49  1  0.24981083  -0.00070911  0.75008844  1
  V  V50  1  0.50073193  0.87543690  0.37484357  1
  V  V51  1  0.24898787  0.24917190  0.00098868  1
  V  V52  1  0.12535773  0.87466571  0.24960564  1
  V  V53  1  0.37485281  0.75097341  0.12411372  1
  V  V54  1  0.00074058  0.87489114  0.37586971  1
  V  V55  1  0.25037952  0.87475633  0.12473837  1
  V  V56  1  0.75078780  0.75161264  0.49961663  1
  V  V57  1  0.62469835  0.24969601  0.37443375  1
  V  V58  1  0.25048731  0.00053508  0.25051105  1
  V  V59  1  0.75154442  0.50113608  0.75049264  1
  V  V60  1  0.49983398  0.62578995  0.62481675  1
  V  V61  1  0.12536221  0.87596735  0.75090702  1
  V  V62  1  0.12274952  0.50015422  0.12452809  1
  V  V63  1  0.74940654  0.87477618  0.12444001  1
  V  V64  1  0.50002602  -0.00068058  0.49937848  1
  V  V65  1  0.87487211  0.24864395  0.12622682  1
  V  V66  1  0.00158344  0.12420976  0.62502987  1
  V  V67  1  0.25054364  0.12495242  0.37468541  1
  V  V68  1  0.75025595  0.37521989  0.62394506  1
  V  V69  1  0.87449347  0.62432127  0.75305937  1
  V  V70  1  0.62482221  0.87502470  0.24910182  1
  V  V71  1  0.12586485  0.74933275  0.37487154  1
  V  V72  1  0.49998604  0.12586325  0.12470265  1
  V  V73  1  0.87398432  -0.00123474  0.87548389  1
  V  V74  1  0.00074474  0.37528097  0.37559084  1
  V  V75  1  0.62410853  0.25200559  0.87343867  1
  V  V76  1  0.50085837  0.75066390  0.24917954  1
  V  V77  1  0.49955185  0.62495526  0.12408182  1
  V  V78  1  0.62460208  0.62510223  -0.00048071  1
  V  V79  1  0.62465474  0.12591685  -0.00076381  1
  V  V80  1  0.12601270  0.12504683  0.49989619  1
  V  V81  1  0.75025740  0.12393049  0.37545633  1
  V  V82  1  -0.00029224  0.74939046  0.25003959  1
  V  V83  1  0.75068464  0.87596104  0.62421037  1
  V  V84  1  0.75022955  0.25081022  0.00049418  1
  V  V85  1  0.62486773  0.37499401  0.75014212  1
  V  V86  1  0.37576638  0.37528610  0.50128320  1
  V  V87  1  0.87514147  0.74943272  0.12563719  1
  V  V88  1  0.62675692  0.50132760  0.62393461  1
  V  V89  1  0.00120333  0.24981364  0.75250626  1
  V  V90  1  -0.00077480  0.12400695  0.12655742  1
  V  V91  1  0.00199666  0.00072686  0.50012524  1
  V  V92  1  0.37521465  0.87424077  0.50104110  1
  V  V93  1  0.37641318  0.50084160  0.37349449  1
  V  V94  1  0.24964599  0.62178294  0.87331837  1
  V  V95  1  0.75022612  0.25020687  0.50040769  1
  Zn  Zn96  1  0.75021926  0.62367830  0.87601431  1
  Zn  Zn97  1  0.87404726  0.49563687  0.87909546  1
  Zn  Zn98  1  0.87885248  0.37753501  -0.00108150  1
  Zn  Zn99  1  0.75020284  0.62500726  0.37516373  1
  Zn  Zn100  1  0.12835171  0.49848851  0.62286481  1
  Zn  Zn101  1  0.25042258  0.37697231  0.62520571  1
  Zn  Zn102  1  -0.00218399  0.37749372  0.87674093  1
  Zn  Zn103  1  0.12796656  -0.00056115  0.62370686  1
  Zn  Zn104  1  0.25024494  0.87428682  0.62719612  1
  Zn  Zn105  1  0.49773152  0.25263100  0.74930151  1
  Zn  Zn106  1  0.37179094  0.62192204  0.75033942  1
  Zn  Zn107  1  0.37493189  0.25086807  0.62679728  1
  Zn  Zn108  1  0.49825568  0.37576074  0.87229035  1
  Zn  Zn109  1  0.49837816  0.87485233  0.87469854  1
  Zn  Zn110  1  0.50258918  0.50070709  0.49806090  1
  Zn  Zn111  1  0.37478401  0.49771679  0.87111971  1
  Zn  Zn112  1  -0.00328110  0.49870778  -0.00420997  1
  Zn  Zn113  1  0.87516934  0.25033380  0.62548257  1
  Zn  Zn114  1  0.12402731  0.25122691  0.87732958  1
  Zn  Zn115  1  0.24989179  0.50091141  0.25033352  1
  Zn  Zn116  1  -0.00181988  0.24879228  0.25217740  1
  Zn  Zn117  1  0.62530008  0.37465411  0.24996923  1
  Zn  Zn118  1  0.12648520  0.62352431  0.50049047  1
  Zn  Zn119  1  0.87603639  0.12362027  0.25139442  1
  Zn  Zn120  1  0.37521060  -0.00000794  0.37461045  1
  Zn  Zn121  1  0.12534617  0.74977532  0.87775962  1
  Zn  Zn122  1  0.25196643  0.49931223  0.74540723  1
  Zn  Zn123  1  0.87523055  0.75159915  0.62474844  1
  Zn  Zn124  1  0.37229407  0.74842534  0.62762916  1
  Zn  Zn125  1  -0.00093107  -0.00095943  0.00119490  1
  Zn  Zn126  1  -0.00007125  0.62468883  0.12415426  1
  Zn  Zn127  1  0.24994987  0.74972869  -0.00096070  1
  Zn  Zn128  1  0.18598900  0.18859501  0.18862446  1
  Zn  Zn129  1  0.18859777  0.18908182  0.68578916  1
  Zn  Zn130  1  0.18904028  0.68755972  0.18710517  1
  Zn  Zn131  1  0.18502759  0.68876080  0.68900871  1
  Zn  Zn132  1  0.68832161  0.18672977  0.18871171  1
  Zn  Zn133  1  0.68646754  0.18920495  0.68735633  1
  Zn  Zn134  1  0.68881728  0.68540459  0.18702848  1
  Zn  Zn135  1  0.68800770  0.68917652  0.68654942  1
  Zn  Zn136  1  0.31199818  0.31348144  0.31276863  1
  Zn  Zn137  1  0.31172068  0.31130155  0.81316900  1
  Zn  Zn138  1  0.31341535  0.81259427  0.31291410  1
  Zn  Zn139  1  0.31091857  0.80955789  0.81652940  1
  Zn  Zn140  1  0.81193426  0.31276091  0.31164545  1
  Zn  Zn141  1  0.81338734  0.31311478  0.81289104  1
  Zn  Zn142  1  0.81296835  0.81282195  0.31308750  1
  Zn  Zn143  1  0.81167024  0.81074563  0.81196034  1
  Zn  Zn144  1  0.18870975  0.43991441  0.43788257  1
  Zn  Zn145  1  0.18491166  0.43680346  0.93531645  1
  Zn  Zn146  1  0.18798654  0.93769200  0.43607446  1
  Zn  Zn147  1  0.18725907  0.93893680  0.93807575  1
  Zn  Zn148  1  0.68758254  0.43780380  0.43663172  1
  Zn  Zn149  1  0.69007719  0.43739024  0.93657632  1
  Zn  Zn150  1  0.68749074  0.93736356  0.43762953  1
  Zn  Zn151  1  0.68622846  0.93633001  0.93631239  1
  Zn  Zn152  1  0.31178830  0.06218408  0.06318427  1
  Zn  Zn153  1  0.31179907  0.06077503  0.56403433  1
  Zn  Zn154  1  0.31048841  0.56124580  0.06081193  1
  Zn  Zn155  1  0.31395600  0.56020773  0.56302192  1
  Zn  Zn156  1  0.81230386  0.06292295  0.06180344  1
  Zn  Zn157  1  0.81443148  0.06319430  0.56288671  1
  Zn  Zn158  1  0.81290864  0.56265951  0.06310561  1
  Zn  Zn159  1  0.81395290  0.56348339  0.56285699  1
  Zn  Zn160  1  0.43777447  0.43762515  0.18700967  1
  Zn  Zn161  1  0.43820777  0.44042282  0.68887720  1
  Zn  Zn162  1  0.43705706  0.93873148  0.18651830  1
  Zn  Zn163  1  0.43630106  0.93746956  0.68653779  1
  Zn  Zn164  1  0.93799731  0.43581464  0.18706404  1
  Zn  Zn165  1  0.93835877  0.43766973  0.68778024  1
  Zn  Zn166  1  0.93723194  0.93669308  0.18797594  1
  Zn  Zn167  1  0.93872433  0.93939771  0.68675067  1
  Zn  Zn168  1  0.06250483  0.06360470  0.31223631  1
  Zn  Zn169  1  0.06261154  0.06180564  0.81483446  1
  Zn  Zn170  1  0.06318228  0.56316010  0.31278532  1
  Zn  Zn171  1  0.06196894  0.55818594  0.81338175  1
  Zn  Zn172  1  0.56252044  0.06212418  0.31267549  1
  Zn  Zn173  1  0.56052367  0.06412312  0.81224190  1
  Zn  Zn174  1  0.56350938  0.56256135  0.31193629  1
  Zn  Zn175  1  0.56353442  0.56131737  0.81346074  1
  Zn  Zn176  1  0.43724728  0.18816058  0.43709827  1
  Zn  Zn177  1  0.43731503  0.18950923  0.93534358  1
  Zn  Zn178  1  0.43898288  0.68823141  0.43721620  1
  Zn  Zn179  1  0.43484230  0.68607693  0.93695756  1
  Zn  Zn180  1  0.93755580  0.18798822  0.43845652  1
  Zn  Zn181  1  0.93745564  0.18602151  0.93909274  1
  Zn  Zn182  1  0.93654570  0.68742733  0.43720458  1
  Zn  Zn183  1  0.93959493  0.68799233  0.93758052  1
  Zn  Zn184  1  0.06005996  0.31229324  0.06227021  1
  Zn  Zn185  1  0.06238221  0.31172782  0.56454364  1
  Zn  Zn186  1  0.06186031  0.81141065  0.06226081  1
  Zn  Zn187  1  0.06334024  0.81178588  0.56477800  1
  Zn  Zn188  1  0.56291160  0.31419033  0.06150032  1
  Zn  Zn189  1  0.56121245  0.31213522  0.56320201  1
  Zn  Zn190  1  0.56078970  0.81336448  0.06096596  1
  Zn  Zn191  1  0.56368954  0.81171124  0.56335969  1
  O  O192  1  0.11948571  0.11952406  0.12170948  1
  O  O193  1  0.11964447  0.12313828  0.61695166  1
  O  O194  1  0.12657133  0.61679001  0.11840100  1
  O  O195  1  0.11070368  0.62513430  0.62409221  1
  O  O196  1  0.61987685  0.11975797  0.11914168  1
  O  O197  1  0.61967058  0.11899045  0.61940630  1
  O  O198  1  0.61877542  0.62002527  0.11945647  1
  O  O199  1  0.61857392  0.62174099  0.61942726  1
  O  O200  1  0.38080698  0.38013228  0.38124953  1
  O  O201  1  0.37632473  0.37563408  0.88507674  1
  O  O202  1  0.38233098  0.87547534  0.38434798  1
  O  O203  1  0.37570767  0.88209078  0.88183054  1
  O  O204  1  0.88038010  0.38040615  0.38018411  1
  O  O205  1  0.87703865  0.37555819  0.87976118  1
  O  O206  1  0.88121056  0.88070324  0.38098512  1
  O  O207  1  0.87799861  0.87936560  0.87980961  1
  O  O208  1  0.25137615  0.00676982  0.36762767  1
  O  O209  1  0.25622851  0.00618564  0.87003240  1
  O  O210  1  0.25804875  0.50836937  0.37336111  1
  O  O211  1  0.24939577  0.51144171  0.87347292  1
  O  O212  1  0.75465156  0.00396502  0.37052024  1
  O  O213  1  0.75356158  0.00501505  0.86870120  1
  O  O214  1  0.75703832  0.50078664  0.36815247  1
  O  O215  1  0.75142954  0.50478961  0.86493866  1
  O  O216  1  0.23930898  0.49386357  0.12678042  1
  O  O217  1  0.24568029  0.49636800  0.62624523  1
  O  O218  1  0.24425197  0.99490627  0.13177544  1
  O  O219  1  0.24766931  0.99503597  0.63385331  1
  O  O220  1  0.74450572  0.49452677  0.13078501  1
  O  O221  1  0.74534503  0.49499754  0.62970886  1
  O  O222  1  0.74401929  0.99437869  0.12952982  1
  O  O223  1  0.74399903  0.99612510  0.62999625  1
  O  O224  1  0.00642201  0.37276449  0.25811869  1
  O  O225  1  0.00645214  0.36345583  0.74790115  1
  O  O226  1  0.00570652  0.86958734  0.25660341  1
  O  O227  1  0.00595360  0.87193921  0.75520383  1
  O  O228  1  0.50077723  0.36702986  0.25553279  1
  O  O229  1  0.50999744  0.37395109  0.75067924  1
  O  O230  1  0.50564331  0.87050296  0.25377218  1
  O  O231  1  0.50552968  0.86522032  0.74911651  1
  O  O232  1  0.49522222  0.12953825  0.24405952  1
  O  O233  1  0.49274762  0.12454078  0.74256094  1
  O  O234  1  0.49575166  0.63186241  0.24364610  1
  O  O235  1  0.50320937  0.63450075  0.74084099  1
  O  O236  1  0.99677226  0.12764340  0.24268985  1
  O  O237  1  0.99621083  0.13015926  0.74533077  1
  O  O238  1  0.99389525  0.63264131  0.24922253  1
  O  O239  1  0.99316341  0.63002909  0.74284905  1
  O  O240  1  0.36956420  0.25441936  0.00709133  1
  O  O241  1  0.36978672  0.26046164  0.49757335  1
  O  O242  1  0.37484384  0.75755707  0.00736342  1
  O  O243  1  0.36734853  0.75807537  0.49949278  1
  O  O244  1  0.86769231  0.24634151  0.01234024  1
  O  O245  1  0.86787821  0.25675040  0.50100878  1
  O  O246  1  0.86871373  0.75498636  0.00526763  1
  O  O247  1  0.86921491  0.75845081  0.50053558  1
  O  O248  1  0.13124715  0.24521301  0.49373597  1
  O  O249  1  0.13198969  0.24197489  1.00159978  1
  O  O250  1  0.13567178  0.75088439  0.49381931  1
  O  O251  1  0.12764799  0.73894882  1.00070041  1
  O  O252  1  0.63026528  0.24369275  0.49422136  1
  O  O253  1  0.63036895  0.24417006  0.99506587  1
  O  O254  1  0.63097805  0.74701872  0.49402172  1
  O  O255  1  0.62839869  0.74556700  0.99567023  1
  O  O256  1  0.49499641  0.24436350  0.12955556  1
  O  O257  1  0.49750208  0.24026152  0.62639839  1
  O  O258  1  0.49531449  0.74510766  0.13031214  1
  O  O259  1  0.50251993  0.74171423  0.63381727  1
  O  O260  1  0.98998330  0.24261738  0.12752588  1
  O  O261  1  0.99812900  0.24209338  0.63490039  1
  O  O262  1  0.99260193  0.75031520  0.13310186  1
  O  O263  1  0.99743047  0.74192758  0.63082355  1
  O  O264  1  0.00650815  0.25709559  0.37546380  1
  O  O265  1  0.00171388  0.24575332  0.86161513  1
  O  O266  1  0.00556609  0.75598548  0.37024095  1
  O  O267  1  0.00147572  0.75785749  0.86796171  1
  O  O268  1  0.50562080  0.25402665  0.36917900  1
  O  O269  1  0.50967549  0.25241689  0.87244708  1
  O  O270  1  0.50674140  0.75583313  0.36852148  1
  O  O271  1  0.50503625  0.75006835  0.86500527  1
  O  O272  1  0.24621335  0.12966387  0.49400523  1
  O  O273  1  0.24494214  0.12951206  0.99686935  1
  O  O274  1  0.25188460  0.63609959  0.49393831  1
  O  O275  1  0.24009632  0.62535786  0.99325124  1
  O  O276  1  0.74383594  0.12915342  0.49537573  1
  O  O277  1  0.74322552  0.12980482  0.99413299  1
  O  O278  1  0.74489777  0.63308741  0.49914621  1
  O  O279  1  0.74211062  0.63289866  1.00036196  1
  O  O280  1  0.25405388  0.36889280  0.00653317  1
  O  O281  1  0.26143985  0.36946044  0.49687193  1
  O  O282  1  0.25619110  0.87479817  0.00733627  1
  O  O283  1  0.25826406  0.86664671  0.49843151  1
  O  O284  1  0.74995134  0.36660350  0.00843650  1
  O  O285  1  0.75479828  0.36974273  0.50423942  1
  O  O286  1  0.75362640  0.86934313  0.00558011  1
  O  O287  1  0.75551782  0.87189202  0.50498710  1
  O  O288  1  0.12727505  0.49500869  0.24177658  1
  O  O289  1  0.12489057  0.48657977  0.74667631  1
  O  O290  1  0.13062344  0.99388975  0.24563208  1
  O  O291  1  0.13063230  0.99051452  0.75108003  1
  O  O292  1  0.63159037  0.49940768  0.24281937  1
  O  O293  1  0.63183844  0.49598015  0.74308922  1
  O  O294  1  0.62992916  0.99433253  0.24373297  1
  O  O295  1  0.62973424  0.99540859  0.74460534  1
  O  O296  1  0.36883987  0.00648519  0.25085291  1
  O  O297  1  0.36981470  0.00416085  0.75564806  1
  O  O298  1  0.37412126  0.50789471  0.25498936  1
  O  O299  1  0.37092330  0.50388534  0.75362930  1
  O  O300  1  0.86766218  -0.00124578  0.25756656  1
  O  O301  1  0.86844828  0.00489522  0.75553611  1
  O  O302  1  0.87070830  0.50482576  0.25439978  1
  O  O303  1  0.86885038  0.51065440  0.74749915  1
  O  O304  1  0.12031944  0.37109859  0.37078121  1
  O  O305  1  0.12225771  0.36998027  0.86322051  1
  O  O306  1  0.11996944  0.86960485  0.36866179  1
  O  O307  1  0.11854301  0.87544637  0.86650737  1
  O  O308  1  0.61888643  0.36752196  0.37360343  1
  O  O309  1  0.62615279  0.36863981  0.86757915  1
  O  O310  1  0.61997944  0.87029010  0.36876984  1
  O  O311  1  0.62138346  0.86863305  0.86814225  1
  O  O312  1  0.38037313  0.13062698  0.13047894  1
  O  O313  1  0.38155868  0.12395565  0.63067355  1
  O  O314  1  0.38027500  0.63055091  0.12948283  1
  O  O315  1  0.38894156  0.62782404  0.62536865  1
  O  O316  1  0.87938652  0.13164688  0.12706355  1
  O  O317  1  0.88248448  0.12555402  0.63175343  1
  O  O318  1  0.87689065  0.63286099  0.13250496  1
  O  O319  1  0.88475306  0.62729054  0.63372837  1
  O  O320  1  0.25556967  0.25484887  0.12072007  1
  O  O321  1  0.25432137  0.25309413  0.61392330  1
  O  O322  1  0.25780429  0.75778411  0.12489440  1
  O  O323  1  0.25108675  0.75091805  0.61367994  1
  O  O324  1  0.75611428  0.25275182  0.12074820  1
  O  O325  1  0.75076076  0.25643234  0.61755138  1
  O  O326  1  0.75460570  0.75619652  0.11995758  1
  O  O327  1  0.75100135  0.75905031  0.61784886  1
  O  O328  1  0.24449815  0.24441749  0.38050181  1
  O  O329  1  0.24862248  0.24159953  0.88436495  1
  O  O330  1  0.24609400  0.74610690  0.38223179  1
  O  O331  1  0.24570101  0.73834051  0.87923692  1
  O  O332  1  0.74467740  0.24421801  0.38054145  1
  O  O333  1  0.74399990  0.24282855  0.88011215  1
  O  O334  1  0.74330817  0.75047329  0.38111596  1
  O  O335  1  0.74242586  0.74879681  0.88193775  1
  O  O336  1  0.00623022  0.12162111  0.00869892  1
  O  O337  1  0.00624132  0.12011760  0.50412064  1
  O  O338  1  0.01233362  0.62471819  0.00302911  1
  O  O339  1  -0.00092458  0.62083387  0.50886968  1
  O  O340  1  0.50503072  0.12036876  0.00569760  1
  O  O341  1  0.50503147  0.11879661  0.50400407  1
  O  O342  1  0.50474260  0.62005115  0.00613835  1
  O  O343  1  0.50756193  0.62733637  0.50956839  1
  O  O344  1  0.49182326  0.37561811  0.49233593  1
  O  O345  1  0.49286021  0.38157120  1.00033619  1
  O  O346  1  0.49390317  0.87832214  0.49542972  1
  O  O347  1  0.49307483  0.88321583  0.99900980  1
  O  O348  1  0.99425296  0.37994621  0.49510168  1
  O  O349  1  0.99824068  0.37754978  0.99631200  1
  O  O350  1  0.99656010  0.88004759  0.49481897  1
  O  O351  1  0.99202324  0.87595031  0.99426625  1
  O  O352  1  0.49472517  0.49386412  0.37542986  1
  O  O353  1  0.49855398  0.49829628  0.88465232  1
  O  O354  1  0.49970836  0.99310265  0.38142971  1
  O  O355  1  0.49315072  0.99952085  0.88161415  1
  O  O356  1  0.99410614  0.49490439  0.38025483  1
  O  O357  1  0.99313939  0.49682608  0.87671279  1
  O  O358  1  0.99557829  0.99422615  0.38024492  1
  O  O359  1  0.99080123  0.99335853  0.87701977  1
  O  O360  1  0.00602854  0.00529871  0.12499313  1
  O  O361  1  0.00306176  0.00665890  0.61760769  1
  O  O362  1  0.01370597  0.50186446  0.12564791  1
  O  O363  1  -0.00027523  0.50988878  0.61861169  1
  O  O364  1  0.50577865  0.00637208  0.11942661  1
  O  O365  1  0.50589791  0.00463700  0.61889799  1
  O  O366  1  0.50543506  0.50610614  0.11960767  1
  O  O367  1  0.50833283  0.51204863  0.62330321  1
  O  O368  1  0.24333150  0.37679619  0.24361499  1
  O  O369  1  0.23853216  0.37218247  0.74786080  1
  O  O370  1  0.24498989  0.88011311  0.24538419  1
  O  O371  1  0.24111609  0.87878843  0.75194622  1
  O  O372  1  0.74805783  0.38171376  0.24327277  1
  O  O373  1  0.74491781  0.38071173  0.74253872  1
  O  O374  1  0.74390688  0.87981171  0.24413526  1
  O  O375  1  0.74446115  0.88106147  0.74442581  1
  O  O376  1  0.25506936  0.12029486  0.25463249  1
  O  O377  1  0.25452018  0.11921026  0.75558257  1
  O  O378  1  0.25870787  0.62626582  0.25692470  1
  O  O379  1  0.24802719  0.62517303  0.76048389  1
  O  O380  1  0.75022160  0.11665995  0.25772911  1
  O  O381  1  0.75452450  0.11949859  0.75451351  1
  O  O382  1  0.75733327  0.61826362  0.25165719  1
  O  O383  1  0.75937181  0.62110687  0.74773711  1
  O  O384  1  0.36883018  0.12350324  0.36824564  1
  O  O385  1  0.36888472  0.11897146  0.86980628  1
  O  O386  1  0.37280231  0.62131223  0.36911086  1
  O  O387  1  0.36234871  0.62277849  0.87521355  1
  O  O388  1  0.86830437  0.11769785  0.37555480  1
  O  O389  1  0.86812548  0.11877291  0.86986386  1
  O  O390  1  0.87356727  0.61817271  0.36844451  1
  O  O391  1  0.87362206  0.62690186  0.86123588  1
  O  O392  1  0.12946711  0.38181871  0.13026878  1
  O  O393  1  0.12611954  0.37492137  0.63553227  1
  O  O394  1  0.12995564  0.87991313  0.13088923  1
  O  O395  1  0.12602704  0.87691678  0.63860651  1
  O  O396  1  0.63138477  0.38124506  0.12736226  1
  O  O397  1  0.63067995  0.38139716  0.62841813  1
  O  O398  1  0.62963027  0.88052831  0.12953938  1
  O  O399  1  0.63045843  0.88181761  0.62990364  1
  O  O400  1  0.12348585  0.25730702  0.25759267  1
  O  O401  1  0.11613326  0.25507382  0.75060156  1
  O  O402  1  0.12050592  0.75570694  0.25513500  1
  O  O403  1  0.11779223  0.76105402  0.75275188  1
  O  O404  1  0.61830110  0.24931598  0.25670051  1
  O  O405  1  0.62518910  0.25709348  0.75617822  1
  O  O406  1  0.62027160  0.75575464  0.25356697  1
  O  O407  1  0.61767592  0.75530813  0.75454657  1
  O  O408  1  0.38032430  0.24428975  0.24439936  1
  O  O409  1  0.37665740  0.24095524  0.74761376  1
  O  O410  1  0.38246662  0.74623979  0.24467685  1
  O  O411  1  0.38685077  0.74786797  0.74868244  1
  O  O412  1  0.87378871  0.24644953  0.23848908  1
  O  O413  1  0.88358253  0.24240094  0.74817581  1
  O  O414  1  0.87972325  0.74618192  0.24571717  1
  O  O415  1  0.87992843  0.74204223  0.74698863  1
  O  O416  1  0.37895971  0.49118818  0.49201048  1
  O  O417  1  0.38140888  0.49253360  1.00112066  1
  O  O418  1  0.38052140  0.98949118  0.49799091  1
  O  O419  1  0.37996647  0.99614554  0.99568677  1
  O  O420  1  0.87995447  0.49457117  0.49391632  1
  O  O421  1  0.87753407  0.49806429  0.99939091  1
  O  O422  1  0.88146811  0.99484920  0.49410848  1
  O  O423  1  0.87342914  0.99215336  0.99333796  1
  O  O424  1  0.12381586  0.00600100  0.00874343  1
  O  O425  1  0.11942556  0.00638085  0.49940766  1
  O  O426  1  0.12514363  0.50813554  0.00990021  1
  O  O427  1  0.11599222  0.50364677  0.50075537  1
  O  O428  1  0.62019885  0.00581016  0.00472809  1
  O  O429  1  0.61979362  0.00478407  0.50537140  1
  O  O430  1  0.62004605  0.50550730  0.00622302  1
  O  O431  1  0.62465201  0.50767220  0.50566836  1
  O  O432  1  0.36923923  0.36899355  0.11997253  1
  O  O433  1  0.37732841  0.37513917  0.61038589  1
  O  O434  1  0.36998995  0.87097920  0.12030366  1
  O  O435  1  0.37421062  0.87102815  0.61249525  1
  O  O436  1  0.86906445  0.36326092  0.12529369  1
  O  O437  1  0.86790086  0.37408638  0.61763689  1
  O  O438  1  0.86827807  0.86960255  0.12004464  1
  O  O439  1  0.86869566  0.87623520  0.61840157  1
  O  O440  1  0.13070448  0.13104527  0.38027162  1
  O  O441  1  0.13179303  0.12471751  0.88351580  1
  O  O442  1  0.13249020  0.63262328  0.37657751  1
  O  O443  1  0.13097343  0.62485088  0.88419851  1
  O  O444  1  0.63007460  0.12926338  0.38143349  1
  O  O445  1  0.63038417  0.12999657  0.87992149  1
  O  O446  1  0.62610452  0.63296302  0.38089525  1
  O  O447  1  0.62606001  0.63241205  0.88235316  1
