# generated using pymatgen
data_V3Zn3O8
_symmetry_space_group_name_H-M   'P 1'
_cell_length_a   17.08082154
_cell_length_b   17.08148133
_cell_length_c   17.08032284
_cell_angle_alpha   90.01090313
_cell_angle_beta   90.01989220
_cell_angle_gamma   89.99226797
_symmetry_Int_Tables_number   1
_chemical_formula_structural   V3Zn3O8
_chemical_formula_sum   'V96 Zn96 O256'
_cell_volume   4983.45249694
_cell_formula_units_Z   32
loop_
 _symmetry_equiv_pos_site_id
 _symmetry_equiv_pos_as_xyz
  1  'x, y, z'
loop_
 _atom_site_type_symbol
 _atom_site_label
 _atom_site_symmetry_multiplicity
 _atom_site_fract_x
 _atom_site_fract_y
 _atom_site_fract_z
 _atom_site_occupancy
  V  V0  1  0.74994273  0.12424506  0.87543266  1
  V  V1  1  0.12403010  0.12596840  0.50040529  1
  V  V2  1  0.00031676  0.87588904  0.37561548  1
  V  V3  1  0.49945036  0.49980595  0.00141388  1
  V  V4  1  0.12552375  0.62481135  0.50077481  1
  V  V5  1  0.25124533  0.00163240  0.25013563  1
  V  V6  1  0.37348508  0.37507349  0.50030663  1
  V  V7  1  0.62633203  0.00070701  0.62595295  1
  V  V8  1  0.87517619  0.74832707  0.12576385  1
  V  V9  1  0.12422398  0.62388177  0.00057158  1
  V  V10  1  0.74999566  0.87459027  0.12516972  1
  V  V11  1  0.12538808  0.87531919  0.25015670  1
  V  V12  1  0.87450666  0.12408977  0.25123525  1
  V  V13  1  0.24783459  0.37548460  0.62577856  1
  V  V14  1  0.37446027  0.24938980  0.62614409  1
  V  V15  1  0.87555769  0.87399812  -0.00025613  1
  V  V16  1  0.87492960  0.24956758  0.12506905  1
  V  V17  1  0.87524154  0.37668911  0.50075198  1
  V  V18  1  0.87492350  0.62447129  0.75028226  1
  V  V19  1  0.87447687  0.25083165  0.62594029  1
  V  V20  1  0.37614097  0.62531672  0.74749726  1
  V  V21  1  0.62607436  0.74954108  0.37346440  1
  V  V22  1  -0.00129086  0.25027246  0.75068804  1
  V  V23  1  0.24900075  0.49886118  0.74979107  1
  V  V24  1  0.75065534  0.37463064  0.12603820  1
  V  V25  1  0.12407885  0.24878916  0.87569903  1
  V  V26  1  0.62578348  0.12522505  0.50078563  1
  V  V27  1  0.62482293  0.12490687  0.00046173  1
  V  V28  1  -0.00047283  0.37564228  0.37540949  1
  V  V29  1  0.24986669  0.87575094  0.12438925  1
  V  V30  1  0.74877581  0.37478283  0.62605147  1
  V  V31  1  0.37545687  0.12552720  0.25029117  1
  V  V32  1  0.37558812  0.24996071  0.12539905  1
  V  V33  1  0.49989076  0.37432121  0.37630290  1
  V  V34  1  0.62351953  0.75095402  0.87307072  1
  V  V35  1  0.62409052  0.50009610  0.12471787  1
  V  V36  1  0.75183097  0.12439395  0.37472937  1
  V  V37  1  0.49994380  0.24952749  0.25145416  1
  V  V38  1  0.37645466  0.75069781  0.12438794  1
  V  V39  1  0.37481882  0.50112392  0.37430786  1
  V  V40  1  0.24813863  0.12406260  0.87501601  1
  V  V41  1  0.24865876  -0.00158619  0.74881631  1
  V  V42  1  0.74991375  0.25010178  0.50058344  1
  V  V43  1  0.74969929  0.62380875  0.37474136  1
  V  V44  1  0.62466729  0.25073441  0.37593023  1
  V  V45  1  0.87569412  0.74914125  0.62595021  1
  V  V46  1  0.37398490  -0.00033376  0.87450918  1
  V  V47  1  0.00024264  0.74818169  0.74936941  1
  V  V48  1  0.62270509  0.37398980  0.75152230  1
  V  V49  1  -0.00048449  0.12468345  0.12505487  1
  V  V50  1  0.12521732  0.74860988  0.87486962  1
  V  V51  1  0.12470858  0.25152095  0.37429270  1
  V  V52  1  0.62738178  0.87489590  0.24927145  1
  V  V53  1  0.74983210  0.62528379  0.87528659  1
  V  V54  1  0.00038418  0.12483733  0.62486637  1
  V  V55  1  0.87795047  0.87526483  0.49923193  1
  V  V56  1  0.12423594  0.37552646  0.75035390  1
  V  V57  1  0.49983598  0.00133730  0.00001550  1
  V  V58  1  0.49989864  0.87449952  0.87357573  1
  V  V59  1  -0.00085396  0.87403922  0.87467391  1
  V  V60  1  0.12569688  0.50020864  0.12473221  1
  V  V61  1  0.24948824  0.75029214  -0.00041167  1
  V  V62  1  0.62301272  0.50069470  0.62439575  1
  V  V63  1  0.87577250  0.62476227  0.25044777  1
  V  V64  1  0.37646873  0.00166737  0.37511675  1
  V  V65  1  0.87558945  0.49962975  0.37614678  1
  V  V66  1  0.74998647  0.74960810  -0.00079980  1
  V  V67  1  0.12427559  0.12443463  -0.00078166  1
  V  V68  1  0.50059124  0.75007425  0.24724792  1
  V  V69  1  0.62540650  -0.00024242  0.12518917  1
  V  V70  1  0.24868854  0.25067412  0.49919900  1
  V  V71  1  0.49953787  0.37422112  0.87490678  1
  V  V72  1  0.75080237  0.87557274  0.62589124  1
  V  V73  1  0.50101209  0.00041829  0.49961008  1
  V  V74  1  0.37440665  0.12548227  0.74940687  1
  V  V75  1  0.25330780  0.75177272  0.49836459  1
  V  V76  1  0.87397706  0.49980463  0.87582847  1
  V  V77  1  0.00065098  0.74918254  0.24945556  1
  V  V78  1  0.62409565  0.62518629  0.49986732  1
  V  V79  1  0.25045071  0.37493872  0.12408785  1
  V  V80  1  0.37379353  0.49944009  0.87517746  1
  V  V81  1  0.12468076  -0.00005800  0.12529249  1
  V  V82  1  0.75008359  0.49847995  0.25012622  1
  V  V83  1  0.87381527  0.12429752  0.75110996  1
  V  V84  1  0.37441574  0.37427098  0.00040421  1
  V  V85  1  0.74831742  0.24905821  0.00047340  1
  V  V86  1  0.25021279  0.50129044  0.24988503  1
  V  V87  1  0.12800771  0.75119425  0.37432570  1
  V  V88  1  0.00088288  0.25044804  0.25012048  1
  V  V89  1  0.37682617  0.87602206  0.49940917  1
  V  V90  1  0.25179735  0.87478386  0.62392529  1
  V  V91  1  -0.00114957  -0.00190493  -0.00046930  1
  V  V92  1  0.87478207  0.37513021  -0.00028472  1
  V  V93  1  0.37416132  0.87562639  -0.00119096  1
  V  V94  1  0.12563363  0.87336529  0.74818575  1
  V  V95  1  -0.00164111  0.37498911  0.87618853  1
  Zn  Zn96  1  0.24951580  0.12681861  0.37488809  1
  Zn  Zn97  1  0.75125202  -0.00055597  0.25144929  1
  Zn  Zn98  1  0.49997886  0.12685737  0.62691856  1
  Zn  Zn99  1  -0.00045508  0.49929140  0.00263360  1
  Zn  Zn100  1  0.12227698  0.50110967  0.62526139  1
  Zn  Zn101  1  0.74948192  0.50031948  0.75166145  1
  Zn  Zn102  1  0.62274208  0.87585186  0.74855173  1
  Zn  Zn103  1  0.50088295  0.12563826  0.12529210  1
  Zn  Zn104  1  -0.00098153  0.62269329  0.62421029  1
  Zn  Zn105  1  0.25035394  0.24902402  0.00038212  1
  Zn  Zn106  1  0.75069712  0.00022027  0.75218255  1
  Zn  Zn107  1  0.37572692  0.62702133  0.24846094  1
  Zn  Zn108  1  -0.00033629  0.62237436  0.12604068  1
  Zn  Zn109  1  0.87361906  -0.00168887  0.87334917  1
  Zn  Zn110  1  0.87576577  -0.00004195  0.37402718  1
  Zn  Zn111  1  0.49867483  0.75133585  0.74763801  1
  Zn  Zn112  1  0.12397379  0.37564854  0.24916184  1
  Zn  Zn113  1  0.49831304  0.62437677  0.12279629  1
  Zn  Zn114  1  0.37982874  0.74917961  0.62277815  1
  Zn  Zn115  1  0.50119001  0.62813145  0.62535941  1
  Zn  Zn116  1  0.62522603  0.37426379  0.25201874  1
  Zn  Zn117  1  0.25286047  0.62786174  0.37413598  1
  Zn  Zn118  1  0.49716053  0.50112332  0.49976778  1
  Zn  Zn119  1  0.49831418  0.24797950  0.75075135  1
  Zn  Zn120  1  0.62226122  0.24893665  0.87592228  1
  Zn  Zn121  1  0.12384508  -0.00121754  0.62286516  1
  Zn  Zn122  1  0.00171559  0.00150255  0.49936796  1
  Zn  Zn123  1  0.24968218  0.62425326  0.87356935  1
  Zn  Zn124  1  0.75048147  0.74980126  0.49969538  1
  Zn  Zn125  1  0.50305221  0.87605770  0.37521529  1
  Zn  Zn126  1  0.00082582  0.50146967  0.50166406  1
  Zn  Zn127  1  0.62245137  0.62523702  -0.00087355  1
  Zn  Zn128  1  0.18815038  0.18792066  0.18745961  1
  Zn  Zn129  1  0.18714677  0.18782930  0.68747990  1
  Zn  Zn130  1  0.18901490  0.68684078  0.18639059  1
  Zn  Zn131  1  0.19135991  0.68789631  0.68427366  1
  Zn  Zn132  1  0.68672575  0.18649119  0.18870670  1
  Zn  Zn133  1  0.68778214  0.18815169  0.68925641  1
  Zn  Zn134  1  0.68808303  0.68525294  0.18674899  1
  Zn  Zn135  1  0.68994085  0.68826070  0.68868680  1
  Zn  Zn136  1  0.31181518  0.31356704  0.31193192  1
  Zn  Zn137  1  0.31085499  0.31134835  0.81303965  1
  Zn  Zn138  1  0.31473734  0.81667309  0.31318716  1
  Zn  Zn139  1  0.31180121  0.81024501  0.81174208  1
  Zn  Zn140  1  0.81292803  0.31173323  0.31304195  1
  Zn  Zn141  1  0.80963133  0.31168426  0.81339146  1
  Zn  Zn142  1  0.81198421  0.81082459  0.31287010  1
  Zn  Zn143  1  0.81218383  0.81190674  0.81157732  1
  Zn  Zn144  1  0.18661339  0.43787412  0.43704256  1
  Zn  Zn145  1  0.18841448  0.43721083  0.93710999  1
  Zn  Zn146  1  0.18913885  0.94036320  0.43757415  1
  Zn  Zn147  1  0.18563227  0.93701321  0.93615543  1
  Zn  Zn148  1  0.68748200  0.43741463  0.43839531  1
  Zn  Zn149  1  0.68776836  0.43762249  0.93821434  1
  Zn  Zn150  1  0.68963008  0.93790322  0.43692958  1
  Zn  Zn151  1  0.68747673  0.93803034  0.93780406  1
  Zn  Zn152  1  0.31255641  0.06436075  0.06293822  1
  Zn  Zn153  1  0.31098672  0.06302577  0.56282745  1
  Zn  Zn154  1  0.31264058  0.56433895  0.06316849  1
  Zn  Zn155  1  0.30870056  0.56287759  0.56333836  1
  Zn  Zn156  1  0.81191438  0.06062210  0.06270975  1
  Zn  Zn157  1  0.81452284  0.06170782  0.56173103  1
  Zn  Zn158  1  0.81116978  0.56293505  0.06155995  1
  Zn  Zn159  1  0.81021529  0.56169869  0.56340739  1
  Zn  Zn160  1  0.43808770  0.43450172  0.18911428  1
  Zn  Zn161  1  0.43739907  0.43833061  0.68699763  1
  Zn  Zn162  1  0.43920605  0.93762137  0.18720969  1
  Zn  Zn163  1  0.43825315  0.93765470  0.68681634  1
  Zn  Zn164  1  0.93872808  0.43810722  0.18751675  1
  Zn  Zn165  1  0.93876717  0.44101093  0.68755735  1
  Zn  Zn166  1  0.93653103  0.93733386  0.18837004  1
  Zn  Zn167  1  0.93915522  0.94012057  0.68768568  1
  Zn  Zn168  1  0.06156643  0.06278907  0.31436976  1
  Zn  Zn169  1  0.06110423  0.06018094  0.81133491  1
  Zn  Zn170  1  0.06336959  0.56349984  0.31516266  1
  Zn  Zn171  1  0.06070938  0.56120569  0.81394824  1
  Zn  Zn172  1  0.56346488  0.06315073  0.31238507  1
  Zn  Zn173  1  0.56198896  0.06270540  0.81207993  1
  Zn  Zn174  1  0.56136415  0.56296145  0.31060641  1
  Zn  Zn175  1  0.56099564  0.56220791  0.81361125  1
  Zn  Zn176  1  0.43757056  0.18621523  0.43920880  1
  Zn  Zn177  1  0.43782967  0.18793953  0.93686253  1
  Zn  Zn178  1  0.44006508  0.68847538  0.43479893  1
  Zn  Zn179  1  0.43788321  0.68499563  0.93639143  1
  Zn  Zn180  1  0.93792526  0.18928144  0.43775826  1
  Zn  Zn181  1  0.93635274  0.18647921  0.93750746  1
  Zn  Zn182  1  0.93951756  0.68908264  0.43726287  1
  Zn  Zn183  1  0.93828868  0.68672518  0.93716327  1
  Zn  Zn184  1  0.06331498  0.31253168  0.06229396  1
  Zn  Zn185  1  0.06117642  0.31300121  0.56256422  1
  Zn  Zn186  1  0.06179082  0.81078629  0.06341873  1
  Zn  Zn187  1  0.06365433  0.80961887  0.56322133  1
  Zn  Zn188  1  0.56194471  0.31298467  0.06344089  1
  Zn  Zn189  1  0.55867568  0.31255084  0.56271017  1
  Zn  Zn190  1  0.56296846  0.81459253  0.06047492  1
  Zn  Zn191  1  0.56116135  0.81146685  0.56223916  1
  O  O192  1  0.11895435  0.11940234  0.11978226  1
  O  O193  1  0.11804782  0.12689469  0.61754337  1
  O  O194  1  0.12542023  0.61954246  0.11569332  1
  O  O195  1  0.12457223  0.62624278  0.61237390  1
  O  O196  1  0.62413260  0.11817048  0.11835143  1
  O  O197  1  0.62700036  0.11590054  0.61942058  1
  O  O198  1  0.62474038  0.61114362  0.12226304  1
  O  O199  1  0.62762095  0.61709048  0.61770498  1
  O  O200  1  0.37881580  0.38291821  0.38033610  1
  O  O201  1  0.37926710  0.37997984  0.88019800  1
  O  O202  1  0.37901706  0.88437299  0.38140261  1
  O  O203  1  0.37844423  0.88032000  0.88018500  1
  O  O204  1  0.87929806  0.37978284  0.38123211  1
  O  O205  1  0.87824111  0.37903688  0.88042085  1
  O  O206  1  0.88043421  0.87246510  0.38443232  1
  O  O207  1  0.88124694  0.87408881  0.88178259  1
  O  O208  1  0.25764785  0.00239012  0.36684198  1
  O  O209  1  0.25439015  0.00373802  0.86927111  1
  O  O210  1  0.25906257  0.49874790  0.36569380  1
  O  O211  1  0.25689738  0.49987081  0.86775341  1
  O  O212  1  0.75370794  0.00887387  0.37318300  1
  O  O213  1  0.75229878  0.00849990  0.87366294  1
  O  O214  1  0.75518577  0.50395385  0.36952149  1
  O  O215  1  0.75593453  0.50680612  0.87487021  1
  O  O216  1  0.24649340  0.49555260  0.13251359  1
  O  O217  1  0.24634996  0.49172837  0.63191604  1
  O  O218  1  0.24416593  0.99491444  0.12970082  1
  O  O219  1  0.24781076  0.99289686  0.63177413  1
  O  O220  1  0.74329963  0.49424784  0.12987882  1
  O  O221  1  0.73793555  0.49332574  0.62657757  1
  O  O222  1  0.74320970  0.99209279  0.12594735  1
  O  O223  1  0.74212221  0.99225530  0.62353323  1
  O  O224  1  0.00007988  0.36780364  0.25676890  1
  O  O225  1  0.00384630  0.36877378  0.75646040  1
  O  O226  1  0.00615937  0.86907738  0.25471298  1
  O  O227  1  0.00514774  0.86814779  0.75471300  1
  O  O228  1  0.50150967  0.36707691  0.25894056  1
  O  O229  1  0.50831189  0.37601948  0.75587010  1
  O  O230  1  0.50793900  0.86468823  0.24943846  1
  O  O231  1  0.50166030  0.87313003  0.75893580  1
  O  O232  1  0.49356532  0.13224465  0.24914462  1
  O  O233  1  0.49047854  0.12641256  0.74798912  1
  O  O234  1  0.49964595  0.63865466  0.24640822  1
  O  O235  1  0.48761764  0.62439430  0.74965538  1
  O  O236  1  0.99523423  0.13069519  0.24386743  1
  O  O237  1  0.99438930  0.13154735  0.74586221  1
  O  O238  1  0.99374366  0.63175658  0.25034279  1
  O  O239  1  0.99286705  0.63156528  0.75056303  1
  O  O240  1  0.37382497  0.25643479  0.00653255  1
  O  O241  1  0.36817690  0.25533785  0.50495768  1
  O  O242  1  0.36960370  0.75639469  0.00356588  1
  O  O243  1  0.37086691  0.75706156  0.49750035  1
  O  O244  1  0.86891668  0.25459083  0.00634390  1
  O  O245  1  0.86912289  0.25675775  0.50668234  1
  O  O246  1  0.87029824  0.75456955  0.00560105  1
  O  O247  1  0.87380166  0.75941796  0.50582652  1
  O  O248  1  0.12931427  0.24540143  0.49434344  1
  O  O249  1  0.12526194  0.24178963  0.99359933  1
  O  O250  1  0.13272610  0.74469421  0.49359879  1
  O  O251  1  0.12970115  0.74320000  0.99611574  1
  O  O252  1  0.63039957  0.24537503  0.49640151  1
  O  O253  1  0.63127640  0.24387923  1.00083100  1
  O  O254  1  0.62671371  0.74041911  0.49329830  1
  O  O255  1  0.63063195  0.74991001  0.98940376  1
  O  O256  1  0.49347367  0.25001469  0.13307811  1
  O  O257  1  0.48995069  0.24812570  0.62803630  1
  O  O258  1  0.49596427  0.75120908  0.13187057  1
  O  O259  1  0.49795409  0.74581448  0.62995223  1
  O  O260  1  0.99452373  0.24412200  0.12956862  1
  O  O261  1  0.99300572  0.24608066  0.63191143  1
  O  O262  1  0.99332166  0.74812725  0.13246735  1
  O  O263  1  0.99305353  0.74765209  0.63247256  1
  O  O264  1  0.00460077  0.25629704  0.36910489  1
  O  O265  1  0.00403693  0.25480469  0.86980732  1
  O  O266  1  0.00741302  0.75687457  0.36820789  1
  O  O267  1  0.00589851  0.75509855  0.86943049  1
  O  O268  1  0.50500746  0.25491833  0.37179973  1
  O  O269  1  0.50259959  0.25895956  0.87223250  1
  O  O270  1  0.50760480  0.75204000  0.36333168  1
  O  O271  1  0.50881655  0.75590624  0.87553458  1
  O  O272  1  0.24176928  0.13325719  0.49869470  1
  O  O273  1  0.24183029  0.12442192  0.99297104  1
  O  O274  1  0.24247043  0.63267690  0.49714289  1
  O  O275  1  0.23985502  0.63133935  0.99914276  1
  O  O276  1  0.74617872  0.13156211  0.49560125  1
  O  O277  1  0.74518914  0.12971987  0.99518603  1
  O  O278  1  0.73905993  0.62543612  0.49384052  1
  O  O279  1  0.74803032  0.63286047  0.99293662  1
  O  O280  1  0.25702671  0.37354986  0.00644640  1
  O  O281  1  0.25383686  0.36973116  0.50561417  1
  O  O282  1  0.25423726  0.87073916  0.00509692  1
  O  O283  1  0.25663386  0.87129853  0.50403336  1
  O  O284  1  0.75541116  0.36881957  0.00581534  1
  O  O285  1  0.75498423  0.36921464  0.50617558  1
  O  O286  1  0.75588792  0.86860997  0.00527201  1
  O  O287  1  0.75984205  0.87354542  0.50918288  1
  O  O288  1  0.13507234  0.50044830  0.24513515  1
  O  O289  1  0.13089307  0.49302614  0.75086758  1
  O  O290  1  0.13010902  0.99539731  0.24427602  1
  O  O291  1  0.13134818  0.99132433  0.74911822  1
  O  O292  1  0.63090848  0.49784660  0.24175799  1
  O  O293  1  0.62540063  0.49151544  0.74173920  1
  O  O294  1  0.62640504  0.99299162  0.24339715  1
  O  O295  1  0.62750045  0.99859903  0.73751043  1
  O  O296  1  0.37113000  0.00485598  0.25410973  1
  O  O297  1  0.36828489  0.00474983  0.75576339  1
  O  O298  1  0.36729919  0.49972828  0.25751602  1
  O  O299  1  0.36920448  0.50543134  0.75492645  1
  O  O300  1  0.87276390  0.00840124  0.25145637  1
  O  O301  1  0.87266118  0.00892070  0.75184637  1
  O  O302  1  0.86939880  0.50501207  0.25567751  1
  O  O303  1  0.87204443  0.50594789  0.75748379  1
  O  O304  1  0.11783142  0.36927022  0.37316547  1
  O  O305  1  0.11888320  0.36882420  0.87072640  1
  O  O306  1  0.12115111  0.87068613  0.36902338  1
  O  O307  1  0.11922212  0.86776039  0.86902095  1
  O  O308  1  0.61880065  0.36846275  0.37593137  1
  O  O309  1  0.61960129  0.37642396  0.86576299  1
  O  O310  1  0.62637185  0.86766408  0.36830054  1
  O  O311  1  0.61976074  0.86678500  0.87421411  1
  O  O312  1  0.37726437  0.13145889  0.13158830  1
  O  O313  1  0.37396660  0.13139645  0.63193954  1
  O  O314  1  0.37740464  0.63502634  0.12756103  1
  O  O315  1  0.37760174  0.62292493  0.63476711  1
  O  O316  1  0.88054356  0.13064518  0.12932724  1
  O  O317  1  0.87938309  0.13211064  0.62982705  1
  O  O318  1  0.87549763  0.63043398  0.13222470  1
  O  O319  1  0.87296260  0.63173748  0.63122652  1
  O  O320  1  0.25680460  0.25684882  0.12401136  1
  O  O321  1  0.25466820  0.25636021  0.61959172  1
  O  O322  1  0.25532608  0.75710191  0.11950029  1
  O  O323  1  0.25547637  0.75790273  0.61614783  1
  O  O324  1  0.75545600  0.25491261  0.12067149  1
  O  O325  1  0.75496608  0.25564691  0.61982247  1
  O  O326  1  0.75504588  0.75428666  0.11919145  1
  O  O327  1  0.75575678  0.76042548  0.62329601  1
  O  O328  1  0.24311081  0.25094996  0.38108914  1
  O  O329  1  0.24190169  0.24208895  0.87664380  1
  O  O330  1  0.24542952  0.75109623  0.37944018  1
  O  O331  1  0.24236849  0.74859254  0.88260135  1
  O  O332  1  0.74469194  0.24550612  0.38186650  1
  O  O333  1  0.74661100  0.24258498  0.88306350  1
  O  O334  1  0.74336062  0.74095723  0.37549899  1
  O  O335  1  0.74246846  0.74657723  0.87977697  1
  O  O336  1  0.00441025  0.11872935  0.00557248  1
  O  O337  1  0.00664386  0.12729671  0.50697201  1
  O  O338  1  0.01292576  0.62438484  0.00233790  1
  O  O339  1  0.01269735  0.62622647  0.49995638  1
  O  O340  1  0.50629223  0.11818702  0.00048477  1
  O  O341  1  0.50826526  0.11869541  0.50329804  1
  O  O342  1  0.50188197  0.61541224  0.00249850  1
  O  O343  1  0.51360428  0.62247607  0.49968582  1
  O  O344  1  0.49125333  0.37752768  0.49366592  1
  O  O345  1  0.49398161  0.38043898  0.99491852  1
  O  O346  1  0.49517149  0.88265799  0.49768110  1
  O  O347  1  0.49325144  0.88146504  0.99342632  1
  O  O348  1  0.99216497  0.37552062  0.49337121  1
  O  O349  1  0.99231198  0.37441445  0.99371441  1
  O  O350  1  0.99215984  0.87311527  0.49484138  1
  O  O351  1  0.99540051  0.87816306  0.99504109  1
  O  O352  1  0.48984066  0.49412592  0.37395423  1
  O  O353  1  0.49379453  0.49339748  0.88173890  1
  O  O354  1  0.49518488  0.99902765  0.38167696  1
  O  O355  1  0.49353292  0.99455933  0.88053292  1
  O  O356  1  0.99275880  0.49376783  0.37672313  1
  O  O357  1  0.99214040  0.49210841  0.87829625  1
  O  O358  1  0.99697493  0.99088478  0.37774358  1
  O  O359  1  0.99892533  0.99164426  0.88217215  1
  O  O360  1  0.00576797  0.00457460  0.11988130  1
  O  O361  1  0.00351412  0.00940034  0.62226785  1
  O  O362  1  0.00893643  0.50241002  0.12285255  1
  O  O363  1  0.00432359  0.50464541  0.62001736  1
  O  O364  1  0.50694014  0.00044099  0.11717457  1
  O  O365  1  0.51191689  0.00031084  0.61880573  1
  O  O366  1  0.50868282  0.49832045  0.12133058  1
  O  O367  1  0.51278238  0.50168525  0.62178746  1
  O  O368  1  0.24890506  0.38634981  0.24328092  1
  O  O369  1  0.24369812  0.37922712  0.74533177  1
  O  O370  1  0.24478132  0.88158135  0.24327745  1
  O  O371  1  0.24546043  0.87894254  0.74449722  1
  O  O372  1  0.74953206  0.38061306  0.24402564  1
  O  O373  1  0.73927934  0.37616114  0.74478096  1
  O  O374  1  0.74478589  0.87425367  0.24247624  1
  O  O375  1  0.75002882  0.87745863  0.73630735  1
  O  O376  1  0.25672634  0.11857193  0.25089811  1
  O  O377  1  0.25338911  0.11839911  0.75605644  1
  O  O378  1  0.25285909  0.61327786  0.25127051  1
  O  O379  1  0.25856949  0.61794077  0.75050238  1
  O  O380  1  0.75721631  0.12556166  0.25710142  1
  O  O381  1  0.75606082  0.12559437  0.75774732  1
  O  O382  1  0.75578561  0.61842473  0.25548074  1
  O  O383  1  0.75715129  0.62394955  0.75802336  1
  O  O384  1  0.37305268  0.11947748  0.36855171  1
  O  O385  1  0.36795547  0.11866789  0.87048513  1
  O  O386  1  0.37441896  0.61306808  0.37223471  1
  O  O387  1  0.37201677  0.61736850  0.86651004  1
  O  O388  1  0.86963650  0.12595443  0.36944872  1
  O  O389  1  0.86760444  0.12389190  0.86956512  1
  O  O390  1  0.86942143  0.62019131  0.37053500  1
  O  O391  1  0.86964179  0.62032932  0.87069112  1
  O  O392  1  0.13200168  0.38215789  0.12570962  1
  O  O393  1  0.13047290  0.37428174  0.63277448  1
  O  O394  1  0.13017996  0.88026223  0.13015361  1
  O  O395  1  0.13281295  0.87436551  0.63094535  1
  O  O396  1  0.63178329  0.38478264  0.12699872  1
  O  O397  1  0.62806466  0.38204260  0.63077876  1
  O  O398  1  0.63141816  0.87984085  0.12888885  1
  O  O399  1  0.63493065  0.88303312  0.62272126  1
  O  O400  1  0.11837484  0.25141830  0.25540371  1
  O  O401  1  0.11826913  0.25515780  0.75651202  1
  O  O402  1  0.12189787  0.75608721  0.25370970  1
  O  O403  1  0.12101141  0.75356178  0.75509072  1
  O  O404  1  0.61882733  0.25106413  0.25809213  1
  O  O405  1  0.62238583  0.26334676  0.75006740  1
  O  O406  1  0.61890870  0.75410044  0.25224343  1
  O  O407  1  0.62484897  0.75208127  0.76287761  1
  O  O408  1  0.37991612  0.24546941  0.24579592  1
  O  O409  1  0.37325781  0.24337075  0.74374635  1
  O  O410  1  0.38488660  0.75304928  0.24405294  1
  O  O411  1  0.37436403  0.73694079  0.74921484  1
  O  O412  1  0.88094487  0.24424134  0.24389355  1
  O  O413  1  0.87940529  0.24563609  0.74494409  1
  O  O414  1  0.88026292  0.74391012  0.24538983  1
  O  O415  1  0.88062767  0.74435975  0.74569044  1
  O  O416  1  0.37341561  0.49456294  0.48994757  1
  O  O417  1  0.37922028  0.49407416  0.99595599  1
  O  O418  1  0.38062777  0.99682760  0.49496016  1
  O  O419  1  0.37877536  0.99505476  0.99401268  1
  O  O420  1  0.87378160  0.49405045  0.49330662  1
  O  O421  1  0.87587110  0.49295672  0.99461401  1
  O  O422  1  0.87824364  0.98638434  0.49906312  1
  O  O423  1  0.88218126  0.99174990  1.00005250  1
  O  O424  1  0.11877146  0.00400835  0.00594059  1
  O  O425  1  0.12350124  0.01077582  0.50138154  1
  O  O426  1  0.12610951  0.50900612  0.00538970  1
  O  O427  1  0.12585004  0.51263151  0.49970832  1
  O  O428  1  0.61922699  0.00466169  0.00543900  1
  O  O429  1  0.62215401  0.00503583  0.50755535  1
  O  O430  1  0.61918863  0.49902596  0.00961824  1
  O  O431  1  0.62448269  0.50792745  0.50763510  1
  O  O432  1  0.36986578  0.37000170  0.11973151  1
  O  O433  1  0.36793723  0.37082701  0.61992806  1
  O  O434  1  0.36893639  0.87143390  0.11814356  1
  O  O435  1  0.36925578  0.87516636  0.61698325  1
  O  O436  1  0.86995361  0.36922963  0.11997360  1
  O  O437  1  0.86862353  0.37021965  0.62167441  1
  O  O438  1  0.86997487  0.86780879  0.12002251  1
  O  O439  1  0.86978162  0.87049744  0.61845796  1
  O  O440  1  0.12535940  0.13343660  0.38226791  1
  O  O441  1  0.12814486  0.12882997  0.87962063  1
  O  O442  1  0.12878921  0.63295224  0.38327933  1
  O  O443  1  0.12622865  0.63000667  0.88420078  1
  O  O444  1  0.63140688  0.13129570  0.38158346  1
  O  O445  1  0.63178698  0.12602643  0.88180899  1
  O  O446  1  0.62986332  0.62781283  0.38138220  1
  O  O447  1  0.63033843  0.63383037  0.87576050  1
