# generated using pymatgen
data_V3Zn3O8
_symmetry_space_group_name_H-M   'P 1'
_cell_length_a   17.08980217
_cell_length_b   17.09041921
_cell_length_c   17.08941792
_cell_angle_alpha   90.00461230
_cell_angle_beta   89.99319374
_cell_angle_gamma   89.99547474
_symmetry_Int_Tables_number   1
_chemical_formula_structural   V3Zn3O8
_chemical_formula_sum   'V96 Zn96 O256'
_cell_volume   4991.33841198
_cell_formula_units_Z   32
loop_
 _symmetry_equiv_pos_site_id
 _symmetry_equiv_pos_as_xyz
  1  'x, y, z'
loop_
 _atom_site_type_symbol
 _atom_site_label
 _atom_site_symmetry_multiplicity
 _atom_site_fract_x
 _atom_site_fract_y
 _atom_site_fract_z
 _atom_site_occupancy
  V  V0  1  0.49988953  0.87535997  0.37422434  1
  V  V1  1  0.00076665  0.87504533  0.37568788  1
  V  V2  1  0.12573496  0.12520110  0.50078264  1
  V  V3  1  0.24930260  0.00006151  0.24967030  1
  V  V4  1  -0.00040462  0.62532698  0.62532362  1
  V  V5  1  0.37280570  0.00002311  0.87370795  1
  V  V6  1  0.50014956  0.49911776  0.00000832  1
  V  V7  1  -0.00015023  0.74920836  0.75075955  1
  V  V8  1  0.37437683  0.87528444  -0.00024423  1
  V  V9  1  0.12650270  -0.00150364  0.62659934  1
  V  V10  1  0.37587453  0.49928777  0.87521835  1
  V  V11  1  0.37451644  0.50036783  0.37503677  1
  V  V12  1  0.37461918  0.87449975  0.50079547  1
  V  V13  1  0.87494596  0.49938317  0.87557042  1
  V  V14  1  0.87610836  0.37489953  -0.00059547  1
  V  V15  1  0.12490083  0.24945752  0.87478721  1
  V  V16  1  0.12462531  0.25045637  0.37506221  1
  V  V17  1  0.12618778  0.87476061  0.74960204  1
  V  V18  1  0.12455794  -0.00050517  0.12480697  1
  V  V19  1  0.12427398  0.75038033  0.37563264  1
  V  V20  1  0.37473990  0.74932078  0.12528855  1
  V  V21  1  0.50055488  0.50071560  0.49933276  1
  V  V22  1  0.24969780  0.62438707  0.37500042  1
  V  V23  1  0.25128824  0.24973593  0.00020742  1
  V  V24  1  0.00002843  0.00077361  0.50109493  1
  V  V25  1  0.00077749  0.25037610  0.25066512  1
  V  V26  1  0.25024829  0.62372465  0.87535976  1
  V  V27  1  0.49994063  0.74960122  0.74868587  1
  V  V28  1  0.74971450  -0.00012142  0.75057573  1
  V  V29  1  0.74887527  0.87593280  0.62593381  1
  V  V30  1  0.24968568  0.37440284  0.12441229  1
  V  V31  1  0.00067601  0.12412445  0.12536392  1
  V  V32  1  0.62558249  0.00088946  0.62541087  1
  V  V33  1  0.24989557  0.50012636  0.25090792  1
  V  V34  1  0.12466388  0.12436962  0.00002465  1
  V  V35  1  0.12562457  0.49948811  0.62595221  1
  V  V36  1  0.87449094  0.00090337  0.87467037  1
  V  V37  1  0.24963644  0.12465706  0.37444898  1
  V  V38  1  0.62460360  0.25111977  0.37438421  1
  V  V39  1  0.74967265  0.49940979  0.74905320  1
  V  V40  1  0.87375281  0.75055007  0.62606730  1
  V  V41  1  0.50092578  0.00014690  0.49963067  1
  V  V42  1  0.12458731  0.37440724  0.25065567  1
  V  V43  1  0.74893932  -0.00000618  0.24779174  1
  V  V44  1  0.12457895  0.50056698  0.12548463  1
  V  V45  1  0.87608733  0.37625420  0.49958428  1
  V  V46  1  0.75091966  0.50214070  0.25088726  1
  V  V47  1  -0.00083608  0.50064656  0.49944857  1
  V  V48  1  0.62472523  0.12508122  0.50022765  1
  V  V49  1  0.87497477  0.87627967  0.50161424  1
  V  V50  1  0.24836569  0.87450250  0.12614416  1
  V  V51  1  0.87557034  0.25027291  0.12494325  1
  V  V52  1  0.62437631  0.75030570  0.87456156  1
  V  V53  1  0.12508240  0.62440540  0.00080977  1
  V  V54  1  0.62453780  0.12420942  0.00014024  1
  V  V55  1  0.87338514  0.87414474  0.00105088  1
  V  V56  1  0.12490574  0.62512758  0.50083366  1
  V  V57  1  0.75059994  0.25020790  0.49945009  1
  V  V58  1  0.87462970  0.50143648  0.37523898  1
  V  V59  1  0.25103397  0.75059460  0.50065746  1
  V  V60  1  -0.00016159  0.37507132  0.87532563  1
  V  V61  1  0.62430178  0.50121829  0.62355284  1
  V  V62  1  0.74817145  0.75065015  0.49946154  1
  V  V63  1  -0.00111520  0.62527803  0.12667646  1
  V  V64  1  0.50014826  0.37397388  0.87450094  1
  V  V65  1  0.00048447  0.12595318  0.62556734  1
  V  V66  1  0.75038336  0.37531438  0.62451780  1
  V  V67  1  0.37681062  0.24942981  0.62491272  1
  V  V68  1  0.62604404  0.75039451  0.37516786  1
  V  V69  1  0.37551117  0.62408077  0.74881346  1
  V  V70  1  0.87612514  0.24988517  0.62491691  1
  V  V71  1  0.25093147  0.25006132  0.50024157  1
  V  V72  1  0.49987414  0.75060661  0.24855315  1
  V  V73  1  0.37531037  0.12449493  0.74898825  1
  V  V74  1  0.49961609  0.00061107  0.00087815  1
  V  V75  1  0.49901962  0.62495664  0.12515562  1
  V  V76  1  0.75033892  0.12610834  0.37403707  1
  V  V77  1  0.62456318  0.62456919  -0.00052407  1
  V  V78  1  0.49988431  0.25002956  0.24929244  1
  V  V79  1  0.50004431  0.37515292  0.37360636  1
  V  V80  1  0.12483738  0.74917472  0.87536674  1
  V  V81  1  0.87444165  0.12571537  0.24991592  1
  V  V82  1  0.74940259  0.62421129  0.87531958  1
  V  V83  1  0.37495368  0.37446104  0.50018807  1
  V  V84  1  0.62514551  0.49991518  0.12532198  1
  V  V85  1  0.87366418  0.74990257  0.12629858  1
  V  V86  1  -0.00027737  0.87394176  0.87527100  1
  V  V87  1  0.00056549  0.24958403  0.74927545  1
  V  V88  1  0.24993363  0.74949496  0.00112742  1
  V  V89  1  0.62563493  0.25069291  0.87336809  1
  V  V90  1  0.37532268  0.12609357  0.24830340  1
  V  V91  1  0.75043721  0.24961465  -0.00003297  1
  V  V92  1  0.62482788  0.87663139  0.24809419  1
  V  V93  1  0.75051998  0.37578411  0.12523808  1
  V  V94  1  0.87473160  0.62498971  0.75106108  1
  V  V95  1  0.12646417  0.37563277  0.74934026  1
  Zn  Zn96  1  0.00020248  0.75179948  0.25142180  1
  Zn  Zn97  1  0.37771687  0.25192692  0.12305742  1
  Zn  Zn98  1  0.00031963  -0.00014945  0.00086304  1
  Zn  Zn99  1  0.49972025  0.62559282  0.62139031  1
  Zn  Zn100  1  0.62540319  0.37307717  0.74851454  1
  Zn  Zn101  1  0.25080234  0.49832857  0.74926873  1
  Zn  Zn102  1  0.62406501  0.37470962  0.24911941  1
  Zn  Zn103  1  0.49988921  0.87447265  0.87430928  1
  Zn  Zn104  1  0.37475358  0.62520378  0.25035217  1
  Zn  Zn105  1  0.87546712  0.00123230  0.37556614  1
  Zn  Zn106  1  0.24807019  0.12443852  0.87391370  1
  Zn  Zn107  1  0.25101386  0.37687680  0.62650317  1
  Zn  Zn108  1  0.25121868  0.87363386  0.62695803  1
  Zn  Zn109  1  0.75139680  0.12538199  0.87358613  1
  Zn  Zn110  1  0.00011733  0.49905302  0.00024203  1
  Zn  Zn111  1  0.87523928  0.62814581  0.25340470  1
  Zn  Zn112  1  0.50160488  0.24940761  0.74820114  1
  Zn  Zn113  1  0.62281145  0.87701679  0.75080557  1
  Zn  Zn114  1  0.87502573  0.12590044  0.75086185  1
  Zn  Zn115  1  0.74779503  0.87391195  0.12436774  1
  Zn  Zn116  1  0.75021308  0.62671112  0.37651830  1
  Zn  Zn117  1  0.25034553  -0.00233570  0.74858350  1
  Zn  Zn118  1  0.37502693  0.74852043  0.62428326  1
  Zn  Zn119  1  0.62410837  -0.00130771  0.12331738  1
  Zn  Zn120  1  0.00030621  0.37619185  0.37477443  1
  Zn  Zn121  1  0.12406248  0.87453115  0.24976239  1
  Zn  Zn122  1  0.37478108  0.37411986  0.00077741  1
  Zn  Zn123  1  0.49958126  0.12772777  0.12489628  1
  Zn  Zn124  1  0.50140070  0.12478915  0.62463985  1
  Zn  Zn125  1  0.74777809  0.74933139  0.00109549  1
  Zn  Zn126  1  0.37494592  0.00023995  0.37485238  1
  Zn  Zn127  1  0.62439859  0.62646424  0.49754223  1
  Zn  Zn128  1  0.18758684  0.18721985  0.18656448  1
  Zn  Zn129  1  0.19019199  0.18688207  0.68776592  1
  Zn  Zn130  1  0.18575980  0.68828352  0.19064092  1
  Zn  Zn131  1  0.18945857  0.68839361  0.68649933  1
  Zn  Zn132  1  0.68617517  0.18747502  0.18657741  1
  Zn  Zn133  1  0.69061205  0.18464003  0.68819646  1
  Zn  Zn134  1  0.68692140  0.68770835  0.18791867  1
  Zn  Zn135  1  0.68724916  0.68628943  0.68701214  1
  Zn  Zn136  1  0.31246032  0.31233138  0.31242514  1
  Zn  Zn137  1  0.31191293  0.31230643  0.81206432  1
  Zn  Zn138  1  0.31204610  0.81228224  0.31303676  1
  Zn  Zn139  1  0.31177114  0.81201148  0.81312828  1
  Zn  Zn140  1  0.81320533  0.31544376  0.31262894  1
  Zn  Zn141  1  0.81278957  0.31340831  0.81123897  1
  Zn  Zn142  1  0.81284190  0.81477105  0.31311796  1
  Zn  Zn143  1  0.81004223  0.81334701  0.81210757  1
  Zn  Zn144  1  0.18755341  0.43677688  0.43859587  1
  Zn  Zn145  1  0.18766164  0.43754431  0.93714044  1
  Zn  Zn146  1  0.18784756  0.93859690  0.43786501  1
  Zn  Zn147  1  0.18745949  0.93709618  0.93799659  1
  Zn  Zn148  1  0.68737987  0.43710620  0.43683268  1
  Zn  Zn149  1  0.68792657  0.43663785  0.93813065  1
  Zn  Zn150  1  0.68753613  0.93765697  0.43606888  1
  Zn  Zn151  1  0.68866704  0.93580765  0.93610787  1
  Zn  Zn152  1  0.31081894  0.06343889  0.06346833  1
  Zn  Zn153  1  0.31213728  0.06031861  0.56329255  1
  Zn  Zn154  1  0.31344603  0.56124780  0.06239585  1
  Zn  Zn155  1  0.31176005  0.56173061  0.56322391  1
  Zn  Zn156  1  0.81192501  0.06278300  0.06234038  1
  Zn  Zn157  1  0.81294453  0.06317138  0.56323392  1
  Zn  Zn158  1  0.81220590  0.56248108  0.06163957  1
  Zn  Zn159  1  0.81087822  0.56478996  0.56117588  1
  Zn  Zn160  1  0.43527553  0.43616544  0.18739695  1
  Zn  Zn161  1  0.43927922  0.43630320  0.68798933  1
  Zn  Zn162  1  0.43582521  0.93860973  0.18633069  1
  Zn  Zn163  1  0.43990375  0.93651104  0.68577099  1
  Zn  Zn164  1  0.93750085  0.43805561  0.18873556  1
  Zn  Zn165  1  0.93849125  0.43715049  0.68768287  1
  Zn  Zn166  1  0.93740136  0.93838717  0.18911317  1
  Zn  Zn167  1  0.93877106  0.93776601  0.68833191  1
  Zn  Zn168  1  0.06333842  0.06193104  0.31246889  1
  Zn  Zn169  1  0.06152006  0.06176983  0.81222541  1
  Zn  Zn170  1  0.06217140  0.56285194  0.31274302  1
  Zn  Zn171  1  0.06237518  0.56078985  0.81245339  1
  Zn  Zn172  1  0.56257138  0.06280560  0.31378706  1
  Zn  Zn173  1  0.56091526  0.06346665  0.81218119  1
  Zn  Zn174  1  0.56383009  0.56440450  0.31226576  1
  Zn  Zn175  1  0.56275398  0.56193452  0.81074544  1
  Zn  Zn176  1  0.43837328  0.18678272  0.43566025  1
  Zn  Zn177  1  0.43743413  0.18634874  0.93536221  1
  Zn  Zn178  1  0.43844751  0.68712356  0.43624481  1
  Zn  Zn179  1  0.43767682  0.68639677  0.93720956  1
  Zn  Zn180  1  0.93798721  0.18801622  0.43693879  1
  Zn  Zn181  1  0.93963598  0.18714819  0.93839178  1
  Zn  Zn182  1  0.93510877  0.68789699  0.43840470  1
  Zn  Zn183  1  0.93729905  0.68704350  0.94007392  1
  Zn  Zn184  1  0.06344034  0.31177720  0.06262296  1
  Zn  Zn185  1  0.06286693  0.31408246  0.56256108  1
  Zn  Zn186  1  0.06105987  0.81234377  0.06270688  1
  Zn  Zn187  1  0.06276129  0.81258480  0.56303254  1
  Zn  Zn188  1  0.56255476  0.31247648  0.06300253  1
  Zn  Zn189  1  0.56221757  0.31383557  0.56076839  1
  Zn  Zn190  1  0.56167031  0.81385114  0.06237578  1
  Zn  Zn191  1  0.56269920  0.81430623  0.56306835  1
  O  O192  1  0.11977557  0.11950917  0.12008160  1
  O  O193  1  0.12016636  0.12021006  0.62001965  1
  O  O194  1  0.11743494  0.62148021  0.12081799  1
  O  O195  1  0.11867495  0.62068131  0.62047749  1
  O  O196  1  0.62313045  0.12338267  0.11048673  1
  O  O197  1  0.62451206  0.11955421  0.61767444  1
  O  O198  1  0.61891800  0.61999587  0.11906536  1
  O  O199  1  0.62405397  0.61128956  0.62369656  1
  O  O200  1  0.37984001  0.38035899  0.38062401  1
  O  O201  1  0.38497644  0.37934729  0.87599460  1
  O  O202  1  0.38104987  0.87593282  0.38466563  1
  O  O203  1  0.37586183  0.88371959  0.88131816  1
  O  O204  1  0.87725017  0.38241668  0.38230366  1
  O  O205  1  0.88004704  0.37970797  0.87990280  1
  O  O206  1  0.88487560  0.87712582  0.38271557  1
  O  O207  1  0.87877405  0.88055732  0.88235706  1
  O  O208  1  0.25070212  0.00763738  0.36840812  1
  O  O209  1  0.26264481  0.00174835  0.87496647  1
  O  O210  1  0.25433986  0.50489401  0.37089226  1
  O  O211  1  0.25697004  0.50655725  0.87358296  1
  O  O212  1  0.75037771  0.00686431  0.36407117  1
  O  O213  1  0.75989082  -0.00064350  0.86982329  1
  O  O214  1  0.75468950  0.49996859  0.36591858  1
  O  O215  1  0.75476959  0.50420832  0.86909546  1
  O  O216  1  0.24391878  0.49551748  0.13037412  1
  O  O217  1  0.24143717  0.49808742  0.62795581  1
  O  O218  1  0.24447318  0.99395382  0.12947979  1
  O  O219  1  0.24160257  0.99567969  0.62704383  1
  O  O220  1  0.74597791  0.49565702  0.13177469  1
  O  O221  1  0.74324993  0.49508617  0.62848670  1
  O  O222  1  0.74871112  0.99956254  0.13706734  1
  O  O223  1  0.74551158  0.99532057  0.63045469  1
  O  O224  1  0.00679750  0.36814363  0.25077084  1
  O  O225  1  0.00550955  0.36895289  0.75566733  1
  O  O226  1  0.00104584  0.87526872  0.26355362  1
  O  O227  1  0.00491362  0.86769970  0.75609050  1
  O  O228  1  0.50071695  0.36870305  0.25650441  1
  O  O229  1  0.50363010  0.37217142  0.76281961  1
  O  O230  1  0.50420323  0.87092660  0.25377285  1
  O  O231  1  0.50098942  0.86270445  0.75336913  1
  O  O232  1  0.49113159  0.12981448  0.25005814  1
  O  O233  1  0.48737602  0.12765359  0.74806602  1
  O  O234  1  0.49862203  0.63221112  0.24246129  1
  O  O235  1  0.49094290  0.63227530  0.75036058  1
  O  O236  1  0.99445605  0.13035503  0.24518103  1
  O  O237  1  0.99848679  0.13198603  0.74323782  1
  O  O238  1  0.99833595  0.62727367  0.23746020  1
  O  O239  1  0.99410551  0.63024002  0.74535858  1
  O  O240  1  0.36303126  0.24921512  -0.00029976  1
  O  O241  1  0.37126282  0.25349986  0.50656835  1
  O  O242  1  0.36981161  0.75484274  0.00446000  1
  O  O243  1  0.37092716  0.75853619  0.49984507  1
  O  O244  1  0.86998054  0.25443799  0.00522232  1
  O  O245  1  0.87019283  0.25550681  0.50492002  1
  O  O246  1  0.87357699  0.75799827  0.00765775  1
  O  O247  1  0.86921182  0.75668551  0.50775055  1
  O  O248  1  0.13040729  0.24462407  0.49582837  1
  O  O249  1  0.13243047  0.24476192  0.99485877  1
  O  O250  1  0.13004529  0.74381291  0.49559450  1
  O  O251  1  0.13023358  0.74463449  0.99483748  1
  O  O252  1  0.63110744  0.24538177  0.49470081  1
  O  O253  1  0.62950846  0.24310178  0.99205352  1
  O  O254  1  0.63058320  0.75195973  0.49333800  1
  O  O255  1  0.62356258  0.74404497  0.99005562  1
  O  O256  1  0.49768730  0.24797813  0.13177834  1
  O  O257  1  0.48896558  0.24846786  0.62551308  1
  O  O258  1  0.49427463  0.74492922  0.12875573  1
  O  O259  1  0.50037692  0.74690940  0.63677997  1
  O  O260  1  0.99525942  0.24426223  0.13104727  1
  O  O261  1  0.99576684  0.24536873  0.62945641  1
  O  O262  1  0.99162141  0.74207234  0.12540299  1
  O  O263  1  0.99371730  0.74457020  0.63090770  1
  O  O264  1  0.00703756  0.25110509  0.36841155  1
  O  O265  1  0.00500086  0.25547144  0.86953045  1
  O  O266  1  0.00457146  0.75960332  0.37710916  1
  O  O267  1  0.00491918  0.75333293  0.87024834  1
  O  O268  1  0.50525368  0.25560777  0.36954049  1
  O  O269  1  0.50899743  0.25782864  0.87625325  1
  O  O270  1  0.50523494  0.75630501  0.36813385  1
  O  O271  1  0.50869780  0.74848154  0.86727389  1
  O  O272  1  0.24519143  0.13028666  0.49461303  1
  O  O273  1  0.24342867  0.13436680  0.99939752  1
  O  O274  1  0.24444450  0.62990490  0.49430946  1
  O  O275  1  0.24479486  0.63042115  0.99537832  1
  O  O276  1  0.74530211  0.13097501  0.49430249  1
  O  O277  1  0.74107215  0.13029647  0.99702802  1
  O  O278  1  0.74669353  0.63557213  0.49854727  1
  O  O279  1  0.74244580  0.62577238  0.99287874  1
  O  O280  1  0.24901597  0.36487695  0.00480964  1
  O  O281  1  0.25744960  0.36756580  0.50144981  1
  O  O282  1  0.25488224  0.86849460  0.00598364  1
  O  O283  1  0.25998804  0.86965944  0.49843354  1
  O  O284  1  0.75622623  0.36914722  0.00529140  1
  O  O285  1  0.75614172  0.36934844  0.50531855  1
  O  O286  1  0.76180556  0.87227382  0.00202275  1
  O  O287  1  0.75557116  0.87144226  0.50599568  1
  O  O288  1  0.13030860  0.49463642  0.24524572  1
  O  O289  1  0.12541129  0.49405613  0.74387223  1
  O  O290  1  0.13193772  0.99928636  0.24276498  1
  O  O291  1  0.12553174  0.99291629  0.74517389  1
  O  O292  1  0.63420453  0.49849861  0.24395463  1
  O  O293  1  0.63103077  0.49836666  0.74067901  1
  O  O294  1  0.63317228  0.99654975  0.24812106  1
  O  O295  1  0.63051812  0.99995681  0.74521128  1
  O  O296  1  0.36900657  0.00968826  0.25100777  1
  O  O297  1  0.37688496  0.00578570  0.75767048  1
  O  O298  1  0.36747347  0.50108413  0.25725367  1
  O  O299  1  0.37644053  0.50904222  0.75611490  1
  O  O300  1  0.86559720  0.00685008  0.25157769  1
  O  O301  1  0.87025322  -0.00139576  0.76057721  1
  O  O302  1  0.86599058  0.50087339  0.25522724  1
  O  O303  1  0.86984043  0.50557264  0.75511920  1
  O  O304  1  0.12401344  0.36831132  0.36877447  1
  O  O305  1  0.11900780  0.36940140  0.86992146  1
  O  O306  1  0.11499557  0.86981759  0.37734749  1
  O  O307  1  0.11955083  0.86840983  0.87136303  1
  O  O308  1  0.61821357  0.36823731  0.37383325  1
  O  O309  1  0.61806371  0.36612570  0.87545108  1
  O  O310  1  0.61898387  0.87022801  0.36816558  1
  O  O311  1  0.62311660  0.86241576  0.87359341  1
  O  O312  1  0.37463960  0.12777386  0.13758754  1
  O  O313  1  0.37647786  0.13219566  0.63143969  1
  O  O314  1  0.38120542  0.63141274  0.12574606  1
  O  O315  1  0.37729279  0.62546478  0.63700093  1
  O  O316  1  0.88007544  0.13128220  0.12977091  1
  O  O317  1  0.88262681  0.13247669  0.62527037  1
  O  O318  1  0.88304540  0.63341221  0.12294927  1
  O  O319  1  0.87976272  0.63060813  0.63146902  1
  O  O320  1  0.24834871  0.25581568  0.11472965  1
  O  O321  1  0.26171891  0.25032210  0.61865269  1
  O  O322  1  0.25431975  0.75399095  0.12010981  1
  O  O323  1  0.25361552  0.75247030  0.61605201  1
  O  O324  1  0.75583914  0.25518250  0.11994812  1
  O  O325  1  0.75554042  0.25519763  0.61900942  1
  O  O326  1  0.76107686  0.75044809  0.12259040  1
  O  O327  1  0.75464599  0.75592982  0.62138671  1
  O  O328  1  0.24419570  0.24417814  0.38049902  1
  O  O329  1  0.24363515  0.24914222  0.88454147  1
  O  O330  1  0.24433403  0.74424543  0.38077696  1
  O  O331  1  0.24444516  0.74375188  0.88196132  1
  O  O332  1  0.74530172  0.24620107  0.37994689  1
  O  O333  1  0.74137895  0.25057146  0.88092731  1
  O  O334  1  0.74403043  0.75227092  0.38128815  1
  O  O335  1  0.73980669  0.74316306  0.87454402  1
  O  O336  1  0.00668473  0.12417841  0.00804208  1
  O  O337  1  0.00628948  0.12106581  0.50538566  1
  O  O338  1  0.00600533  0.62405924  0.01068074  1
  O  O339  1  0.00494392  0.62076706  0.50668336  1
  O  O340  1  0.50730583  0.11736348  -0.00056625  1
  O  O341  1  0.50721458  0.11838648  0.49923811  1
  O  O342  1  0.50537104  0.61875323  0.00497692  1
  O  O343  1  0.50268713  0.61678118  0.50196782  1
  O  O344  1  0.49368257  0.38045148  0.49286739  1
  O  O345  1  0.49980275  0.38006104  0.98960790  1
  O  O346  1  0.49281817  0.87936076  0.49436891  1
  O  O347  1  0.49320107  0.88452124  0.99788462  1
  O  O348  1  0.99367853  0.38265390  0.49906990  1
  O  O349  1  0.99382777  0.37490777  0.99370513  1
  O  O350  1  0.99502491  0.88029937  0.49416662  1
  O  O351  1  0.98892962  0.87543644  0.99391775  1
  O  O352  1  0.49489058  0.49504094  0.37877573  1
  O  O353  1  0.49762042  0.49204927  0.87967225  1
  O  O354  1  0.49918522  0.99257000  0.38151107  1
  O  O355  1  0.49009945  0.99925333  0.88389954  1
  O  O356  1  0.99378637  0.49961571  0.38200324  1
  O  O357  1  0.99280677  0.49354701  0.87660836  1
  O  O358  1  1.00008869  0.99205753  0.38250832  1
  O  O359  1  0.99011946  0.99253920  0.87653313  1
  O  O360  1  0.00554672  0.00654102  0.12415990  1
  O  O361  1  0.00553740  0.00583232  0.62010149  1
  O  O362  1  0.00505920  0.50924662  0.12402056  1
  O  O363  1  0.00445971  0.50671936  0.61979659  1
  O  O364  1  0.49983292  0.00327820  0.11108864  1
  O  O365  1  0.50780139  0.00146242  0.61752506  1
  O  O366  1  0.50503862  0.50422187  0.12021795  1
  O  O367  1  0.50971721  0.49840659  0.61913103  1
  O  O368  1  0.24372885  0.38004541  0.24517448  1
  O  O369  1  0.24227830  0.37722566  0.74802240  1
  O  O370  1  0.24911498  0.88151698  0.24373533  1
  O  O371  1  0.24212233  0.87565550  0.74826226  1
  O  O372  1  0.74925275  0.38548748  0.24350669  1
  O  O373  1  0.74870086  0.38172341  0.74244982  1
  O  O374  1  0.74488888  0.88567688  0.24975784  1
  O  O375  1  0.74738692  0.88145276  0.74312640  1
  O  O376  1  0.25684114  0.12122852  0.25431098  1
  O  O377  1  0.26308733  0.12178084  0.75207097  1
  O  O378  1  0.25027430  0.61781316  0.25702241  1
  O  O379  1  0.26068904  0.62599766  0.75694921  1
  O  O380  1  0.75413725  0.11908591  0.25385342  1
  O  O381  1  0.75561160  0.11643935  0.75420851  1
  O  O382  1  0.75213340  0.61221187  0.24934064  1
  O  O383  1  0.75615908  0.61910550  0.75543845  1
  O  O384  1  0.36856643  0.12447737  0.36446505  1
  O  O385  1  0.37412889  0.11650905  0.86668638  1
  O  O386  1  0.36754470  0.61820774  0.37365301  1
  O  O387  1  0.37081071  0.61969320  0.86759359  1
  O  O388  1  0.86839090  0.12460623  0.36814566  1
  O  O389  1  0.87519180  0.11207834  0.87616581  1
  O  O390  1  0.87142949  0.61831295  0.37262530  1
  O  O391  1  0.87005390  0.62012003  0.87070940  1
  O  O392  1  0.12953059  0.38076290  0.13092233  1
  O  O393  1  0.12581323  0.38139598  0.63127177  1
  O  O394  1  0.13043525  0.88050248  0.12552225  1
  O  O395  1  0.12413217  0.88070439  0.63201122  1
  O  O396  1  0.63266666  0.38202228  0.12513256  1
  O  O397  1  0.63109470  0.38398312  0.62530818  1
  O  O398  1  0.62793356  0.87813780  0.13122433  1
  O  O399  1  0.63191494  0.88290049  0.62714579  1
  O  O400  1  0.12046722  0.25430127  0.25528794  1
  O  O401  1  0.12021115  0.25452856  0.75473657  1
  O  O402  1  0.12144903  0.75396568  0.25968490  1
  O  O403  1  0.11897308  0.75328571  0.75640114  1
  O  O404  1  0.61883528  0.25083932  0.25644640  1
  O  O405  1  0.62438803  0.24926198  0.76144864  1
  O  O406  1  0.61954043  0.75689821  0.25397318  1
  O  O407  1  0.61663302  0.74694431  0.75903002  1
  O  O408  1  0.38006009  0.24087985  0.24997758  1
  O  O409  1  0.37541323  0.24192017  0.74208834  1
  O  O410  1  0.38151388  0.74950733  0.24288939  1
  O  O411  1  0.38383212  0.74117469  0.75236777  1
  O  O412  1  0.87984032  0.24573870  0.24414798  1
  O  O413  1  0.88234440  0.24993443  0.74323412  1
  O  O414  1  0.87702986  0.75008409  0.23860309  1
  O  O415  1  0.87986000  0.74482283  0.74604199  1
  O  O416  1  0.37987946  0.49419486  0.49473114  1
  O  O417  1  0.38243778  0.49862569  0.99261227  1
  O  O418  1  0.38092835  0.99115990  0.49801782  1
  O  O419  1  0.38091011  0.99752764  0.99307435  1
  O  O420  1  0.87947363  0.49576800  0.49612457  1
  O  O421  1  0.87569765  0.49264604  0.99331061  1
  O  O422  1  0.88175829  0.99431288  0.49952060  1
  O  O423  1  0.87533737  0.99087481  0.99259508  1
  O  O424  1  0.12367395  0.00591889  0.00614066  1
  O  O425  1  0.11967536  0.00647358  0.50610755  1
  O  O426  1  0.12357812  0.50668532  0.00720500  1
  O  O427  1  0.11936952  0.50612030  0.50504795  1
  O  O428  1  0.61675139  0.00725171  -0.00405625  1
  O  O429  1  0.62146048  0.00545172  0.50501485  1
  O  O430  1  0.61982223  0.50511111  0.00515060  1
  O  O431  1  0.62016028  0.49958135  0.50869816  1
  O  O432  1  0.36565403  0.37222841  0.12108183  1
  O  O433  1  0.37533780  0.36564482  0.61986997  1
  O  O434  1  0.36847599  0.86942868  0.11872106  1
  O  O435  1  0.37553191  0.87236600  0.61174226  1
  O  O436  1  0.87046703  0.36934919  0.11950441  1
  O  O437  1  0.87029554  0.37002497  0.61907738  1
  O  O438  1  0.87638756  0.86709438  0.11682591  1
  O  O439  1  0.86994185  0.86965633  0.62112042  1
  O  O440  1  0.12970624  0.13092359  0.38116684  1
  O  O441  1  0.12552853  0.13109313  0.88091493  1
  O  O442  1  0.12938346  0.62980732  0.38192833  1
  O  O443  1  0.12944616  0.62982026  0.88017611  1
  O  O444  1  0.63136918  0.13164292  0.38063435  1
  O  O445  1  0.62410366  0.13389755  0.88438910  1
  O  O446  1  0.62846353  0.63507689  0.37616457  1
  O  O447  1  0.62908827  0.63130881  0.87946791  1
