# generated using pymatgen
data_V3Zn3O8
_symmetry_space_group_name_H-M   'P 1'
_cell_length_a   17.08861168
_cell_length_b   17.08919123
_cell_length_c   17.08988808
_cell_angle_alpha   89.99914849
_cell_angle_beta   89.99709798
_cell_angle_gamma   90.00795080
_symmetry_Int_Tables_number   1
_chemical_formula_structural   V3Zn3O8
_chemical_formula_sum   'V96 Zn96 O256'
_cell_volume   4990.76941306
_cell_formula_units_Z   32
loop_
 _symmetry_equiv_pos_site_id
 _symmetry_equiv_pos_as_xyz
  1  'x, y, z'
loop_
 _atom_site_type_symbol
 _atom_site_label
 _atom_site_symmetry_multiplicity
 _atom_site_fract_x
 _atom_site_fract_y
 _atom_site_fract_z
 _atom_site_occupancy
  V  V0  1  0.00034555  0.62464788  0.62530092  1
  V  V1  1  0.75069811  0.49914128  0.25033603  1
  V  V2  1  0.49945569  0.87651167  0.37394970  1
  V  V3  1  0.50142280  0.62513393  0.12387379  1
  V  V4  1  0.75064971  0.87462054  0.12587300  1
  V  V5  1  0.12398567  0.87529212  0.25184242  1
  V  V6  1  0.87455041  0.62446571  0.75055505  1
  V  V7  1  0.87535435  0.12547508  0.25162969  1
  V  V8  1  -0.00058881  0.12436464  0.62622194  1
  V  V9  1  0.75165372  0.74879551  0.00035515  1
  V  V10  1  0.74798866  0.12492827  0.37497036  1
  V  V11  1  0.87456135  0.12321031  0.75176534  1
  V  V12  1  0.37533791  0.00126680  0.37455289  1
  V  V13  1  0.37565566  0.25056913  0.12414954  1
  V  V14  1  0.62503490  0.37530384  0.24964405  1
  V  V15  1  0.49964583  0.25108534  0.24880236  1
  V  V16  1  0.49924307  0.49949283  0.49879811  1
  V  V17  1  0.87390957  0.25136858  0.12511591  1
  V  V18  1  0.37284778  0.25247434  0.62113880  1
  V  V19  1  0.74915320  0.25057036  0.50075023  1
  V  V20  1  0.37565629  0.87635625  -0.00037810  1
  V  V21  1  0.37575943  0.50028056  0.37459413  1
  V  V22  1  0.00061727  0.87413238  0.37542753  1
  V  V23  1  0.25022715  -0.00039332  0.75011828  1
  V  V24  1  0.74931351  0.49895365  0.74941311  1
  V  V25  1  0.49898979  0.62579248  0.62491690  1
  V  V26  1  0.87596348  0.49815399  0.37640139  1
  V  V27  1  0.62428058  0.00208149  0.12230884  1
  V  V28  1  0.87523906  0.87456711  0.50072046  1
  V  V29  1  0.00016058  0.00032462  0.00141203  1
  V  V30  1  0.50057490  0.12356764  0.62268143  1
  V  V31  1  0.25078468  0.50058219  0.24932013  1
  V  V32  1  0.37530367  0.62542093  0.74931133  1
  V  V33  1  0.62367901  -0.00127506  0.62466351  1
  V  V34  1  0.74838726  0.24851429  -0.00107433  1
  V  V35  1  -0.00074181  0.50034202  0.50110338  1
  V  V36  1  0.37527130  0.75071173  0.12494529  1
  V  V37  1  0.62523209  0.74980892  0.87454944  1
  V  V38  1  0.87641140  0.62392769  0.25004893  1
  V  V39  1  0.75063088  -0.00104145  0.75050511  1
  V  V40  1  0.12497365  0.74993519  0.87516794  1
  V  V41  1  0.24934632  0.25023978  -0.00163599  1
  V  V42  1  0.12500808  0.62375122  0.00080835  1
  V  V43  1  0.74886986  0.74974288  0.50013421  1
  V  V44  1  0.50145509  0.25060198  0.74969844  1
  V  V45  1  0.87596009  0.49862319  0.87576331  1
  V  V46  1  0.50052951  0.37514513  0.87375694  1
  V  V47  1  0.12551538  0.37447685  0.25069051  1
  V  V48  1  0.12542506  0.50042757  0.12427296  1
  V  V49  1  0.62507899  0.37467095  0.74985333  1
  V  V50  1  0.87482720  0.74989736  0.62558530  1
  V  V51  1  0.49969894  0.37553037  0.37458928  1
  V  V52  1  0.37554321  0.62565009  0.24896762  1
  V  V53  1  0.87329650  0.24933296  0.62583791  1
  V  V54  1  0.87682861  0.74861299  0.12693176  1
  V  V55  1  0.12470249  0.12522778  -0.00011756  1
  V  V56  1  0.37558069  0.50009330  0.87442544  1
  V  V57  1  0.12411405  0.00057421  0.12479803  1
  V  V58  1  0.12418986  0.50047078  0.62503798  1
  V  V59  1  0.62485177  0.49958649  0.62457264  1
  V  V60  1  -0.00083104  0.24906269  0.75099030  1
  V  V61  1  0.62525390  0.75011442  0.37483323  1
  V  V62  1  0.25068985  0.37578628  0.12414995  1
  V  V63  1  0.75033754  0.62423086  0.87511948  1
  V  V64  1  0.12615429  0.12816899  0.49864051  1
  V  V65  1  0.87585177  0.87446954  0.00141955  1
  V  V66  1  0.12514623  0.24952897  0.87497325  1
  V  V67  1  0.25061457  0.62537259  0.87496517  1
  V  V68  1  0.37570495  0.37585124  -0.00172866  1
  V  V69  1  0.24963289  0.00185524  0.25006155  1
  V  V70  1  0.62590603  0.62368640  0.00032393  1
  V  V71  1  0.12546507  -0.00048725  0.62640875  1
  V  V72  1  0.24962027  0.62641109  0.37428431  1
  V  V73  1  0.74907365  0.87492186  0.62570792  1
  V  V74  1  0.24903558  0.49967095  0.74869305  1
  V  V75  1  -0.00073813  -0.00022496  0.50176708  1
  V  V76  1  0.62433507  0.62565272  0.49934988  1
  V  V77  1  0.37495243  0.12649992  0.24759828  1
  V  V78  1  0.25017241  0.75028460  0.00014859  1
  V  V79  1  0.25060118  0.87528703  0.62495507  1
  V  V80  1  0.62625535  0.87507123  0.24904101  1
  V  V81  1  0.00131588  0.25112476  0.25247270  1
  V  V82  1  0.24940267  0.75043897  0.49839442  1
  V  V83  1  0.49996756  0.87565250  0.87532116  1
  V  V84  1  0.12502398  0.37501526  0.74932656  1
  V  V85  1  0.00038399  0.75010627  0.75105361  1
  V  V86  1  0.37485098  0.75037358  0.62492851  1
  V  V87  1  0.00095237  0.87399061  0.87593509  1
  V  V88  1  0.24987589  0.87587531  0.12517929  1
  V  V89  1  0.00096008  0.62411814  0.12573783  1
  V  V90  1  0.87396122  -0.00045370  0.37576440  1
  V  V91  1  0.62618561  0.50045522  0.12528979  1
  V  V92  1  -0.00106691  0.37517070  0.87608197  1
  V  V93  1  0.37328646  0.12380981  0.75146466  1
  V  V94  1  0.50084725  0.75037410  0.24938938  1
  V  V95  1  0.87439680  -0.00040981  0.87601986  1
  Zn  Zn96  1  0.12333183  0.74884691  0.37438053  1
  Zn  Zn97  1  0.00302176  0.37466289  0.37917410  1
  Zn  Zn98  1  0.37448701  0.00012205  0.87695365  1
  Zn  Zn99  1  0.12787184  0.25172572  0.37533948  1
  Zn  Zn100  1  0.50171723  0.49985423  -0.00102941  1
  Zn  Zn101  1  0.49931428  -0.00093124  0.49864031  1
  Zn  Zn102  1  0.62570832  0.24716213  0.87481344  1
  Zn  Zn103  1  -0.00131014  0.49751976  0.00087379  1
  Zn  Zn104  1  0.50099943  0.75022526  0.74905461  1
  Zn  Zn105  1  0.00191162  0.74892971  0.25290277  1
  Zn  Zn106  1  0.37576423  0.87782791  0.50047153  1
  Zn  Zn107  1  0.49819948  0.00470697  -0.00113928  1
  Zn  Zn108  1  0.12601863  0.87486037  0.75059310  1
  Zn  Zn109  1  0.74959121  0.37534595  0.12399549  1
  Zn  Zn110  1  0.62367799  0.87242986  0.75024328  1
  Zn  Zn111  1  0.37168132  0.37551016  0.49855195  1
  Zn  Zn112  1  0.12430528  0.62471503  0.49813519  1
  Zn  Zn113  1  0.62318339  0.24965849  0.37496609  1
  Zn  Zn114  1  0.75065889  -0.00035480  0.24967982  1
  Zn  Zn115  1  0.74998919  0.62481868  0.37533853  1
  Zn  Zn116  1  -0.00029447  0.12430635  0.12611427  1
  Zn  Zn117  1  0.62317272  0.12445560  0.49721224  1
  Zn  Zn118  1  0.24691607  0.25489482  0.49768905  1
  Zn  Zn119  1  0.87499837  0.37506760  0.50249579  1
  Zn  Zn120  1  0.50106687  0.12633295  0.12153727  1
  Zn  Zn121  1  0.74699429  0.12364939  0.87569761  1
  Zn  Zn122  1  0.24945335  0.37607727  0.62236047  1
  Zn  Zn123  1  0.62197747  0.12498618  -0.00402702  1
  Zn  Zn124  1  0.87518922  0.37558399  0.00046681  1
  Zn  Zn125  1  0.24967742  0.12831911  0.37497651  1
  Zn  Zn126  1  0.75013563  0.37495980  0.62470319  1
  Zn  Zn127  1  0.24964835  0.12318767  0.87530565  1
  Zn  Zn128  1  0.18793057  0.18709011  0.18584566  1
  Zn  Zn129  1  0.18790520  0.18781407  0.68608317  1
  Zn  Zn130  1  0.18651185  0.68907372  0.18836537  1
  Zn  Zn131  1  0.18721259  0.68716184  0.68725352  1
  Zn  Zn132  1  0.68686941  0.18807220  0.18751741  1
  Zn  Zn133  1  0.68746540  0.18563806  0.68881149  1
  Zn  Zn134  1  0.68996334  0.68595336  0.18844625  1
  Zn  Zn135  1  0.68582199  0.68702004  0.68803490  1
  Zn  Zn136  1  0.31155214  0.31187542  0.31417731  1
  Zn  Zn137  1  0.31212447  0.31254127  0.81072317  1
  Zn  Zn138  1  0.31199418  0.81453431  0.31195928  1
  Zn  Zn139  1  0.31372025  0.81292146  0.81148542  1
  Zn  Zn140  1  0.81193346  0.31381635  0.31320528  1
  Zn  Zn141  1  0.81144976  0.31268148  0.81392003  1
  Zn  Zn142  1  0.81272954  0.81142319  0.31238478  1
  Zn  Zn143  1  0.81253222  0.81334072  0.81276797  1
  Zn  Zn144  1  0.18738451  0.43711398  0.43824696  1
  Zn  Zn145  1  0.18692920  0.43735260  0.93639789  1
  Zn  Zn146  1  0.18786333  0.93876546  0.43755246  1
  Zn  Zn147  1  0.18824838  0.93855048  0.93646184  1
  Zn  Zn148  1  0.68750093  0.43664043  0.43629865  1
  Zn  Zn149  1  0.68867299  0.43424162  0.93806312  1
  Zn  Zn150  1  0.68669446  0.93728578  0.43865404  1
  Zn  Zn151  1  0.68753970  0.93628480  0.93851115  1
  Zn  Zn152  1  0.31227274  0.06327230  0.06179040  1
  Zn  Zn153  1  0.31093606  0.06317025  0.56167427  1
  Zn  Zn154  1  0.31347682  0.56247610  0.06131473  1
  Zn  Zn155  1  0.31171386  0.56336720  0.56146306  1
  Zn  Zn156  1  0.81098141  0.06419338  0.06334189  1
  Zn  Zn157  1  0.81139245  0.06328471  0.56301803  1
  Zn  Zn158  1  0.81367158  0.56078532  0.06274233  1
  Zn  Zn159  1  0.81126500  0.56336621  0.56247300  1
  Zn  Zn160  1  0.43917319  0.43795259  0.18654384  1
  Zn  Zn161  1  0.43803864  0.43781447  0.68733209  1
  Zn  Zn162  1  0.43899411  0.93890199  0.18697748  1
  Zn  Zn163  1  0.43652259  0.93597690  0.68966000  1
  Zn  Zn164  1  0.93888464  0.43649992  0.18838539  1
  Zn  Zn165  1  0.93652803  0.43532357  0.68751629  1
  Zn  Zn166  1  0.93796652  0.93724378  0.18955022  1
  Zn  Zn167  1  0.93795713  0.93649795  0.68907593  1
  Zn  Zn168  1  0.06079375  0.06255539  0.31379865  1
  Zn  Zn169  1  0.06320451  0.06195322  0.81392379  1
  Zn  Zn170  1  0.06318185  0.56222972  0.31315651  1
  Zn  Zn171  1  0.06204061  0.56188422  0.81301999  1
  Zn  Zn172  1  0.56194602  0.06332018  0.30716905  1
  Zn  Zn173  1  0.56364646  0.06166898  0.81262813  1
  Zn  Zn174  1  0.56319192  0.56271322  0.31205591  1
  Zn  Zn175  1  0.56202500  0.56237514  0.81187375  1
  Zn  Zn176  1  0.43724786  0.18755687  0.43560089  1
  Zn  Zn177  1  0.44013660  0.18888518  0.93783357  1
  Zn  Zn178  1  0.43690239  0.68822533  0.43742846  1
  Zn  Zn179  1  0.43883367  0.68852737  0.93754248  1
  Zn  Zn180  1  0.93654097  0.18725837  0.43837143  1
  Zn  Zn181  1  0.93673111  0.18621855  0.93828597  1
  Zn  Zn182  1  0.93764170  0.68641819  0.43749580  1
  Zn  Zn183  1  0.93873307  0.68537829  0.93915098  1
  Zn  Zn184  1  0.06144694  0.31283016  0.06306957  1
  Zn  Zn185  1  0.05921217  0.31450734  0.56412572  1
  Zn  Zn186  1  0.06279459  0.81157876  0.06448495  1
  Zn  Zn187  1  0.06411086  0.81254981  0.56304260  1
  Zn  Zn188  1  0.56310546  0.31411547  0.06205448  1
  Zn  Zn189  1  0.56307952  0.31301992  0.56105284  1
  Zn  Zn190  1  0.56356019  0.81345749  0.06067275  1
  Zn  Zn191  1  0.56019285  0.81367603  0.55997978  1
  O  O192  1  0.12325884  0.11781482  0.11800814  1
  O  O193  1  0.11826023  0.11971267  0.61838175  1
  O  O194  1  0.12160709  0.61982921  0.12048108  1
  O  O195  1  0.11705839  0.61837452  0.62512871  1
  O  O196  1  0.62543695  0.11242609  0.12534262  1
  O  O197  1  0.61516765  0.11574750  0.62598590  1
  O  O198  1  0.62073815  0.62081215  0.12003529  1
  O  O199  1  0.61869621  0.61975963  0.61913719  1
  O  O200  1  0.38209617  0.38346533  0.37408180  1
  O  O201  1  0.37991943  0.38060537  0.87816247  1
  O  O202  1  0.38085016  0.88669411  0.37180311  1
  O  O203  1  0.38396700  0.87389961  0.88106035  1
  O  O204  1  0.87712903  0.38843681  0.37622860  1
  O  O205  1  0.88226566  0.38133907  0.87422539  1
  O  O206  1  0.87917639  0.88004446  0.38184093  1
  O  O207  1  0.88118026  0.87906200  0.88225998  1
  O  O208  1  0.25984265  0.00193974  0.36847559  1
  O  O209  1  0.25322519  0.00282429  0.86602808  1
  O  O210  1  0.25613216  0.50637098  0.36820324  1
  O  O211  1  0.25513954  0.50614146  0.86887995  1
  O  O212  1  0.75532131  0.00916703  0.37599183  1
  O  O213  1  0.75742138  -0.00220449  0.86886501  1
  O  O214  1  0.75956428  0.50203881  0.37025415  1
  O  O215  1  0.75509376  0.50558048  0.86903398  1
  O  O216  1  0.24602557  0.49552224  0.13014846  1
  O  O217  1  0.24315996  0.50121899  0.63210197  1
  O  O218  1  0.24396328  0.99409963  0.13013719  1
  O  O219  1  0.24535186  0.99491058  0.63023684  1
  O  O220  1  0.74470832  0.49854880  0.13233082  1
  O  O221  1  0.74282657  0.49957894  0.63136332  1
  O  O222  1  0.74303923  0.99257833  0.12688071  1
  O  O223  1  0.74246614  0.99504379  0.62927221  1
  O  O224  1  0.00670145  0.36578994  0.25100518  1
  O  O225  1  0.00536606  0.36803078  0.75590470  1
  O  O226  1  0.00606641  0.87440094  0.25791712  1
  O  O227  1  0.00104575  0.86776424  0.75773778  1
  O  O228  1  0.50505394  0.37103338  0.25539585  1
  O  O229  1  0.50536948  0.37036604  0.75432323  1
  O  O230  1  0.50611221  0.86851735  0.25424989  1
  O  O231  1  0.50089108  0.87160128  0.76186933  1
  O  O232  1  0.49279341  0.13330514  0.24559940  1
  O  O233  1  0.49203163  0.12830964  0.74016148  1
  O  O234  1  0.49510241  0.63144868  0.24393757  1
  O  O235  1  0.49290820  0.62600156  0.74286058  1
  O  O236  1  0.99397931  0.13443082  0.24950288  1
  O  O237  1  0.99463360  0.12934629  0.74541094  1
  O  O238  1  0.99443221  0.62580201  0.24345061  1
  O  O239  1  0.99358232  0.63079437  0.74573910  1
  O  O240  1  0.36880173  0.25690160  0.00380732  1
  O  O241  1  0.37523053  0.24896772  0.51181538  1
  O  O242  1  0.36892514  0.75485078  0.00616562  1
  O  O243  1  0.36422661  0.75109988  0.50520175  1
  O  O244  1  0.86886924  0.24912740  0.01010252  1
  O  O245  1  0.86568178  0.24927078  0.50635975  1
  O  O246  1  0.87073556  0.75440574  0.00614045  1
  O  O247  1  0.86925747  0.75487108  0.50656996  1
  O  O248  1  0.12068917  0.23861202  0.50081992  1
  O  O249  1  0.12991087  0.24537529  0.99527676  1
  O  O250  1  0.13848703  0.74849957  0.49940685  1
  O  O251  1  0.13124020  0.74408209  0.99556836  1
  O  O252  1  0.63555306  0.24565753  0.49774746  1
  O  O253  1  0.63648607  0.24953218  1.00056043  1
  O  O254  1  0.62943213  0.74553640  0.49448515  1
  O  O255  1  0.63279803  0.74353365  0.99537371  1
  O  O256  1  0.49209514  0.25227037  0.13143103  1
  O  O257  1  0.49390370  0.24133643  0.62927846  1
  O  O258  1  0.49528872  0.74540845  0.12995650  1
  O  O259  1  0.49324442  0.74367131  0.62461816  1
  O  O260  1  0.99167058  0.24853714  0.13498640  1
  O  O261  1  0.99335049  0.24342212  0.63230006  1
  O  O262  1  0.99375979  0.74272870  0.12703480  1
  O  O263  1  0.99426749  0.74554181  0.63055813  1
  O  O264  1  -0.00087502  0.25151457  0.36282570  1
  O  O265  1  0.00495341  0.25438893  0.86943633  1
  O  O266  1  0.00200871  0.75839236  0.37505739  1
  O  O267  1  0.00494158  0.75405557  0.87094796  1
  O  O268  1  0.50047025  0.25664379  0.36761121  1
  O  O269  1  0.50018224  0.25808375  0.86616443  1
  O  O270  1  0.50494427  0.75546844  0.36841167  1
  O  O271  1  0.50649446  0.75842624  0.87453879  1
  O  O272  1  0.23615045  0.12708072  0.50096468  1
  O  O273  1  0.24365412  0.13255921  0.99775476  1
  O  O274  1  0.24963331  0.63487208  0.49332823  1
  O  O275  1  0.24543639  0.63118619  0.99472298  1
  O  O276  1  0.74981539  0.13272957  0.49090362  1
  O  O277  1  0.74861074  0.13630201  0.99867739  1
  O  O278  1  0.74207856  0.63261046  0.49956700  1
  O  O279  1  0.74582844  0.63008178  0.99440363  1
  O  O280  1  0.25534724  0.37014897  0.00445623  1
  O  O281  1  0.25405644  0.37278391  0.50520617  1
  O  O282  1  0.25478992  0.86937604  0.00563914  1
  O  O283  1  0.25227690  0.86676213  0.50509735  1
  O  O284  1  0.75408448  0.36320856  0.00317919  1
  O  O285  1  0.75141647  0.36238647  0.50087771  1
  O  O286  1  0.75719415  0.86764955  0.00575359  1
  O  O287  1  0.75562889  0.86947151  0.50619784  1
  O  O288  1  0.13188049  0.49510389  0.24351509  1
  O  O289  1  0.12956292  0.49510673  0.74550109  1
  O  O290  1  0.12938070  0.99587840  0.24494785  1
  O  O291  1  0.13184459  0.99990447  0.74368715  1
  O  O292  1  0.63082808  0.49621195  0.24502033  1
  O  O293  1  0.63007154  0.49560286  0.74414272  1
  O  O294  1  0.62783553  0.99270410  0.24053497  1
  O  O295  1  0.63055781  0.99730440  0.73822447  1
  O  O296  1  0.36994201  0.00560118  0.25549829  1
  O  O297  1  0.36922023  0.01011593  0.74879523  1
  O  O298  1  0.37017368  0.50663262  0.25384064  1
  O  O299  1  0.36904511  0.50561730  0.75470549  1
  O  O300  1  0.87327803  0.00671653  0.25745934  1
  O  O301  1  0.87072785  0.00375575  0.75584493  1
  O  O302  1  0.87133999  0.50385550  0.25754565  1
  O  O303  1  0.86943911  0.50587799  0.75489940  1
  O  O304  1  0.12279919  0.37343371  0.36546568  1
  O  O305  1  0.11937588  0.36928712  0.86880420  1
  O  O306  1  0.11833649  0.87611381  0.36975754  1
  O  O307  1  0.11852897  0.86749935  0.87493238  1
  O  O308  1  0.61746731  0.37438336  0.36741194  1
  O  O309  1  0.61797441  0.37353377  0.86723250  1
  O  O310  1  0.62016229  0.87015305  0.36944507  1
  O  O311  1  0.61659351  0.86836763  0.87554446  1
  O  O312  1  0.37480183  0.13338482  0.13049499  1
  O  O313  1  0.38217136  0.13043534  0.63169655  1
  O  O314  1  0.38040647  0.63105145  0.12960291  1
  O  O315  1  0.37986891  0.62997608  0.63000820  1
  O  O316  1  0.87593177  0.13521608  0.13270617  1
  O  O317  1  0.88075002  0.12851387  0.63145037  1
  O  O318  1  0.88118443  0.62908844  0.13017924  1
  O  O319  1  0.87979675  0.63081058  0.63146375  1
  O  O320  1  0.25526275  0.25727085  0.11847818  1
  O  O321  1  0.26172118  0.25119072  0.62379830  1
  O  O322  1  0.25579608  0.75589261  0.11979933  1
  O  O323  1  0.25464035  0.75398733  0.61722598  1
  O  O324  1  0.75918904  0.25070558  0.11926498  1
  O  O325  1  0.75469260  0.24729706  0.61555282  1
  O  O326  1  0.75651451  0.75415946  0.11943067  1
  O  O327  1  0.75496165  0.75504742  0.62037727  1
  O  O328  1  0.24624028  0.24506637  0.37923074  1
  O  O329  1  0.24304301  0.24900781  0.88027089  1
  O  O330  1  0.25153943  0.74597443  0.38357854  1
  O  O331  1  0.24524546  0.74481734  0.88056572  1
  O  O332  1  0.75092817  0.24066512  0.38325155  1
  O  O333  1  0.75002277  0.24737784  0.88608133  1
  O  O334  1  0.74345113  0.74895749  0.38246387  1
  O  O335  1  0.74669885  0.74414064  0.88092366  1
  O  O336  1  0.00630095  0.11780026  0.00251979  1
  O  O337  1  0.00538836  0.11891307  0.50649845  1
  O  O338  1  0.00798909  0.62254739  0.00715643  1
  O  O339  1  0.00069832  0.61906587  0.50816719  1
  O  O340  1  0.50325246  0.12250511  0.00398690  1
  O  O341  1  0.50117816  0.12276954  0.51223675  1
  O  O342  1  0.50759121  0.62425624  0.00628237  1
  O  O343  1  0.50509407  0.61990560  0.50480881  1
  O  O344  1  0.49828674  0.38213727  0.49254715  1
  O  O345  1  0.49310616  0.37691275  0.99231598  1
  O  O346  1  0.49544415  0.87842857  0.48991747  1
  O  O347  1  0.49365663  0.87432740  0.99070480  1
  O  O348  1  0.99525317  0.38396259  0.49855768  1
  O  O349  1  0.99767020  0.37625141  0.99156000  1
  O  O350  1  0.99425117  0.88055158  0.49696966  1
  O  O351  1  0.99493952  0.87971411  0.99575497  1
  O  O352  1  0.49480615  0.49630576  0.37911062  1
  O  O353  1  0.49274903  0.49384742  0.87532863  1
  O  O354  1  0.49115913  0.99584463  0.37267042  1
  O  O355  1  0.49831305  0.98749796  0.87607904  1
  O  O356  1  0.99109623  0.50024634  0.38140766  1
  O  O357  1  0.99374917  0.49353501  0.87522840  1
  O  O358  1  0.99274348  0.99466918  0.38261258  1
  O  O359  1  0.99484501  0.99337574  0.88138033  1
  O  O360  1  0.00593803  0.00057015  0.11883059  1
  O  O361  1  0.00452303  0.00462366  0.62103368  1
  O  O362  1  0.00764065  0.50572690  0.12428837  1
  O  O363  1  0.00335234  0.50586576  0.62142095  1
  O  O364  1  0.51211450  -0.00012456  0.12309052  1
  O  O365  1  0.50654421  0.00709436  0.62569576  1
  O  O366  1  0.50723938  0.50813413  0.12347722  1
  O  O367  1  0.50484297  0.50613699  0.61890854  1
  O  O368  1  0.24596388  0.38125459  0.24303876  1
  O  O369  1  0.24285026  0.38209373  0.74783001  1
  O  O370  1  0.24489508  0.88209019  0.24393238  1
  O  O371  1  0.24914575  0.88167282  0.74318246  1
  O  O372  1  0.74301560  0.38128834  0.24910969  1
  O  O373  1  0.74300940  0.38158246  0.74885575  1
  O  O374  1  0.74404278  0.87536293  0.24366997  1
  O  O375  1  0.74919953  0.88114757  0.74276371  1
  O  O376  1  0.25629401  0.11840290  0.25037616  1
  O  O377  1  0.25951313  0.11948158  0.74816707  1
  O  O378  1  0.25670036  0.62049094  0.25329702  1
  O  O379  1  0.25523505  0.61995308  0.75619530  1
  O  O380  1  0.75617780  0.12591067  0.26158032  1
  O  O381  1  0.75775046  0.11643665  0.75015097  1
  O  O382  1  0.75797262  0.61749548  0.25254489  1
  O  O383  1  0.75535602  0.61946298  0.75560782  1
  O  O384  1  0.37530851  0.11539865  0.36718915  1
  O  O385  1  0.37553364  0.12593437  0.86005720  1
  O  O386  1  0.37059198  0.62041388  0.36730382  1
  O  O387  1  0.36963913  0.62077867  0.87022506  1
  O  O388  1  0.86668456  0.11926113  0.37177920  1
  O  O389  1  0.87428752  0.11628263  0.86878388  1
  O  O390  1  0.87419455  0.61393744  0.36967503  1
  O  O391  1  0.86968644  0.62017217  0.86960416  1
  O  O392  1  0.13166015  0.38054232  0.12988232  1
  O  O393  1  0.12377668  0.38238253  0.63332015  1
  O  O394  1  0.13077007  0.88095432  0.13014567  1
  O  O395  1  0.13181399  0.88221867  0.62702544  1
  O  O396  1  0.62565209  0.38333892  0.13247558  1
  O  O397  1  0.62557355  0.38249925  0.63147008  1
  O  O398  1  0.63114926  0.88049306  0.12946076  1
  O  O399  1  0.62940919  0.88318257  0.62526748  1
  O  O400  1  0.11550460  0.25444703  0.24786734  1
  O  O401  1  0.11867405  0.25396755  0.75434508  1
  O  O402  1  0.12382732  0.75992526  0.25271304  1
  O  O403  1  0.11847761  0.75062731  0.75730717  1
  O  O404  1  0.61817795  0.25712972  0.25077577  1
  O  O405  1  0.61849806  0.25657700  0.74851888  1
  O  O406  1  0.62011822  0.75469005  0.25448150  1
  O  O407  1  0.62279972  0.75177703  0.75850113  1
  O  O408  1  0.37939144  0.24636319  0.24343678  1
  O  O409  1  0.37994642  0.24198136  0.74091371  1
  O  O410  1  0.38043855  0.74559525  0.24415818  1
  O  O411  1  0.37504364  0.74217422  0.74248397  1
  O  O412  1  0.88153068  0.24653840  0.24439827  1
  O  O413  1  0.87968938  0.24289222  0.74606036  1
  O  O414  1  0.87663773  0.74247824  0.24413503  1
  O  O415  1  0.87986971  0.74419237  0.74512605  1
  O  O416  1  0.38211110  0.50125569  0.49252729  1
  O  O417  1  0.37608217  0.49385590  0.99239661  1
  O  O418  1  0.37554958  1.00089130  0.48684750  1
  O  O419  1  0.37603925  0.99159877  0.99779717  1
  O  O420  1  0.87925775  0.50063932  0.49220679  1
  O  O421  1  0.87705593  0.49712670  0.99170766  1
  O  O422  1  0.87963397  0.99424868  0.49654752  1
  O  O423  1  0.87983358  0.99388293  0.99652939  1
  O  O424  1  0.12006490  0.00460401  0.00521556  1
  O  O425  1  0.11894908  0.00779586  0.50640833  1
  O  O426  1  0.12557435  0.50667632  0.00672234  1
  O  O427  1  0.11738384  0.50250891  0.50697847  1
  O  O428  1  0.62503729  -0.00070229  0.01204519  1
  O  O429  1  0.62306323  0.00266989  0.51308118  1
  O  O430  1  0.62568070  0.50649026  0.00634927  1
  O  O431  1  0.61951804  0.50564286  0.50441120  1
  O  O432  1  0.36952959  0.37141676  0.11877768  1
  O  O433  1  0.37622588  0.36293422  0.62458813  1
  O  O434  1  0.36961666  0.86946409  0.12083674  1
  O  O435  1  0.36861846  0.86900274  0.62296055  1
  O  O436  1  0.87394107  0.36225310  0.12552770  1
  O  O437  1  0.87053205  0.36515275  0.62419528  1
  O  O438  1  0.87073477  0.86922435  0.12048058  1
  O  O439  1  0.86984597  0.86944275  0.61984782  1
  O  O440  1  0.12421742  0.12479394  0.38792396  1
  O  O441  1  0.12592845  0.13227297  0.88157266  1
  O  O442  1  0.13427244  0.62781577  0.37657389  1
  O  O443  1  0.13106025  0.63013086  0.88041392  1
  O  O444  1  0.63588307  0.12510623  0.37517451  1
  O  O445  1  0.62890657  0.12832009  0.87645352  1
  O  O446  1  0.62526666  0.63257544  0.38135119  1
  O  O447  1  0.63124020  0.62903972  0.88031171  1
