# generated using pymatgen
data_V3Zn3O8
_symmetry_space_group_name_H-M   'P 1'
_cell_length_a   17.08820237
_cell_length_b   17.08743705
_cell_length_c   17.08629130
_cell_angle_alpha   90.00816400
_cell_angle_beta   90.00576771
_cell_angle_gamma   89.99118281
_symmetry_Int_Tables_number   1
_chemical_formula_structural   V3Zn3O8
_chemical_formula_sum   'V96 Zn96 O256'
_cell_volume   4989.08726672
_cell_formula_units_Z   32
loop_
 _symmetry_equiv_pos_site_id
 _symmetry_equiv_pos_as_xyz
  1  'x, y, z'
loop_
 _atom_site_type_symbol
 _atom_site_label
 _atom_site_symmetry_multiplicity
 _atom_site_fract_x
 _atom_site_fract_y
 _atom_site_fract_z
 _atom_site_occupancy
  V  V0  1  0.50289926  0.50140587  0.00000922  1
  V  V1  1  0.25148854  0.37691974  0.12451964  1
  V  V2  1  0.87554017  0.87648654  -0.00079590  1
  V  V3  1  0.25022064  0.62522714  0.87364220  1
  V  V4  1  0.87591150  0.74986446  0.12499694  1
  V  V5  1  0.50062217  0.37639373  0.87566506  1
  V  V6  1  0.25119484  0.87405310  0.62504748  1
  V  V7  1  0.12480164  0.50017640  0.62395708  1
  V  V8  1  0.75062502  0.12442918  0.87464384  1
  V  V9  1  0.75052630  0.25139799  0.00053053  1
  V  V10  1  0.62352394  0.74872219  0.37465599  1
  V  V11  1  0.37487555  0.12612378  0.24979974  1
  V  V12  1  0.24955096  0.12499088  0.37544389  1
  V  V13  1  0.37498408  0.74948679  0.62339029  1
  V  V14  1  0.62581972  0.37447730  0.24983079  1
  V  V15  1  0.12637503  0.50221679  0.12461623  1
  V  V16  1  0.25079225  0.50074355  0.74946870  1
  V  V17  1  0.12438593  0.00198876  0.12570793  1
  V  V18  1  0.87125219  0.12341165  0.25114739  1
  V  V19  1  0.75037235  0.37367427  0.62466580  1
  V  V20  1  0.00061776  0.62542223  0.62310109  1
  V  V21  1  0.75044691  0.74861383  0.49996936  1
  V  V22  1  0.62554196  0.25028616  0.87563169  1
  V  V23  1  0.37383822  0.24983637  0.62562271  1
  V  V24  1  0.62553417  0.37452595  0.74992385  1
  V  V25  1  0.37469844  0.87586777  -0.00028699  1
  V  V26  1  0.37528082  0.12538112  0.75202294  1
  V  V27  1  0.24972470  0.75098584  -0.00051858  1
  V  V28  1  0.37440986  -0.00132510  0.37680734  1
  V  V29  1  0.62473403  0.12565599  0.00083863  1
  V  V30  1  0.62531878  0.49842243  0.62425667  1
  V  V31  1  0.25029843  -0.00002249  0.75107866  1
  V  V32  1  0.37426577  0.37364500  0.50114829  1
  V  V33  1  0.49967278  0.12354146  0.62661736  1
  V  V34  1  0.49969929  0.24986548  0.75096314  1
  V  V35  1  0.50088210  0.87447173  0.87447675  1
  V  V36  1  0.75045654  -0.00047560  0.74988877  1
  V  V37  1  0.74973973  0.74980601  -0.00254104  1
  V  V38  1  0.87512574  0.24933293  0.62462740  1
  V  V39  1  0.12549929  0.75115348  0.87475124  1
  V  V40  1  0.37356424  0.50012592  0.37542315  1
  V  V41  1  0.37493431  0.37521039  0.00114412  1
  V  V42  1  -0.00256250  -0.00192939  0.49717745  1
  V  V43  1  0.12405014  0.37561712  0.25041495  1
  V  V44  1  0.87439431  0.62398081  0.24938182  1
  V  V45  1  0.62633444  0.62223113  0.49950114  1
  V  V46  1  -0.00049667  0.00108248  -0.00033849  1
  V  V47  1  0.00116743  0.50091486  -0.00063045  1
  V  V48  1  0.50282305  0.74973991  0.75100250  1
  V  V49  1  0.00055827  0.25012073  0.74983883  1
  V  V50  1  0.37526277  0.00089107  0.87584298  1
  V  V51  1  0.62520362  -0.00064337  0.12599764  1
  V  V52  1  0.49944316  0.49747831  0.50048376  1
  V  V53  1  0.75079477  0.62303789  0.37367528  1
  V  V54  1  0.75213512  0.50008658  0.74941186  1
  V  V55  1  -0.00070569  0.12724568  0.12520841  1
  V  V56  1  0.87573793  0.37418424  0.49773322  1
  V  V57  1  0.49843285  0.12564890  0.12684987  1
  V  V58  1  0.12581175  0.25015607  0.87566342  1
  V  V59  1  0.74782107  0.87679151  0.12522450  1
  V  V60  1  0.12529008  0.12728714  0.00061211  1
  V  V61  1  0.87506424  0.12476111  0.75082760  1
  V  V62  1  0.12489105  0.37559080  0.74949214  1
  V  V63  1  0.87560083  0.37574530  0.00002606  1
  V  V64  1  0.24961218  0.24956316  0.50159926  1
  V  V65  1  0.12358687  0.87578375  0.25071483  1
  V  V66  1  0.62239699  0.24757395  0.37533320  1
  V  V67  1  0.00137214  0.75036317  0.74857213  1
  V  V68  1  0.24978580  0.12628085  0.87664895  1
  V  V69  1  0.87433708  0.25096880  0.12452070  1
  V  V70  1  0.50072754  0.62412756  0.62574865  1
  V  V71  1  0.24933404  0.87614647  0.12481035  1
  V  V72  1  0.87638928  0.62406782  0.74850097  1
  V  V73  1  0.12493949  0.62599506  0.00065379  1
  V  V74  1  0.12493755  0.12509123  0.50012149  1
  V  V75  1  -0.00154899  0.49876087  0.49720060  1
  V  V76  1  0.12542607  0.87527761  0.75016641  1
  V  V77  1  0.74894801  0.24746932  0.50091742  1
  V  V78  1  0.12548267  -0.00000999  0.62559756  1
  V  V79  1  0.62409073  0.12372129  0.50183544  1
  V  V80  1  0.00021563  0.37596233  0.87498011  1
  V  V81  1  0.74952498  0.87469444  0.62538870  1
  V  V82  1  0.49880327  -0.00316872  0.50118521  1
  V  V83  1  0.12444881  0.75138023  0.37462919  1
  V  V84  1  0.12560531  0.62556380  0.49797340  1
  V  V85  1  0.50189612  0.62533366  0.12402166  1
  V  V86  1  0.87543676  0.74985358  0.62283215  1
  V  V87  1  0.75133309  0.62622152  0.87446291  1
  V  V88  1  0.12386168  0.25142601  0.37410531  1
  V  V89  1  0.49958726  0.00060717  0.00031660  1
  V  V90  1  0.24904627  0.00127512  0.25081271  1
  V  V91  1  0.50008806  0.75123363  0.25076576  1
  V  V92  1  0.00041628  0.12491386  0.62542169  1
  V  V93  1  0.37539014  0.75075780  0.12495145  1
  V  V94  1  0.25073300  0.50181640  0.25063828  1
  V  V95  1  0.00003786  0.87628873  0.87496486  1
  Zn  Zn96  1  0.49914380  0.37337159  0.37459781  1
  Zn  Zn97  1  0.00113768  0.62616481  0.12538950  1
  Zn  Zn98  1  0.87662057  0.50039697  0.87509305  1
  Zn  Zn99  1  -0.00202726  0.37475794  0.37227366  1
  Zn  Zn100  1  -0.00428754  0.87609506  0.37145765  1
  Zn  Zn101  1  0.49854006  0.87262367  0.37693075  1
  Zn  Zn102  1  0.62695797  0.87610361  0.75314035  1
  Zn  Zn103  1  0.62508916  0.87682810  0.25295362  1
  Zn  Zn104  1  0.74937554  0.37862130  0.12418732  1
  Zn  Zn105  1  0.74884958  0.11971552  0.37660386  1
  Zn  Zn106  1  0.37439510  0.25066406  0.12792156  1
  Zn  Zn107  1  0.37379431  0.87355926  0.49865607  1
  Zn  Zn108  1  0.62529214  0.75000263  0.87684019  1
  Zn  Zn109  1  0.62574713  0.49863174  0.12753094  1
  Zn  Zn110  1  0.87425193  0.87466929  0.49482326  1
  Zn  Zn111  1  0.62838024  0.62505035  -0.00074409  1
  Zn  Zn112  1  0.00035069  0.75201151  0.24928390  1
  Zn  Zn113  1  0.49718934  0.25061112  0.24977316  1
  Zn  Zn114  1  0.62389178  -0.00152999  0.62716205  1
  Zn  Zn115  1  0.74659830  -0.00232857  0.25465955  1
  Zn  Zn116  1  0.37421641  0.62525900  0.25135099  1
  Zn  Zn117  1  0.87487964  0.00019501  0.87493269  1
  Zn  Zn118  1  0.24957799  0.62666475  0.37477299  1
  Zn  Zn119  1  0.24901442  0.37437499  0.62541947  1
  Zn  Zn120  1  0.74879776  0.49932368  0.24725252  1
  Zn  Zn121  1  0.87019120  -0.00285117  0.37415204  1
  Zn  Zn122  1  0.25055393  0.25153702  0.00153702  1
  Zn  Zn123  1  -0.00188318  0.25247218  0.25072846  1
  Zn  Zn124  1  0.37670040  0.62297900  0.75099048  1
  Zn  Zn125  1  0.25071303  0.74993245  0.49882212  1
  Zn  Zn126  1  0.87449676  0.49531993  0.37054556  1
  Zn  Zn127  1  0.37682566  0.50190853  0.87256697  1
  Zn  Zn128  1  0.18901754  0.19153671  0.18725232  1
  Zn  Zn129  1  0.18750902  0.18659975  0.68821566  1
  Zn  Zn130  1  0.18881241  0.68745164  0.18948400  1
  Zn  Zn131  1  0.18773109  0.68635639  0.68602621  1
  Zn  Zn132  1  0.68835010  0.18802291  0.18725749  1
  Zn  Zn133  1  0.68653811  0.18596204  0.68753221  1
  Zn  Zn134  1  0.68767144  0.68906484  0.18700826  1
  Zn  Zn135  1  0.68759281  0.68683034  0.68725813  1
  Zn  Zn136  1  0.31046836  0.31339101  0.31269977  1
  Zn  Zn137  1  0.31252203  0.31453584  0.81431481  1
  Zn  Zn138  1  0.31197803  0.81364594  0.31276083  1
  Zn  Zn139  1  0.31507190  0.81215653  0.81130959  1
  Zn  Zn140  1  0.80929762  0.30913196  0.31302632  1
  Zn  Zn141  1  0.81397703  0.31250486  0.81387572  1
  Zn  Zn142  1  0.81142706  0.81318336  0.31261341  1
  Zn  Zn143  1  0.81524945  0.81212420  0.81149085  1
  Zn  Zn144  1  0.18755924  0.43634730  0.43710040  1
  Zn  Zn145  1  0.18746094  0.43887575  0.93640051  1
  Zn  Zn146  1  0.18741822  0.93545079  0.43894717  1
  Zn  Zn147  1  0.18650541  0.93932995  0.93841501  1
  Zn  Zn148  1  0.68996443  0.43597470  0.43409894  1
  Zn  Zn149  1  0.68963587  0.43860751  0.93635213  1
  Zn  Zn150  1  0.68533687  0.93546414  0.43688693  1
  Zn  Zn151  1  0.68689169  0.93722705  0.93686587  1
  Zn  Zn152  1  0.31206913  0.06383766  0.06336839  1
  Zn  Zn153  1  0.31300352  0.06258732  0.56348876  1
  Zn  Zn154  1  0.31462615  0.56291546  0.06207495  1
  Zn  Zn155  1  0.31119655  0.56429027  0.56183728  1
  Zn  Zn156  1  0.81205255  0.06265703  0.06380915  1
  Zn  Zn157  1  0.81248699  0.06166154  0.56342627  1
  Zn  Zn158  1  0.81169743  0.56009864  0.06335140  1
  Zn  Zn159  1  0.81389233  0.56084276  0.56087801  1
  Zn  Zn160  1  0.44035584  0.43670764  0.18962107  1
  Zn  Zn161  1  0.43648065  0.43580374  0.68649849  1
  Zn  Zn162  1  0.43724135  0.93838918  0.18852870  1
  Zn  Zn163  1  0.43697112  0.93555611  0.68818778  1
  Zn  Zn164  1  0.93918426  0.43872400  0.18514569  1
  Zn  Zn165  1  0.93787390  0.43764535  0.68541109  1
  Zn  Zn166  1  0.93685223  0.93894854  0.18763446  1
  Zn  Zn167  1  0.93566805  0.93769666  0.68586881  1
  Zn  Zn168  1  0.05996773  0.06551765  0.31209148  1
  Zn  Zn169  1  0.06271369  0.06275637  0.81370462  1
  Zn  Zn170  1  0.05973254  0.56353759  0.31226695  1
  Zn  Zn171  1  0.06370829  0.56298934  0.81273359  1
  Zn  Zn172  1  0.56084586  0.06142763  0.31300254  1
  Zn  Zn173  1  0.56489013  0.06122493  0.81293065  1
  Zn  Zn174  1  0.56105151  0.56120140  0.31301964  1
  Zn  Zn175  1  0.56628449  0.56377376  0.81318008  1
  Zn  Zn176  1  0.43747573  0.18519965  0.43806407  1
  Zn  Zn177  1  0.43803037  0.18932844  0.93939172  1
  Zn  Zn178  1  0.43863517  0.68346903  0.43875725  1
  Zn  Zn179  1  0.43533402  0.68661150  0.93606498  1
  Zn  Zn180  1  0.93759333  0.18709213  0.43492163  1
  Zn  Zn181  1  0.93762107  0.18857940  0.93731292  1
  Zn  Zn182  1  0.93831184  0.68785273  0.43497505  1
  Zn  Zn183  1  0.93757118  0.68767568  0.93672728  1
  Zn  Zn184  1  0.06233334  0.31367005  0.06373679  1
  Zn  Zn185  1  0.06199802  0.31370843  0.56170437  1
  Zn  Zn186  1  0.06168106  0.81379733  0.06296489  1
  Zn  Zn187  1  0.06377233  0.81381510  0.56059345  1
  Zn  Zn188  1  0.56142594  0.31096521  0.06578066  1
  Zn  Zn189  1  0.56054627  0.31143793  0.56218833  1
  Zn  Zn190  1  0.56465931  0.81240211  0.06081207  1
  Zn  Zn191  1  0.56484809  0.81200155  0.56294738  1
  O  O192  1  0.12044822  0.12117998  0.12058033  1
  O  O193  1  0.11994808  0.11926692  0.62059051  1
  O  O194  1  0.12522183  0.62065318  0.11793783  1
  O  O195  1  0.11874041  0.62038828  0.61880484  1
  O  O196  1  0.61931203  0.11993506  0.11894821  1
  O  O197  1  0.61642631  0.12384508  0.61985840  1
  O  O198  1  0.61165276  0.62495438  0.12209759  1
  O  O199  1  0.62095745  0.61766311  0.61920125  1
  O  O200  1  0.37514643  0.38445306  0.38196837  1
  O  O201  1  0.38218106  0.37817438  0.88400066  1
  O  O202  1  0.37748616  0.88247258  0.37881933  1
  O  O203  1  0.37993983  0.88152873  0.88042469  1
  O  O204  1  0.87567089  0.37381274  0.38253121  1
  O  O205  1  0.88304758  0.37610990  0.88088448  1
  O  O206  1  0.87874488  0.87815239  0.37772684  1
  O  O207  1  0.88295111  0.87619612  0.88113950  1
  O  O208  1  0.25354137  0.00571912  0.37064122  1
  O  O209  1  0.25540679  0.00551322  0.87033644  1
  O  O210  1  0.25904673  0.50018735  0.36996816  1
  O  O211  1  0.24869691  0.50636612  0.86411558  1
  O  O212  1  0.75097244  0.00293307  0.37311695  1
  O  O213  1  0.75167122  0.00692924  0.86891201  1
  O  O214  1  0.75381402  0.50887773  0.37163016  1
  O  O215  1  0.75313578  0.50782016  0.86724211  1
  O  O216  1  0.24627918  0.49654600  0.13005680  1
  O  O217  1  0.24365573  0.49997890  0.63443236  1
  O  O218  1  0.24391563  0.99546306  0.13034129  1
  O  O219  1  0.24536774  0.99579209  0.63212970  1
  O  O220  1  0.74279119  0.49678508  0.12759705  1
  O  O221  1  0.74459041  0.49354625  0.62937229  1
  O  O222  1  0.74219293  0.99285197  0.12377191  1
  O  O223  1  0.74953709  0.98982126  0.63024287  1
  O  O224  1  0.00888984  0.37371536  0.25077116  1
  O  O225  1  0.00508905  0.36952341  0.75429560  1
  O  O226  1  0.00874376  0.87415878  0.25014685  1
  O  O227  1  0.00588059  0.87019454  0.75385018  1
  O  O228  1  0.51021473  0.37062464  0.25386548  1
  O  O229  1  0.50589293  0.36985427  0.75512961  1
  O  O230  1  0.50036533  0.86118843  0.25015556  1
  O  O231  1  0.50094118  0.86564597  0.75547096  1
  O  O232  1  0.49177237  0.12440744  0.24408853  1
  O  O233  1  0.49434535  0.13027627  0.74766672  1
  O  O234  1  0.49775593  0.63353476  0.24124510  1
  O  O235  1  0.49998012  0.63249885  0.74433263  1
  O  O236  1  0.99009545  0.12727663  0.24253190  1
  O  O237  1  0.99613276  0.13042288  0.74509051  1
  O  O238  1  0.98792371  0.62935291  0.24658070  1
  O  O239  1  0.99714490  0.63080009  0.74356683  1
  O  O240  1  0.37486718  0.26480572  0.00115506  1
  O  O241  1  0.36943789  0.25271850  0.50564303  1
  O  O242  1  0.36946877  0.75664050  0.00458131  1
  O  O243  1  0.37681794  0.75018487  0.51277697  1
  O  O244  1  0.87032534  0.25554737  0.00435646  1
  O  O245  1  0.86953703  0.25276981  0.50637536  1
  O  O246  1  0.87088224  0.75591326  0.00715423  1
  O  O247  1  0.86851152  0.74916162  0.50634418  1
  O  O248  1  0.12987510  0.24403026  0.49619926  1
  O  O249  1  0.12612298  0.24490261  0.99312929  1
  O  O250  1  0.12549958  0.74480377  0.49132453  1
  O  O251  1  0.13076089  0.74697391  0.99451272  1
  O  O252  1  0.62832628  0.24459903  0.49449633  1
  O  O253  1  0.62954282  0.24532325  0.99451694  1
  O  O254  1  0.62967341  0.74129456  0.49573382  1
  O  O255  1  0.63443030  0.74686527  0.99772458  1
  O  O256  1  0.49599895  0.23998686  0.12760734  1
  O  O257  1  0.49372137  0.24385215  0.63189814  1
  O  O258  1  0.49545165  0.74395789  0.13042495  1
  O  O259  1  0.49425637  0.74524112  0.63200817  1
  O  O260  1  0.99284711  0.24374356  0.12516592  1
  O  O261  1  0.99530324  0.24418957  0.63038057  1
  O  O262  1  0.98719964  0.74926355  0.12448127  1
  O  O263  1  0.99630685  0.74524909  0.62950403  1
  O  O264  1  0.00964266  0.25176063  0.37279408  1
  O  O265  1  0.00619045  0.25526349  0.86876342  1
  O  O266  1  0.01284076  0.75308061  0.37298446  1
  O  O267  1  0.00644153  0.75611209  0.86866956  1
  O  O268  1  0.51145490  0.25008582  0.37639762  1
  O  O269  1  0.50610393  0.25581873  0.87024903  1
  O  O270  1  0.50391490  0.74659612  0.36602029  1
  O  O271  1  0.49796879  0.75460620  0.86561443  1
  O  O272  1  0.24414150  0.12926150  0.49557899  1
  O  O273  1  0.24363831  0.12653718  0.99379532  1
  O  O274  1  0.24036682  0.62827988  0.49775159  1
  O  O275  1  0.24521757  0.63153803  0.99465670  1
  O  O276  1  0.74203663  0.13076680  0.50288359  1
  O  O277  1  0.74421955  0.13095015  0.99439325  1
  O  O278  1  0.74482253  0.62924140  0.49545090  1
  O  O279  1  0.75225586  0.63086356  0.99104560  1
  O  O280  1  0.26061996  0.37874587  0.00419418  1
  O  O281  1  0.25575682  0.36717535  0.50330859  1
  O  O282  1  0.25481467  0.87087278  0.00462793  1
  O  O283  1  0.25278229  0.87202930  0.51012514  1
  O  O284  1  0.75704576  0.36822269  -0.00174571  1
  O  O285  1  0.75460841  0.36787295  0.50659977  1
  O  O286  1  0.75641964  0.87019303  0.00465088  1
  O  O287  1  0.75004137  0.86727593  0.51004743  1
  O  O288  1  0.13092023  0.49663610  0.24452223  1
  O  O289  1  0.13189646  0.49572571  0.74424957  1
  O  O290  1  0.13017042  0.99718455  0.24489175  1
  O  O291  1  0.13061022  0.99516336  0.74544765  1
  O  O292  1  0.62426661  0.48770797  0.25124901  1
  O  O293  1  0.63133465  0.49372046  0.74362208  1
  O  O294  1  0.62423893  0.99722187  0.24113143  1
  O  O295  1  0.63344309  0.99721403  0.74663082  1
  O  O296  1  0.36812778  0.00502019  0.25605344  1
  O  O297  1  0.37027346  0.00548636  0.75642394  1
  O  O298  1  0.37105302  0.49938349  0.26034339  1
  O  O299  1  0.36375817  0.50048943  0.74991921  1
  O  O300  1  0.87251002  0.01211326  0.24864930  1
  O  O301  1  0.86915980  0.00737699  0.75118927  1
  O  O302  1  0.87297711  0.51224259  0.24798273  1
  O  O303  1  0.86962099  0.50632757  0.74875394  1
  O  O304  1  0.12503587  0.36844620  0.36803681  1
  O  O305  1  0.11976789  0.36983482  0.86925156  1
  O  O306  1  0.12443872  0.86741121  0.36894435  1
  O  O307  1  0.12038831  0.87051570  0.86970191  1
  O  O308  1  0.62381064  0.36401934  0.36921930  1
  O  O309  1  0.62038369  0.36971097  0.86917079  1
  O  O310  1  0.61921757  0.86360613  0.37369797  1
  O  O311  1  0.61651943  0.87098255  0.87322764  1
  O  O312  1  0.38020380  0.12513250  0.13161223  1
  O  O313  1  0.37971734  0.13018115  0.63327467  1
  O  O314  1  0.38653073  0.63196922  0.12413885  1
  O  O315  1  0.38195289  0.63350667  0.62670583  1
  O  O316  1  0.87968004  0.13103077  0.13063923  1
  O  O317  1  0.88076580  0.13095602  0.63127445  1
  O  O318  1  0.87396009  0.63520701  0.13172526  1
  O  O319  1  0.88114126  0.63022802  0.62914068  1
  O  O320  1  0.25358217  0.26071452  0.12085997  1
  O  O321  1  0.25621258  0.24938811  0.62015592  1
  O  O322  1  0.25537455  0.75637514  0.11905972  1
  O  O323  1  0.26042688  0.75438784  0.62685927  1
  O  O324  1  0.75638073  0.25144536  0.11590876  1
  O  O325  1  0.75514960  0.25483206  0.62139433  1
  O  O326  1  0.75821715  0.75570499  0.11809799  1
  O  O327  1  0.75543132  0.75535137  0.62073348  1
  O  O328  1  0.24416454  0.24383399  0.38240466  1
  O  O329  1  0.24376206  0.24406951  0.87632092  1
  O  O330  1  0.23880390  0.74900347  0.37646465  1
  O  O331  1  0.24494233  0.74693622  0.87953759  1
  O  O332  1  0.73765045  0.24530089  0.38330601  1
  O  O333  1  0.74426466  0.24443770  0.87957262  1
  O  O334  1  0.74315201  0.74323654  0.38086576  1
  O  O335  1  0.75153801  0.74290514  0.87878449  1
  O  O336  1  0.00565640  0.12085088  0.00475355  1
  O  O337  1  0.00550711  0.11819747  0.50652582  1
  O  O338  1  0.00762748  0.61983672  -0.00042512  1
  O  O339  1  0.00490174  0.61948651  0.50514552  1
  O  O340  1  0.50494768  0.11970064  0.00492767  1
  O  O341  1  0.50322761  0.11595916  0.50728717  1
  O  O342  1  0.49974277  0.61732378  0.00631602  1
  O  O343  1  0.50727767  0.61719110  0.50701509  1
  O  O344  1  0.49246131  0.38043148  0.49973346  1
  O  O345  1  0.49413298  0.38261311  0.99656852  1
  O  O346  1  0.49825239  0.88582870  0.50206894  1
  O  O347  1  0.49338238  0.88049816  0.99510692  1
  O  O348  1  0.99283221  0.38098544  0.49956142  1
  O  O349  1  0.99609181  0.38098754  0.99392376  1
  O  O350  1  0.99937344  0.88788340  0.50052126  1
  O  O351  1  0.99591973  0.88135991  0.99458601  1
  O  O352  1  0.48984964  0.49823511  0.38274046  1
  O  O353  1  0.50026340  0.49526787  0.88277114  1
  O  O354  1  0.49359821  0.99919990  0.38648431  1
  O  O355  1  0.49405007  0.99592775  0.88062310  1
  O  O356  1  0.99593398  0.49745849  0.38298368  1
  O  O357  1  1.00066865  0.49362738  0.88051068  1
  O  O358  1  1.00010186  1.00091776  0.38769429  1
  O  O359  1  0.99982412  0.99380907  0.88147199  1
  O  O360  1  0.00604190  0.00666454  0.11851307  1
  O  O361  1  0.00619290  0.00532225  0.61892038  1
  O  O362  1  0.00906098  0.50332878  0.11662951  1
  O  O363  1  0.00571219  0.50642955  0.61891353  1
  O  O364  1  0.50422852  0.00487349  0.11847776  1
  O  O365  1  0.49885574  0.00505799  0.61813273  1
  O  O366  1  0.50037241  0.50942569  0.11720864  1
  O  O367  1  0.50592530  0.50391159  0.62104615  1
  O  O368  1  0.24452895  0.38289347  0.24406352  1
  O  O369  1  0.24373098  0.38450566  0.75008351  1
  O  O370  1  0.24439758  0.88216060  0.24334175  1
  O  O371  1  0.24505677  0.88096408  0.74619723  1
  O  O372  1  0.73787772  0.37486556  0.24919524  1
  O  O373  1  0.74541631  0.37899467  0.74471594  1
  O  O374  1  0.74662575  0.87511072  0.23858058  1
  O  O375  1  0.75128591  0.87945294  0.74125803  1
  O  O376  1  0.25417782  0.11935282  0.25573113  1
  O  O377  1  0.25542339  0.11908003  0.75660893  1
  O  O378  1  0.25501354  0.61697234  0.25221119  1
  O  O379  1  0.24874799  0.61545296  0.75480723  1
  O  O380  1  0.76033576  0.12262740  0.24985134  1
  O  O381  1  0.75528763  0.12036658  0.75478753  1
  O  O382  1  0.75839927  0.62631092  0.25495277  1
  O  O383  1  0.75629666  0.62004298  0.75390701  1
  O  O384  1  0.36814717  0.11874280  0.37070480  1
  O  O385  1  0.37059336  0.12043325  0.87135364  1
  O  O386  1  0.37330697  0.61145476  0.37617760  1
  O  O387  1  0.36591904  0.62208025  0.87133701  1
  O  O388  1  0.87241582  0.12408749  0.36348037  1
  O  O389  1  0.86860788  0.12499975  0.86836114  1
  O  O390  1  0.86903049  0.62712194  0.36372197  1
  O  O391  1  0.86895305  0.62421526  0.86633859  1
  O  O392  1  0.13171130  0.38280441  0.12918457  1
  O  O393  1  0.12606268  0.38176646  0.63196892  1
  O  O394  1  0.13072529  0.88177256  0.12923437  1
  O  O395  1  0.13079733  0.88004739  0.63190643  1
  O  O396  1  0.62553522  0.37356256  0.13737271  1
  O  O397  1  0.63034520  0.37843638  0.63055383  1
  O  O398  1  0.63122043  0.88175497  0.12395093  1
  O  O399  1  0.63894908  0.87409655  0.62837266  1
  O  O400  1  0.12508027  0.25747796  0.25645441  1
  O  O401  1  0.11965450  0.25478908  0.75510694  1
  O  O402  1  0.12486979  0.75668420  0.25736340  1
  O  O403  1  0.12061484  0.75567533  0.75459790  1
  O  O404  1  0.62397909  0.25476190  0.26033190  1
  O  O405  1  0.61942353  0.25506768  0.75569800  1
  O  O406  1  0.61437348  0.74929362  0.25538828  1
  O  O407  1  0.61199705  0.75060907  0.74993912  1
  O  O408  1  0.37573671  0.24193926  0.25043659  1
  O  O409  1  0.38021728  0.24516589  0.74693097  1
  O  O410  1  0.38317232  0.74846565  0.24388577  1
  O  O411  1  0.38517580  0.74849994  0.74076413  1
  O  O412  1  0.87476007  0.24085540  0.24296047  1
  O  O413  1  0.88104546  0.24488107  0.74416856  1
  O  O414  1  0.87452970  0.74278910  0.23965964  1
  O  O415  1  0.88276559  0.74417232  0.74249611  1
  O  O416  1  0.37875064  0.49425528  0.49491432  1
  O  O417  1  0.38587024  0.49190296  0.99832861  1
  O  O418  1  0.38379846  1.00071206  0.49613892  1
  O  O419  1  0.37968451  0.99525340  0.99496245  1
  O  O420  1  0.88126576  0.49213192  0.49951476  1
  O  O421  1  0.88310871  0.49375955  0.99824363  1
  O  O422  1  0.88753800  1.00053302  0.50081970  1
  O  O423  1  0.88206786  0.99454567  0.99924123  1
  O  O424  1  0.11972651  0.00700526  0.00616616  1
  O  O425  1  0.11836729  0.00588453  0.50635559  1
  O  O426  1  0.12159718  0.50645399  0.00467667  1
  O  O427  1  0.11942612  0.50475037  0.50466610  1
  O  O428  1  0.61827133  0.00673725  0.00458986  1
  O  O429  1  0.61340341  0.00475618  0.50307041  1
  O  O430  1  0.61192904  0.49987060  0.00150566  1
  O  O431  1  0.62037001  0.50245366  0.50517975  1
  O  O432  1  0.37089564  0.37715250  0.11594049  1
  O  O433  1  0.37260633  0.36654069  0.61959813  1
  O  O434  1  0.36890039  0.87102888  0.11882746  1
  O  O435  1  0.36954352  0.86481630  0.62572882  1
  O  O436  1  0.87415304  0.36844480  0.11766931  1
  O  O437  1  0.86952610  0.36800961  0.61974022  1
  O  O438  1  0.86917549  0.86786140  0.11937820  1
  O  O439  1  0.86510187  0.86821707  0.62324343  1
  O  O440  1  0.13118473  0.13053340  0.38041876  1
  O  O441  1  0.13033264  0.13040448  0.88038108  1
  O  O442  1  0.12510075  0.63484707  0.37944494  1
  O  O443  1  0.13049752  0.63263479  0.88029202  1
  O  O444  1  0.62387128  0.13285644  0.38242174  1
  O  O445  1  0.62984943  0.13122714  0.88102605  1
  O  O446  1  0.62996640  0.62883935  0.38053895  1
  O  O447  1  0.63730663  0.62791216  0.87655797  1
