# generated using pymatgen
data_V3Zn3O8
_symmetry_space_group_name_H-M   'P 1'
_cell_length_a   17.08733829
_cell_length_b   17.08599779
_cell_length_c   17.08857304
_cell_angle_alpha   89.99676598
_cell_angle_beta   89.98663762
_cell_angle_gamma   90.01219425
_symmetry_Int_Tables_number   1
_chemical_formula_structural   V3Zn3O8
_chemical_formula_sum   'V96 Zn96 O256'
_cell_volume   4989.08082727
_cell_formula_units_Z   32
loop_
 _symmetry_equiv_pos_site_id
 _symmetry_equiv_pos_as_xyz
  1  'x, y, z'
loop_
 _atom_site_type_symbol
 _atom_site_label
 _atom_site_symmetry_multiplicity
 _atom_site_fract_x
 _atom_site_fract_y
 _atom_site_fract_z
 _atom_site_occupancy
  V  V0  1  0.37524142  0.74972897  0.12437974  1
  V  V1  1  0.00080158  0.37494262  0.37644564  1
  V  V2  1  0.87418003  0.75097973  0.12509189  1
  V  V3  1  0.50024083  0.62598607  0.62527308  1
  V  V4  1  0.37472351  0.62499599  0.24958771  1
  V  V5  1  0.12552202  0.62471584  0.50036631  1
  V  V6  1  0.87353359  -0.00025084  0.37464979  1
  V  V7  1  0.37615447  0.37461194  0.49960104  1
  V  V8  1  0.25084996  0.62467444  0.37380937  1
  V  V9  1  0.25029067  0.37543253  0.12537706  1
  V  V10  1  0.12609052  0.50041989  0.62502209  1
  V  V11  1  -0.00038346  0.12590528  0.62509303  1
  V  V12  1  0.00153496  0.62420208  0.62518149  1
  V  V13  1  0.87551000  0.12509317  0.74979992  1
  V  V14  1  -0.00025373  0.74985531  0.24954639  1
  V  V15  1  0.24921109  0.62644746  0.87648792  1
  V  V16  1  0.62659488  0.50027674  0.62559454  1
  V  V17  1  0.12451672  0.87483266  0.24966594  1
  V  V18  1  0.49992647  0.37573759  0.87482508  1
  V  V19  1  0.87495512  0.37467835  0.00162464  1
  V  V20  1  0.62590405  0.24937406  0.87542111  1
  V  V21  1  -0.00169446  0.87516507  0.37510115  1
  V  V22  1  0.62560778  0.50047215  0.12475218  1
  V  V23  1  0.00040054  0.00008600  0.00038144  1
  V  V24  1  0.37344087  0.87472669  0.49992043  1
  V  V25  1  0.12359166  -0.00002185  0.62467473  1
  V  V26  1  0.37409605  -0.00059437  0.37458517  1
  V  V27  1  0.37608873  0.62526860  0.74866606  1
  V  V28  1  0.49998761  0.00039309  -0.00021533  1
  V  V29  1  0.75176721  0.37394568  0.62460391  1
  V  V30  1  0.87463629  0.12592817  0.24941361  1
  V  V31  1  0.62321250  0.00134497  0.62405272  1
  V  V32  1  0.87503160  0.62447817  0.75091305  1
  V  V33  1  0.25115783  0.12496061  0.87446470  1
  V  V34  1  0.49971790  0.00041550  0.49990520  1
  V  V35  1  0.62647711  0.74906681  0.87690367  1
  V  V36  1  0.25061104  0.49940175  0.74882314  1
  V  V37  1  0.87590705  0.49948761  0.37642687  1
  V  V38  1  0.37425380  0.87453238  0.00053538  1
  V  V39  1  0.12578499  0.37569669  0.24924968  1
  V  V40  1  0.87488927  0.50060059  0.87582099  1
  V  V41  1  0.87473639  0.87538601  0.49936950  1
  V  V42  1  0.00054236  0.62452105  0.12427244  1
  V  V43  1  0.74993071  0.87556646  0.62514270  1
  V  V44  1  0.49926247  0.87473660  0.87452802  1
  V  V45  1  0.00025594  0.50149937  0.00144648  1
  V  V46  1  0.87454534  0.00000328  0.87445954  1
  V  V47  1  0.49985442  0.75008162  0.74987712  1
  V  V48  1  0.24959869  0.00015105  0.25063221  1
  V  V49  1  0.75147207  0.50000417  0.75121259  1
  V  V50  1  0.12476989  0.12478536  0.00111744  1
  V  V51  1  0.25073229  0.49998074  0.24917072  1
  V  V52  1  0.74831764  0.12587152  0.37516541  1
  V  V53  1  0.62490514  -0.00098365  0.12466089  1
  V  V54  1  0.87485659  0.87515055  0.00063315  1
  V  V55  1  0.00090223  0.37482789  0.87601967  1
  V  V56  1  0.87530307  0.62525576  0.25138014  1
  V  V57  1  0.62640110  0.37467797  0.75039005  1
  V  V58  1  0.00026351  0.75074926  0.75062193  1
  V  V59  1  0.74976075  0.25004509  0.49992800  1
  V  V60  1  0.37412028  0.00098334  0.87431815  1
  V  V61  1  0.62492248  0.37466338  0.25061209  1
  V  V62  1  0.62548235  0.12545689  -0.00105097  1
  V  V63  1  0.87490666  0.74970475  0.62562155  1
  V  V64  1  0.49907522  0.12532148  0.12427317  1
  V  V65  1  -0.00009578  0.24998692  0.75122232  1
  V  V66  1  0.37722701  0.49863261  0.87423667  1
  V  V67  1  0.50057261  0.87398107  0.37447765  1
  V  V68  1  0.24992521  0.75054840  0.49985649  1
  V  V69  1  0.62434559  0.75037508  0.37543656  1
  V  V70  1  0.75099048  0.62421824  0.37632976  1
  V  V71  1  0.49864173  0.24665571  0.74713615  1
  V  V72  1  0.49934121  0.24981277  0.25100947  1
  V  V73  1  0.37430401  0.25047065  0.12419238  1
  V  V74  1  0.12463966  0.74983288  0.37447357  1
  V  V75  1  0.12526014  0.25070906  0.87589708  1
  V  V76  1  0.24948979  0.24950423  0.49992607  1
  V  V77  1  0.62520068  0.62434062  0.50058379  1
  V  V78  1  0.24970769  0.37495274  0.62451767  1
  V  V79  1  0.12359831  0.12538060  0.50017437  1
  V  V80  1  0.25031864  0.25174524  0.00082220  1
  V  V81  1  0.50022041  0.49921625  0.49972027  1
  V  V82  1  0.87444926  0.25055656  0.12495239  1
  V  V83  1  0.24814090  0.12418228  0.37520475  1
  V  V84  1  0.25063023  0.87417457  0.12425104  1
  V  V85  1  0.12472964  0.87538965  0.74949369  1
  V  V86  1  0.75023341  0.25012601  0.00014763  1
  V  V87  1  0.75004154  0.74921075  0.50116788  1
  V  V88  1  0.50112510  0.62522030  0.12419188  1
  V  V89  1  0.24846261  0.87531575  0.62451387  1
  V  V90  1  0.00068441  0.87464811  0.87410132  1
  V  V91  1  -0.00101044  0.25051974  0.24970595  1
  V  V92  1  0.12457404  -0.00021119  0.12473916  1
  V  V93  1  0.74877959  0.00025392  0.24920266  1
  V  V94  1  0.75006391  0.87538283  0.12498699  1
  V  V95  1  0.75017802  0.00030620  0.74946609  1
  Zn  Zn96  1  0.24797991  0.74976963  -0.00089770  1
  Zn  Zn97  1  0.49608468  0.12429042  0.62246039  1
  Zn  Zn98  1  0.62832899  0.62365064  0.00046282  1
  Zn  Zn99  1  0.87620536  0.25139332  0.62538004  1
  Zn  Zn100  1  -0.00006363  0.12498488  0.12576404  1
  Zn  Zn101  1  0.25065710  0.00142906  0.74932808  1
  Zn  Zn102  1  0.37517798  0.75110145  0.62482904  1
  Zn  Zn103  1  0.87684169  0.37484359  0.50248236  1
  Zn  Zn104  1  0.74990049  0.62524108  0.87831603  1
  Zn  Zn105  1  0.62335008  0.24942035  0.37561836  1
  Zn  Zn106  1  0.49992716  0.37549096  0.37589213  1
  Zn  Zn107  1  0.62402150  0.87347491  0.24958167  1
  Zn  Zn108  1  0.62153332  0.12662325  0.49739811  1
  Zn  Zn109  1  0.37415461  0.24533734  0.62484443  1
  Zn  Zn110  1  0.50101248  0.49842466  -0.00176122  1
  Zn  Zn111  1  0.12576299  0.37471037  0.75003386  1
  Zn  Zn112  1  0.75051480  0.12430021  0.87435363  1
  Zn  Zn113  1  0.00150971  0.49835817  0.50203460  1
  Zn  Zn114  1  0.37706566  0.50025793  0.37404408  1
  Zn  Zn115  1  0.12672266  0.50268063  0.12254748  1
  Zn  Zn116  1  0.50168651  0.75114634  0.25027497  1
  Zn  Zn117  1  0.12441852  0.62683867  -0.00004935  1
  Zn  Zn118  1  0.37320632  0.12307579  0.74716814  1
  Zn  Zn119  1  0.12459615  0.24929045  0.37439535  1
  Zn  Zn120  1  0.62433716  0.87560287  0.75042881  1
  Zn  Zn121  1  -0.00241512  0.00189859  0.49954300  1
  Zn  Zn122  1  0.75052645  0.37674053  0.12567191  1
  Zn  Zn123  1  0.74943629  0.49895513  0.25093436  1
  Zn  Zn124  1  0.74962276  0.74838220  0.00077505  1
  Zn  Zn125  1  0.37352125  0.12450890  0.24995324  1
  Zn  Zn126  1  0.37630181  0.37619041  -0.00024559  1
  Zn  Zn127  1  0.12585419  0.75048884  0.87594292  1
  Zn  Zn128  1  0.18623799  0.18784976  0.18847594  1
  Zn  Zn129  1  0.18708991  0.18782217  0.68812542  1
  Zn  Zn130  1  0.18762490  0.68724034  0.18568662  1
  Zn  Zn131  1  0.18798087  0.68901044  0.68863438  1
  Zn  Zn132  1  0.68765395  0.18753049  0.18541274  1
  Zn  Zn133  1  0.68778047  0.18579319  0.68672127  1
  Zn  Zn134  1  0.68895634  0.68799839  0.19097633  1
  Zn  Zn135  1  0.68746350  0.68728008  0.69087922  1
  Zn  Zn136  1  0.31236532  0.31182091  0.31384546  1
  Zn  Zn137  1  0.31334394  0.31226832  0.81230493  1
  Zn  Zn138  1  0.31368725  0.81131759  0.31101588  1
  Zn  Zn139  1  0.31274865  0.81287279  0.81051011  1
  Zn  Zn140  1  0.81129597  0.31241150  0.31273997  1
  Zn  Zn141  1  0.81366528  0.31206209  0.81398958  1
  Zn  Zn142  1  0.81048893  0.81281458  0.31178447  1
  Zn  Zn143  1  0.81157922  0.81403311  0.81199694  1
  Zn  Zn144  1  0.18858689  0.43892799  0.43690718  1
  Zn  Zn145  1  0.18723019  0.43905191  0.93863672  1
  Zn  Zn146  1  0.18518567  0.93884379  0.43865355  1
  Zn  Zn147  1  0.18784587  0.93770084  0.93675459  1
  Zn  Zn148  1  0.68733309  0.43560849  0.43702599  1
  Zn  Zn149  1  0.68798334  0.43652054  0.93865982  1
  Zn  Zn150  1  0.68673360  0.93724407  0.43765837  1
  Zn  Zn151  1  0.68795652  0.93612966  0.93734874  1
  Zn  Zn152  1  0.31233468  0.06314060  0.06204766  1
  Zn  Zn153  1  0.31182387  0.06248373  0.56343083  1
  Zn  Zn154  1  0.31518793  0.55990342  0.06058135  1
  Zn  Zn155  1  0.31341295  0.56236751  0.56199687  1
  Zn  Zn156  1  0.81240976  0.06391170  0.06233947  1
  Zn  Zn157  1  0.81180555  0.06443323  0.56249407  1
  Zn  Zn158  1  0.81102804  0.56419411  0.06215494  1
  Zn  Zn159  1  0.81388780  0.56131478  0.56315307  1
  Zn  Zn160  1  0.43698445  0.43771820  0.18670592  1
  Zn  Zn161  1  0.43787749  0.43627543  0.68668339  1
  Zn  Zn162  1  0.43761753  0.93682124  0.18892779  1
  Zn  Zn163  1  0.43591329  0.93653916  0.68849773  1
  Zn  Zn164  1  0.93823320  0.43794339  0.18806761  1
  Zn  Zn165  1  0.93861623  0.43640954  0.68870835  1
  Zn  Zn166  1  0.93711578  0.93834197  0.18744810  1
  Zn  Zn167  1  0.93796964  0.93871285  0.68684557  1
  Zn  Zn168  1  0.06116182  0.06256910  0.31305745  1
  Zn  Zn169  1  0.06359604  0.06238720  0.81231128  1
  Zn  Zn170  1  0.06390655  0.56132220  0.31074236  1
  Zn  Zn171  1  0.06380154  0.56121501  0.81211969  1
  Zn  Zn172  1  0.56292827  0.06244441  0.31238213  1
  Zn  Zn173  1  0.56286783  0.06287962  0.81223633  1
  Zn  Zn174  1  0.56099752  0.56224640  0.31282094  1
  Zn  Zn175  1  0.56355078  0.56379099  0.81194569  1
  Zn  Zn176  1  0.43547815  0.18569669  0.43697657  1
  Zn  Zn177  1  0.43693838  0.18864542  0.93613357  1
  Zn  Zn178  1  0.43717065  0.68790998  0.43770772  1
  Zn  Zn179  1  0.43769131  0.68706225  0.93855158  1
  Zn  Zn180  1  0.93514229  0.18809980  0.43778881  1
  Zn  Zn181  1  0.93747450  0.18632554  0.93767010  1
  Zn  Zn182  1  0.93886952  0.68755882  0.43926020  1
  Zn  Zn183  1  0.93709195  0.68827675  0.93795925  1
  Zn  Zn184  1  0.06275079  0.31336494  0.06409860  1
  Zn  Zn185  1  0.06420638  0.31137868  0.56310433  1
  Zn  Zn186  1  0.06387658  0.81027423  0.05988227  1
  Zn  Zn187  1  0.06163464  0.81242311  0.56201124  1
  Zn  Zn188  1  0.56179975  0.31331540  0.06205238  1
  Zn  Zn189  1  0.56441178  0.31283480  0.56352327  1
  Zn  Zn190  1  0.56234842  0.81259245  0.06149911  1
  Zn  Zn191  1  0.56180352  0.81382444  0.56205837  1
  O  O192  1  0.12371116  0.11783832  0.11886126  1
  O  O193  1  0.11922627  0.11981712  0.61978155  1
  O  O194  1  0.11572958  0.62371563  0.12329214  1
  O  O195  1  0.12102748  0.62053398  0.61999580  1
  O  O196  1  0.61879945  0.11908825  0.11844341  1
  O  O197  1  0.62345603  0.11073597  0.62250805  1
  O  O198  1  0.61729180  0.61713237  0.12854190  1
  O  O199  1  0.62095240  0.61957150  0.62002959  1
  O  O200  1  0.37605009  0.37678833  0.38828588  1
  O  O201  1  0.38253199  0.38209191  0.87375490  1
  O  O202  1  0.37928020  0.87981062  0.38049130  1
  O  O203  1  0.37983849  0.88026905  0.88096319  1
  O  O204  1  0.88358682  0.38377587  0.37399625  1
  O  O205  1  0.88145458  0.38074723  0.88170887  1
  O  O206  1  0.87863865  0.87938756  0.37980129  1
  O  O207  1  0.88084133  0.88066186  0.87997828  1
  O  O208  1  0.25408859  0.00365991  0.37002065  1
  O  O209  1  0.25663629  0.00723565  0.87516802  1
  O  O210  1  0.25208676  0.50772719  0.36772932  1
  O  O211  1  0.25655740  0.50666761  0.86845497  1
  O  O212  1  0.75459757  0.00491093  0.36935954  1
  O  O213  1  0.75659798  -0.00021120  0.86794090  1
  O  O214  1  0.75963811  0.50532516  0.37516702  1
  O  O215  1  0.75680364  0.49965401  0.86835213  1
  O  O216  1  0.25021025  0.49375828  0.13127824  1
  O  O217  1  0.24540072  0.49549266  0.62953255  1
  O  O218  1  0.24456173  0.99410891  0.13043845  1
  O  O219  1  0.24117399  0.99267810  0.62529620  1
  O  O220  1  0.73832666  0.49947003  0.12944795  1
  O  O221  1  0.74550897  0.49485307  0.63063167  1
  O  O222  1  0.74468492  0.99563792  0.12960296  1
  O  O223  1  0.74243025  0.99499588  0.62861741  1
  O  O224  1  0.00491830  0.37083978  0.25798445  1
  O  O225  1  0.00164987  0.36834219  0.75847696  1
  O  O226  1  0.00472119  0.86932391  0.25530204  1
  O  O227  1  0.00406666  0.86994974  0.75434828  1
  O  O228  1  0.50687706  0.36590857  0.24974460  1
  O  O229  1  0.50722345  0.36718825  0.75404454  1
  O  O230  1  0.50244740  0.87281730  0.25883743  1
  O  O231  1  0.50063214  0.86787602  0.75732398  1
  O  O232  1  0.49943052  0.13451680  0.24313132  1
  O  O233  1  0.49984669  0.13665609  0.74931533  1
  O  O234  1  0.49408205  0.62573100  0.23951263  1
  O  O235  1  0.49517423  0.62999873  0.74386210  1
  O  O236  1  0.99250559  0.13212604  0.24996816  1
  O  O237  1  0.99535270  0.13026831  0.74520656  1
  O  O238  1  0.99477320  0.63113300  0.24587116  1
  O  O239  1  0.99498118  0.63028781  0.74430263  1
  O  O240  1  0.36788748  0.25175706  0.00630195  1
  O  O241  1  0.36950364  0.25920042  0.50136569  1
  O  O242  1  0.37372845  0.75721159  0.00650195  1
  O  O243  1  0.36737230  0.75691118  0.50096999  1
  O  O244  1  0.87068186  0.25480207  0.00489038  1
  O  O245  1  0.86176259  0.25262100  0.50175630  1
  O  O246  1  0.87520779  0.75841900  0.00756783  1
  O  O247  1  0.86933704  0.75448967  0.50610832  1
  O  O248  1  0.13176952  0.24322204  0.49700093  1
  O  O249  1  0.13021885  0.24462230  0.99570613  1
  O  O250  1  0.12998763  0.74493173  0.49353242  1
  O  O251  1  0.12976900  0.74544853  0.99379051  1
  O  O252  1  0.63618652  0.24909346  0.49798143  1
  O  O253  1  0.62984888  0.24506821  0.99547190  1
  O  O254  1  0.63123909  0.74348870  0.49612353  1
  O  O255  1  0.62527905  0.74905600  0.98834159  1
  O  O256  1  0.49490591  0.24518443  0.13212487  1
  O  O257  1  0.50175685  0.24885199  0.63631679  1
  O  O258  1  0.49533229  0.74090618  0.12634957  1
  O  O259  1  0.50031331  0.74351643  0.63095097  1
  O  O260  1  0.99263479  0.24903316  0.13216909  1
  O  O261  1  0.99932469  0.24410280  0.63255676  1
  O  O262  1  0.99371752  0.74580290  0.13121336  1
  O  O263  1  0.99397657  0.74452529  0.63041806  1
  O  O264  1  -0.00180386  0.26080501  0.36877000  1
  O  O265  1  0.00578429  0.25514427  0.87183161  1
  O  O266  1  0.00483269  0.75498599  0.36922684  1
  O  O267  1  -0.00061230  0.75738067  0.86728659  1
  O  O268  1  0.50081452  0.25065491  0.36237943  1
  O  O269  1  0.50623296  0.25536874  0.86652003  1
  O  O270  1  0.50711337  0.75579978  0.37596267  1
  O  O271  1  0.50660172  0.75454917  0.87020361  1
  O  O272  1  0.24344276  0.12973386  0.49471935  1
  O  O273  1  0.24376086  0.13132779  0.99508440  1
  O  O274  1  0.24493290  0.63055270  0.49433846  1
  O  O275  1  0.25171683  0.62442342  0.98698846  1
  O  O276  1  0.74859868  0.13410645  0.49395524  1
  O  O277  1  0.74325004  0.13155462  0.99790007  1
  O  O278  1  0.74502042  0.62992511  0.49650371  1
  O  O279  1  0.74655276  0.63049071  0.99635513  1
  O  O280  1  0.25088030  0.36861624  0.00694908  1
  O  O281  1  0.25750804  0.37075263  0.50413430  1
  O  O282  1  0.25699451  0.87527697  0.00704133  1
  O  O283  1  0.25336929  0.86970645  0.50394045  1
  O  O284  1  0.75722036  0.36796340  0.00217525  1
  O  O285  1  0.75072395  0.36663322  0.50555576  1
  O  O286  1  0.75783827  0.87427614  0.00736696  1
  O  O287  1  0.75577299  0.86832488  0.50527597  1
  O  O288  1  0.13270679  0.49356613  0.24741526  1
  O  O289  1  0.13286424  0.49829962  0.74252124  1
  O  O290  1  0.12938039  0.99353874  0.24508731  1
  O  O291  1  0.12541019  0.99291071  0.74249882  1
  O  O292  1  0.62377773  0.49126426  0.24244846  1
  O  O293  1  0.63146025  0.49468262  0.74471969  1
  O  O294  1  0.63142639  0.99912151  0.24184858  1
  O  O295  1  0.63008429  0.99818757  0.74101706  1
  O  O296  1  0.36723451  0.00059300  0.25657473  1
  O  O297  1  0.37270026  0.00128156  0.75992497  1
  O  O298  1  0.36877823  0.50662862  0.25136786  1
  O  O299  1  0.37052198  0.50559974  0.75402257  1
  O  O300  1  0.86848738  0.00580506  0.25487605  1
  O  O301  1  0.87025172  0.00495789  0.75485679  1
  O  O302  1  0.87436184  0.50592156  0.26125891  1
  O  O303  1  0.87079366  0.50501076  0.75599121  1
  O  O304  1  0.11511720  0.37564746  0.36933031  1
  O  O305  1  0.11872969  0.36844693  0.87461495  1
  O  O306  1  0.11892142  0.86945873  0.36942400  1
  O  O307  1  0.11796194  0.87536789  0.86775346  1
  O  O308  1  0.62180537  0.37321505  0.36278745  1
  O  O309  1  0.62014916  0.36941478  0.86870106  1
  O  O310  1  0.61875521  0.86800005  0.37573124  1
  O  O311  1  0.61746005  0.86673667  0.87406716  1
  O  O312  1  0.38139655  0.13159226  0.12677902  1
  O  O313  1  0.37814292  0.12742234  0.62913756  1
  O  O314  1  0.38283228  0.62899583  0.12931713  1
  O  O315  1  0.38211253  0.62652001  0.63073529  1
  O  O316  1  0.87665902  0.13183279  0.13173031  1
  O  O317  1  0.88167413  0.12632279  0.63213642  1
  O  O318  1  0.88022469  0.63084426  0.13233877  1
  O  O319  1  0.88084231  0.63010399  0.63040224  1
  O  O320  1  0.25483422  0.25502952  0.12072542  1
  O  O321  1  0.25026654  0.25714091  0.61785521  1
  O  O322  1  0.25728652  0.75681945  0.12386950  1
  O  O323  1  0.25041621  0.75693370  0.61709263  1
  O  O324  1  0.75624391  0.25214371  0.11780918  1
  O  O325  1  0.75012562  0.25545605  0.61680545  1
  O  O326  1  0.75708423  0.75725606  0.12609821  1
  O  O327  1  0.75514550  0.75450080  0.62075602  1
  O  O328  1  0.24817996  0.24266849  0.38156499  1
  O  O329  1  0.24496613  0.24569807  0.88112056  1
  O  O330  1  0.24330013  0.74512353  0.37945468  1
  O  O331  1  0.25122556  0.73767347  0.87424400  1
  O  O332  1  0.74855755  0.24466549  0.38317517  1
  O  O333  1  0.74320143  0.24861800  0.88169681  1
  O  O334  1  0.74596544  0.74408103  0.38257671  1
  O  O335  1  0.73843824  0.75060811  0.87470990  1
  O  O336  1  0.00698179  0.11783664  0.00149975  1
  O  O337  1  0.00488053  0.12555626  0.50607471  1
  O  O338  1  -0.00205544  0.61856958  0.00695696  1
  O  O339  1  0.00790553  0.62460307  0.50725681  1
  O  O340  1  0.50568109  0.12024716  0.00488910  1
  O  O341  1  0.50197239  0.11650337  0.50110944  1
  O  O342  1  0.50234137  0.62261646  0.01385015  1
  O  O343  1  0.50610123  0.61977384  0.50586933  1
  O  O344  1  0.49232922  0.37961185  0.50079342  1
  O  O345  1  0.49840581  0.37553961  0.98945601  1
  O  O346  1  0.49316952  0.88026870  0.49406929  1
  O  O347  1  0.49358650  0.88145403  0.99484564  1
  O  O348  1  0.99909758  0.37556528  0.48870669  1
  O  O349  1  0.99410738  0.38044371  0.99543051  1
  O  O350  1  0.99213100  0.87510699  0.49265032  1
  O  O351  1  0.99466074  0.88109942  0.99439382  1
  O  O352  1  0.49749737  0.49781130  0.38435129  1
  O  O353  1  0.49540340  0.49342927  0.87265012  1
  O  O354  1  0.49425787  0.99457440  0.37976179  1
  O  O355  1  0.49545257  0.99482495  0.88101933  1
  O  O356  1  0.99286918  0.49196157  0.37532344  1
  O  O357  1  0.99408180  0.49489279  0.88025823  1
  O  O358  1  0.99130820  0.99257450  0.37521489  1
  O  O359  1  0.99449155  0.99410931  0.88033625  1
  O  O360  1  0.00693723  0.00055848  0.11877594  1
  O  O361  1  0.00544326  0.00733969  0.62246515  1
  O  O362  1  -0.00034184  0.50706821  0.11932486  1
  O  O363  1  0.00691774  0.50641539  0.62459259  1
  O  O364  1  0.50436418  0.00500147  0.11912047  1
  O  O365  1  0.50895056  -0.00264070  0.61935798  1
  O  O366  1  0.50839510  0.50834127  0.12509474  1
  O  O367  1  0.50753968  0.50559542  0.62059930  1
  O  O368  1  0.24553568  0.37962659  0.24563222  1
  O  O369  1  0.24996871  0.38143429  0.74261910  1
  O  O370  1  0.24365851  0.88002356  0.24473234  1
  O  O371  1  0.24274359  0.87605199  0.74259437  1
  O  O372  1  0.73758166  0.37576679  0.24765699  1
  O  O373  1  0.74546483  0.37966131  0.74510934  1
  O  O374  1  0.74897547  0.88302188  0.24322649  1
  O  O375  1  0.74896483  0.88242446  0.74158646  1
  O  O376  1  0.24956372  0.11759552  0.25656834  1
  O  O377  1  0.25102532  0.12361552  0.75993507  1
  O  O378  1  0.25496084  0.62035807  0.25444722  1
  O  O379  1  0.25646424  0.61962246  0.75628471  1
  O  O380  1  0.75505142  0.12035299  0.25469421  1
  O  O381  1  0.75694640  0.11794851  0.75125054  1
  O  O382  1  0.75802027  0.62323958  0.25946843  1
  O  O383  1  0.75772619  0.61749801  0.75143145  1
  O  O384  1  0.36636930  0.11672960  0.37293542  1
  O  O385  1  0.36836722  0.11832612  0.87540438  1
  O  O386  1  0.36797731  0.62495581  0.36837694  1
  O  O387  1  0.36961633  0.61907267  0.86834579  1
  O  O388  1  0.86821609  0.11943535  0.36890345  1
  O  O389  1  0.87453186  0.11697034  0.86837594  1
  O  O390  1  0.87204154  0.61818460  0.37175684  1
  O  O391  1  0.87497516  0.61853064  0.86763547  1
  O  O392  1  0.13234651  0.37709972  0.13220318  1
  O  O393  1  0.13221036  0.38246848  0.62567671  1
  O  O394  1  0.13010886  0.87968351  0.13071756  1
  O  O395  1  0.12821997  0.87997238  0.62910791  1
  O  O396  1  0.62356341  0.38385893  0.13370035  1
  O  O397  1  0.63188856  0.38179988  0.63122774  1
  O  O398  1  0.63117391  0.88181502  0.12498207  1
  O  O399  1  0.63124328  0.88496919  0.62521064  1
  O  O400  1  0.11773022  0.25727290  0.25266612  1
  O  O401  1  0.11788419  0.25138303  0.75855639  1
  O  O402  1  0.11944543  0.75568593  0.25530363  1
  O  O403  1  0.11713056  0.75732665  0.75105588  1
  O  O404  1  0.61530072  0.25828260  0.24653067  1
  O  O405  1  0.61914930  0.25491174  0.75492195  1
  O  O406  1  0.62330219  0.75225610  0.26045706  1
  O  O407  1  0.61861987  0.75198084  0.75926670  1
  O  O408  1  0.38451130  0.24939578  0.24393575  1
  O  O409  1  0.38784480  0.24987948  0.74842658  1
  O  O410  1  0.37723782  0.74281354  0.24231195  1
  O  O411  1  0.38264781  0.74328401  0.74770780  1
  O  O412  1  0.87883607  0.24554633  0.24490857  1
  O  O413  1  0.88208738  0.24283128  0.75059493  1
  O  O414  1  0.88081354  0.74510861  0.24589571  1
  O  O415  1  0.87998396  0.74522398  0.74397324  1
  O  O416  1  0.38126974  0.49065146  0.49992042  1
  O  O417  1  0.38000409  0.49654325  0.98951302  1
  O  O418  1  0.37928522  0.99347053  0.49360515  1
  O  O419  1  0.38128204  0.99458256  0.99518120  1
  O  O420  1  0.87859598  0.49892045  0.48792221  1
  O  O421  1  0.88006656  0.49417486  0.99541383  1
  O  O422  1  0.87402827  0.99326831  0.49265799  1
  O  O423  1  0.88042678  0.99513541  0.99496433  1
  O  O424  1  0.11979544  0.00472469  0.00554644  1
  O  O425  1  0.12076530  0.00687021  0.50651399  1
  O  O426  1  0.11535788  0.50400679  0.00186481  1
  O  O427  1  0.12481903  0.50770282  0.50644249  1
  O  O428  1  0.61925628  0.00509397  0.00463131  1
  O  O429  1  0.61914046  -0.00026975  0.50891332  1
  O  O430  1  0.62257511  0.50008841  0.01231916  1
  O  O431  1  0.62126924  0.50483173  0.50621601  1
  O  O432  1  0.36843309  0.36816897  0.12352078  1
  O  O433  1  0.36926473  0.37396273  0.61379467  1
  O  O434  1  0.37035795  0.87026315  0.12009807  1
  O  O435  1  0.36728600  0.87418084  0.61732267  1
  O  O436  1  0.87353554  0.36918498  0.11976822  1
  O  O437  1  0.86768294  0.37336122  0.62272978  1
  O  O438  1  0.87014089  0.87071001  0.12037269  1
  O  O439  1  0.86998299  0.86928414  0.61947885  1
  O  O440  1  0.13023049  0.12514761  0.38188958  1
  O  O441  1  0.13044762  0.13041055  0.88205659  1
  O  O442  1  0.13012625  0.63101279  0.37922943  1
  O  O443  1  0.13809418  0.62544749  0.87348395  1
  O  O444  1  0.63378437  0.12769326  0.37600804  1
  O  O445  1  0.62642590  0.13126143  0.88216112  1
  O  O446  1  0.63111942  0.62884083  0.38173411  1
  O  O447  1  0.62519579  0.63622796  0.87668016  1
