# generated using pymatgen
data_V3Zn3O8
_symmetry_space_group_name_H-M   'P 1'
_cell_length_a   17.08758858
_cell_length_b   17.08808750
_cell_length_c   17.08771075
_cell_angle_alpha   89.99638706
_cell_angle_beta   89.99169066
_cell_angle_gamma   89.98551652
_symmetry_Int_Tables_number   1
_chemical_formula_structural   V3Zn3O8
_chemical_formula_sum   'V96 Zn96 O256'
_cell_volume   4989.51235966
_cell_formula_units_Z   32
loop_
 _symmetry_equiv_pos_site_id
 _symmetry_equiv_pos_as_xyz
  1  'x, y, z'
loop_
 _atom_site_type_symbol
 _atom_site_label
 _atom_site_symmetry_multiplicity
 _atom_site_fract_x
 _atom_site_fract_y
 _atom_site_fract_z
 _atom_site_occupancy
  V  V0  1  0.00133947  0.37589871  0.37607221  1
  V  V1  1  0.12528238  0.37508094  0.75066539  1
  V  V2  1  0.12459602  0.87690527  0.75181823  1
  V  V3  1  0.37516361  0.50058633  0.87396352  1
  V  V4  1  0.49975814  -0.00093941  -0.00061995  1
  V  V5  1  0.37651540  0.24979151  0.62531097  1
  V  V6  1  0.12408161  0.00156122  0.62437845  1
  V  V7  1  0.50107306  0.37422593  0.37429657  1
  V  V8  1  0.74977236  0.87501856  0.62421130  1
  V  V9  1  0.87600461  0.62590714  0.75098894  1
  V  V10  1  0.00092696  0.62504764  0.62632356  1
  V  V11  1  0.74927548  0.75044758  0.49954814  1
  V  V12  1  0.87533271  0.49996679  0.87657227  1
  V  V13  1  0.62317139  0.87314119  0.24872316  1
  V  V14  1  0.37392098  0.75070076  0.62464317  1
  V  V15  1  0.12575611  0.25145736  0.37519710  1
  V  V16  1  0.62633992  0.37669670  0.74868492  1
  V  V17  1  0.25145593  0.12557884  0.37498545  1
  V  V18  1  0.87509968  0.62495185  0.25055876  1
  V  V19  1  0.50098296  0.50020396  -0.00060051  1
  V  V20  1  0.75178680  0.25129304  0.50005738  1
  V  V21  1  0.87443169  0.74844349  0.12572408  1
  V  V22  1  0.24947704  0.75105277  0.50048944  1
  V  V23  1  0.37492727  0.25061817  0.12366292  1
  V  V24  1  0.12427267  0.25038540  0.87497302  1
  V  V25  1  -0.00065644  0.25162064  0.75004952  1
  V  V26  1  0.74961325  0.62499396  0.37631499  1
  V  V27  1  0.87520894  0.87482119  -0.00067406  1
  V  V28  1  0.00066245  0.75143333  0.75199648  1
  V  V29  1  0.62476539  0.87494951  0.74977941  1
  V  V30  1  0.37439188  0.00011722  0.87361531  1
  V  V31  1  0.87469221  0.37472751  0.00090508  1
  V  V32  1  0.75036872  0.74856580  0.00000131  1
  V  V33  1  0.62430983  0.74823217  0.37508515  1
  V  V34  1  0.37520842  0.00068710  0.37467258  1
  V  V35  1  0.25080546  0.25085547  0.49984902  1
  V  V36  1  0.24960215  0.49996299  0.24947766  1
  V  V37  1  0.37505258  0.62447299  0.24955361  1
  V  V38  1  0.87536793  0.87736715  0.49912777  1
  V  V39  1  0.75037897  0.00073255  0.74962720  1
  V  V40  1  -0.00123467  0.74949127  0.25081749  1
  V  V41  1  0.62597691  0.12476318  0.49855668  1
  V  V42  1  0.75074203  0.49809934  0.25097709  1
  V  V43  1  0.62290131  -0.00167759  0.12317781  1
  V  V44  1  0.50052330  0.25002392  0.74957125  1
  V  V45  1  0.75021627  0.37361355  0.12623759  1
  V  V46  1  0.12469280  0.12625142  0.50100540  1
  V  V47  1  0.50083178  0.50028968  0.49984875  1
  V  V48  1  0.50109053  0.62484704  0.62380706  1
  V  V49  1  0.62485059  0.62382864  -0.00021429  1
  V  V50  1  0.25000421  0.62576268  0.37524113  1
  V  V51  1  0.37559921  0.37483001  -0.00009820  1
  V  V52  1  0.49846018  0.12266448  0.12356958  1
  V  V53  1  0.87377544  0.25098108  0.62505964  1
  V  V54  1  0.50009689  -0.00045303  0.49908073  1
  V  V55  1  0.74854059  0.87331060  0.12443905  1
  V  V56  1  0.49940003  0.74860841  0.25018732  1
  V  V57  1  0.12447455  0.62546419  0.50123631  1
  V  V58  1  0.49810993  0.87466337  0.37497047  1
  V  V59  1  0.37510976  0.12493218  0.24954901  1
  V  V60  1  0.37419741  0.62462254  0.74937287  1
  V  V61  1  0.25048540  0.12516061  0.87446851  1
  V  V62  1  0.87634748  -0.00042777  0.87652076  1
  V  V63  1  0.75084048  0.00015084  0.25111633  1
  V  V64  1  0.12609113  0.62600130  -0.00262450  1
  V  V65  1  0.87406242  0.12540093  0.75030347  1
  V  V66  1  0.62446401  -0.00015489  0.62455473  1
  V  V67  1  -0.00053109  0.49880124  0.00087991  1
  V  V68  1  0.74962025  0.50036602  0.74947735  1
  V  V69  1  0.74955232  0.24782047  0.00048914  1
  V  V70  1  0.50023224  0.37486698  0.87427912  1
  V  V71  1  0.24801536  0.87585428  0.12500011  1
  V  V72  1  0.00045394  0.50131836  0.50057815  1
  V  V73  1  0.62586116  0.24891061  0.37458678  1
  V  V74  1  0.12538235  0.87532104  0.25027037  1
  V  V75  1  0.87629135  0.50009752  0.37643747  1
  V  V76  1  0.37565355  0.37483325  0.49917545  1
  V  V77  1  0.50006306  0.62376633  0.12408570  1
  V  V78  1  0.37358872  0.87374524  -0.00073940  1
  V  V79  1  -0.00022230  0.87574056  0.37610108  1
  V  V80  1  0.25025699  0.37541873  0.62543304  1
  V  V81  1  0.37507215  0.49973361  0.37430790  1
  V  V82  1  0.12130869  0.12410589  0.00261439  1
  V  V83  1  0.62629662  0.37379153  0.25048113  1
  V  V84  1  0.49969536  0.87479876  0.87358332  1
  V  V85  1  0.12559902  0.49886544  0.12578516  1
  V  V86  1  0.62482037  0.75075659  0.87390437  1
  V  V87  1  0.25025038  0.49973908  0.75018478  1
  V  V88  1  0.75019902  0.62511184  0.87503658  1
  V  V89  1  0.12477615  0.75058828  0.37543817  1
  V  V90  1  0.24940596  0.87587548  0.62440139  1
  V  V91  1  0.00001321  0.24802726  0.24905788  1
  V  V92  1  0.37422643  0.74975302  0.12390871  1
  V  V93  1  0.49994806  0.12535486  0.62510251  1
  V  V94  1  0.00029925  0.12608582  0.62400115  1
  V  V95  1  0.62516352  0.24948184  0.87535127  1
  Zn  Zn96  1  0.25115031  0.00097774  0.74850793  1
  Zn  Zn97  1  0.37407197  0.87598482  0.50045501  1
  Zn  Zn98  1  0.50205851  0.24897323  0.24974116  1
  Zn  Zn99  1  0.62639856  0.62373754  0.50068045  1
  Zn  Zn100  1  0.24829655  0.25298987  0.00015714  1
  Zn  Zn101  1  0.62453919  0.12337174  -0.00149991  1
  Zn  Zn102  1  0.87567506  0.37666240  0.50256265  1
  Zn  Zn103  1  0.12734874  0.37473302  0.24964319  1
  Zn  Zn104  1  0.74849754  0.12494676  0.87552934  1
  Zn  Zn105  1  0.75214429  0.12353205  0.37344014  1
  Zn  Zn106  1  0.24860798  0.00103750  0.25050687  1
  Zn  Zn107  1  0.62515679  0.49851479  0.12528324  1
  Zn  Zn108  1  0.87652949  0.00215685  0.37262066  1
  Zn  Zn109  1  0.37483862  0.12432905  0.74969234  1
  Zn  Zn110  1  0.00237343  0.87521086  0.87891702  1
  Zn  Zn111  1  0.87532739  0.12444302  0.24978216  1
  Zn  Zn112  1  0.87688916  0.24684612  0.12566306  1
  Zn  Zn113  1  0.49934764  0.75034281  0.74871970  1
  Zn  Zn114  1  0.12536563  0.50009034  0.62615158  1
  Zn  Zn115  1  0.75050017  0.37868075  0.62473696  1
  Zn  Zn116  1  -0.00005443  0.37459356  0.87540513  1
  Zn  Zn117  1  0.12244126  0.00082628  0.12718197  1
  Zn  Zn118  1  0.12803964  0.75165741  0.87704628  1
  Zn  Zn119  1  0.24925183  0.74911606  -0.00294448  1
  Zn  Zn120  1  -0.00141840  0.00245869  0.49785801  1
  Zn  Zn121  1  0.25195872  0.37560965  0.12470770  1
  Zn  Zn122  1  -0.00063468  0.62436883  0.12587034  1
  Zn  Zn123  1  -0.00190415  0.12155270  0.12755856  1
  Zn  Zn124  1  0.87429326  0.75137216  0.62619344  1
  Zn  Zn125  1  0.25112394  0.62742839  0.87403225  1
  Zn  Zn126  1  0.62766138  0.50019163  0.62310536  1
  Zn  Zn127  1  -0.00051204  -0.00215225  0.00499359  1
  Zn  Zn128  1  0.18806236  0.18858612  0.18851719  1
  Zn  Zn129  1  0.18750119  0.18912937  0.68833386  1
  Zn  Zn130  1  0.18691484  0.68787791  0.18594625  1
  Zn  Zn131  1  0.18723038  0.68814881  0.68786110  1
  Zn  Zn132  1  0.68540019  0.18509150  0.18483773  1
  Zn  Zn133  1  0.68735538  0.18805743  0.68693608  1
  Zn  Zn134  1  0.68733141  0.68475378  0.18820199  1
  Zn  Zn135  1  0.68756501  0.68838811  0.68709609  1
  Zn  Zn136  1  0.31294984  0.31328721  0.30927252  1
  Zn  Zn137  1  0.31270101  0.31150789  0.81264010  1
  Zn  Zn138  1  0.31229297  0.81294374  0.31180135  1
  Zn  Zn139  1  0.31064406  0.81014533  0.81207408  1
  Zn  Zn140  1  0.81549855  0.31267226  0.31504562  1
  Zn  Zn141  1  0.81195809  0.31430350  0.81381624  1
  Zn  Zn142  1  0.81215354  0.81336486  0.31321031  1
  Zn  Zn143  1  0.81281405  0.81378345  0.81291786  1
  Zn  Zn144  1  0.18654615  0.43842408  0.43803870  1
  Zn  Zn145  1  0.18953655  0.43785057  0.93706429  1
  Zn  Zn146  1  0.18708922  0.93966093  0.43836248  1
  Zn  Zn147  1  0.18798860  0.94053963  0.93835264  1
  Zn  Zn148  1  0.68697074  0.43715878  0.43781362  1
  Zn  Zn149  1  0.68778514  0.43613989  0.93702191  1
  Zn  Zn150  1  0.68583811  0.93541869  0.43597944  1
  Zn  Zn151  1  0.68848550  0.93706884  0.93675199  1
  Zn  Zn152  1  0.31057093  0.06221960  0.06033941  1
  Zn  Zn153  1  0.31262729  0.06213980  0.56218742  1
  Zn  Zn154  1  0.31146217  0.56167225  0.06104629  1
  Zn  Zn155  1  0.31285611  0.56222831  0.56284310  1
  Zn  Zn156  1  0.81434648  0.06416077  0.06648544  1
  Zn  Zn157  1  0.81221649  0.06393782  0.56287485  1
  Zn  Zn158  1  0.81174079  0.56103029  0.06464677  1
  Zn  Zn159  1  0.81493267  0.56460290  0.56443724  1
  Zn  Zn160  1  0.43964936  0.43675704  0.18764607  1
  Zn  Zn161  1  0.43799144  0.43778500  0.68726043  1
  Zn  Zn162  1  0.43479178  0.93753734  0.18800365  1
  Zn  Zn163  1  0.43642802  0.93835568  0.68842769  1
  Zn  Zn164  1  0.93874640  0.43386144  0.18793226  1
  Zn  Zn165  1  0.93692147  0.43751933  0.68698866  1
  Zn  Zn166  1  0.93850122  0.93651482  0.18535886  1
  Zn  Zn167  1  0.93788929  0.93918872  0.68614992  1
  Zn  Zn168  1  0.06444074  0.06106277  0.31384221  1
  Zn  Zn169  1  0.06130427  0.06399111  0.81305752  1
  Zn  Zn170  1  0.06249648  0.56349217  0.31278212  1
  Zn  Zn171  1  0.06268552  0.56061977  0.81422413  1
  Zn  Zn172  1  0.56289853  0.06288882  0.31096259  1
  Zn  Zn173  1  0.56282739  0.06366911  0.81273058  1
  Zn  Zn174  1  0.56402346  0.56089951  0.31226873  1
  Zn  Zn175  1  0.56253625  0.56266723  0.81096303  1
  Zn  Zn176  1  0.43884468  0.18754151  0.43730842  1
  Zn  Zn177  1  0.43765268  0.18701863  0.93811809  1
  Zn  Zn178  1  0.43604562  0.68767736  0.43899055  1
  Zn  Zn179  1  0.43759976  0.68797926  0.93660482  1
  Zn  Zn180  1  0.93577669  0.18565077  0.43338972  1
  Zn  Zn181  1  0.93697889  0.18733316  0.93655208  1
  Zn  Zn182  1  0.93641324  0.68893306  0.43866736  1
  Zn  Zn183  1  0.94036650  0.68652541  0.93804201  1
  Zn  Zn184  1  0.06272281  0.31209967  0.06207728  1
  Zn  Zn185  1  0.06232823  0.31384690  0.56321372  1
  Zn  Zn186  1  0.06006115  0.81186164  0.06396242  1
  Zn  Zn187  1  0.06161021  0.81294692  0.56450584  1
  Zn  Zn188  1  0.56291041  0.31226213  0.06329781  1
  Zn  Zn189  1  0.56513900  0.31348142  0.56273507  1
  Zn  Zn190  1  0.56108081  0.81123720  0.06055236  1
  Zn  Zn191  1  0.56221156  0.81193660  0.56105257  1
  O  O192  1  0.12786820  0.12454265  0.11296035  1
  O  O193  1  0.11996361  0.12215865  0.62070985  1
  O  O194  1  0.12357353  0.61499512  0.11712858  1
  O  O195  1  0.11879534  0.62418690  0.61856699  1
  O  O196  1  0.61603292  0.11614211  0.12156008  1
  O  O197  1  0.61933449  0.11904934  0.61902065  1
  O  O198  1  0.61834530  0.62332297  0.11811804  1
  O  O199  1  0.61263831  0.62449224  0.62363870  1
  O  O200  1  0.38047365  0.38018433  0.37979052  1
  O  O201  1  0.38175454  0.37992617  0.87941606  1
  O  O202  1  0.38092600  0.88135635  0.37578065  1
  O  O203  1  0.37949382  0.87984118  0.87920979  1
  O  O204  1  0.88313965  0.38325137  0.37900540  1
  O  O205  1  0.87550737  0.38302988  0.88283842  1
  O  O206  1  0.88049382  0.87538213  0.38425201  1
  O  O207  1  0.87503854  0.88412811  0.88048926  1
  O  O208  1  0.25722151  0.00809622  0.37582524  1
  O  O209  1  0.25589131  0.00957757  0.87319774  1
  O  O210  1  0.25556110  0.50654129  0.37048994  1
  O  O211  1  0.25858281  0.50181657  0.86762753  1
  O  O212  1  0.74772565  -0.00224008  0.36166649  1
  O  O213  1  0.75978657  0.00027639  0.86861221  1
  O  O214  1  0.75629233  0.50490467  0.37091347  1
  O  O215  1  0.75544482  0.50667243  0.87033141  1
  O  O216  1  0.24171527  0.50071618  0.13131856  1
  O  O217  1  0.25009253  0.49236900  0.63112723  1
  O  O218  1  0.24949858  0.98617093  0.12624774  1
  O  O219  1  0.24257599  0.99498741  0.62642920  1
  O  O220  1  0.74826267  0.49234652  0.13314084  1
  O  O221  1  0.74886508  0.50047275  0.63353564  1
  O  O222  1  0.74299030  0.99209502  0.13105979  1
  O  O223  1  0.74362788  0.99478494  0.62980333  1
  O  O224  1  0.00407569  0.36688581  0.25804860  1
  O  O225  1  0.00674601  0.36895442  0.75126354  1
  O  O226  1  0.00506132  0.86783556  0.25612793  1
  O  O227  1  0.00793727  0.86762653  0.74877916  1
  O  O228  1  0.50736790  0.37382608  0.25723220  1
  O  O229  1  0.50527598  0.36989755  0.75541446  1
  O  O230  1  0.50385962  0.86796031  0.25422414  1
  O  O231  1  0.50739389  0.87412552  0.75568073  1
  O  O232  1  0.49329372  0.12586060  0.24150659  1
  O  O233  1  0.49985839  0.13224129  0.74260672  1
  O  O234  1  0.49447699  0.62891558  0.24479052  1
  O  O235  1  0.49364796  0.62570936  0.73928466  1
  O  O236  1  1.00294746  0.13751745  0.25186062  1
  O  O237  1  0.99409839  0.13185933  0.74396420  1
  O  O238  1  0.99235690  0.63201653  0.25057901  1
  O  O239  1  0.99676989  0.63266148  0.74695786  1
  O  O240  1  0.37515032  0.25588514  0.00845278  1
  O  O241  1  0.37050586  0.25583134  0.50498551  1
  O  O242  1  0.37520199  0.75628410  0.00703027  1
  O  O243  1  0.36659851  0.75196127  0.50605874  1
  O  O244  1  0.86488788  0.25568230  -0.00077325  1
  O  O245  1  0.86574908  0.24934398  0.50524513  1
  O  O246  1  0.86903436  0.75322873  0.00466121  1
  O  O247  1  0.86862017  0.76163185  0.50127020  1
  O  O248  1  0.13178898  0.24564859  0.49561316  1
  O  O249  1  0.12692661  0.24211339  0.99360853  1
  O  O250  1  0.12960540  0.74512605  0.49497963  1
  O  O251  1  0.12330007  0.73768353  1.00045311  1
  O  O252  1  0.63286128  0.24479260  0.49536260  1
  O  O253  1  0.63397606  0.25066127  0.99414484  1
  O  O254  1  0.63138980  0.74872055  0.49217844  1
  O  O255  1  0.63084590  0.74419170  0.99411092  1
  O  O256  1  0.49005231  0.24304226  0.12477147  1
  O  O257  1  0.49586748  0.24512745  0.62906663  1
  O  O258  1  0.49446360  0.74404836  0.13061951  1
  O  O259  1  0.49367108  0.74078464  0.62402674  1
  O  O260  1  1.00184968  0.24996166  0.13815025  1
  O  O261  1  0.99410968  0.24502368  0.63037773  1
  O  O262  1  0.99160515  0.74771165  0.13363075  1
  O  O263  1  0.99898396  0.74476409  0.63689475  1
  O  O264  1  0.00663643  0.25587268  0.36931735  1
  O  O265  1  0.00599113  0.25109723  0.86704013  1
  O  O266  1  0.00566937  0.75549312  0.37060797  1
  O  O267  1  0.00323001  0.75190163  0.86259818  1
  O  O268  1  0.50739459  0.25688103  0.37461667  1
  O  O269  1  0.50468333  0.25558512  0.86985738  1
  O  O270  1  0.50346158  0.75387689  0.36918264  1
  O  O271  1  0.50696132  0.75727082  0.87324844  1
  O  O272  1  0.24527349  0.13259470  0.49538615  1
  O  O273  1  0.24154705  0.12627331  0.98894026  1
  O  O274  1  0.24489393  0.63033696  0.49463958  1
  O  O275  1  0.23894399  0.62574899  0.99871180  1
  O  O276  1  0.74362416  0.13437892  0.49969129  1
  O  O277  1  0.74785856  0.13689578  0.99997612  1
  O  O278  1  0.75043222  0.63223738  0.49355299  1
  O  O279  1  0.74498047  0.62945040  0.99459994  1
  O  O280  1  0.26037246  0.37347225  0.00280029  1
  O  O281  1  0.25623914  0.37023402  0.50458187  1
  O  O282  1  0.25482838  0.87354823  0.00898189  1
  O  O283  1  0.24949608  0.86844931  0.50660527  1
  O  O284  1  0.75417736  0.36726023  0.00551514  1
  O  O285  1  0.75113209  0.36274037  0.50163492  1
  O  O286  1  0.75435971  0.86745081  0.00517240  1
  O  O287  1  0.75619371  0.87051108  0.50399533  1
  O  O288  1  0.13013032  0.50204060  0.24108440  1
  O  O289  1  0.13189394  0.49328181  0.74925498  1
  O  O290  1  0.12937892  0.99063645  0.24897231  1
  O  O291  1  0.12354831  0.99128595  0.74398410  1
  O  O292  1  0.63324233  0.49221670  0.25009138  1
  O  O293  1  0.63196388  0.49429568  0.75004733  1
  O  O294  1  0.62985340  0.99176773  0.24296657  1
  O  O295  1  0.63021249  0.99476327  0.74433094  1
  O  O296  1  0.37280127  0.00701920  0.25697232  1
  O  O297  1  0.37207690  0.00388855  0.75778856  1
  O  O298  1  0.37069741  0.50578578  0.25516211  1
  O  O299  1  0.37014356  0.50404784  0.75484793  1
  O  O300  1  0.86027089  -0.00485346  0.24930903  1
  O  O301  1  0.86999752  0.00449652  0.75667573  1
  O  O302  1  0.87053250  0.50464843  0.25651026  1
  O  O303  1  0.87059004  0.50673146  0.75660596  1
  O  O304  1  0.11973369  0.36882667  0.37472019  1
  O  O305  1  0.12474022  0.36806024  0.86891058  1
  O  O306  1  0.12046828  0.86877614  0.37117602  1
  O  O307  1  0.12313135  0.87632764  0.86352412  1
  O  O308  1  0.62031608  0.36870286  0.36998384  1
  O  O309  1  0.61881950  0.36949071  0.86904515  1
  O  O310  1  0.61743625  0.86774786  0.36814477  1
  O  O311  1  0.62015955  0.87024191  0.86947062  1
  O  O312  1  0.37833789  0.13140189  0.12820296  1
  O  O313  1  0.38179735  0.13203313  0.62548614  1
  O  O314  1  0.38029599  0.62936999  0.12993348  1
  O  O315  1  0.38251859  0.63010856  0.62907968  1
  O  O316  1  0.87969556  0.12984145  0.13174177  1
  O  O317  1  0.88054789  0.13038506  0.63088265  1
  O  O318  1  0.87479505  0.63094475  0.13275261  1
  O  O319  1  0.88282076  0.62956042  0.63360862  1
  O  O320  1  0.26382946  0.25163880  0.12321373  1
  O  O321  1  0.25640536  0.25540507  0.61953557  1
  O  O322  1  0.25621481  0.75963501  0.12378658  1
  O  O323  1  0.25402677  0.75566296  0.61922660  1
  O  O324  1  0.74931748  0.25542328  0.11544827  1
  O  O325  1  0.75518433  0.25019083  0.61527127  1
  O  O326  1  0.75405869  0.75372236  0.11973878  1
  O  O327  1  0.75108154  0.75750286  0.61835337  1
  O  O328  1  0.24687474  0.24570293  0.38083393  1
  O  O329  1  0.24426492  0.24077427  0.87601207  1
  O  O330  1  0.24471075  0.74480660  0.37994389  1
  O  O331  1  0.24562077  0.74547386  0.87892021  1
  O  O332  1  0.74453291  0.24893268  0.38450030  1
  O  O333  1  0.74400416  0.25028355  0.88509547  1
  O  O334  1  0.74392990  0.74506589  0.37923012  1
  O  O335  1  0.74490013  0.74481608  0.88051140  1
  O  O336  1  0.01115763  0.12494948  0.00036351  1
  O  O337  1  0.00690571  0.12645422  0.50619171  1
  O  O338  1  0.00832458  0.61753940  0.00302745  1
  O  O339  1  0.00510907  0.62209999  0.50544096  1
  O  O340  1  0.50010753  0.11587368  0.00571090  1
  O  O341  1  0.50636411  0.11956585  0.50553582  1
  O  O342  1  0.50527580  0.61982199  0.00461516  1
  O  O343  1  0.49922167  0.61916526  0.50858071  1
  O  O344  1  0.49461448  0.37996030  0.49448979  1
  O  O345  1  0.49593028  0.38059853  0.99364486  1
  O  O346  1  0.49863858  0.88172122  0.49278343  1
  O  O347  1  0.49377714  0.87973013  0.99363000  1
  O  O348  1  0.99991576  0.38289061  0.49428359  1
  O  O349  1  0.99286303  0.38090719  0.99870147  1
  O  O350  1  0.99055236  0.87459810  0.49581469  1
  O  O351  1  0.99092133  0.87592075  0.99770050  1
  O  O352  1  0.49392921  0.49470624  0.37960957  1
  O  O353  1  0.49498180  0.49432653  0.87958038  1
  O  O354  1  0.49561719  0.99449042  0.37941402  1
  O  O355  1  0.49503637  0.99412771  0.87955097  1
  O  O356  1  0.99579961  0.49654973  0.38054235  1
  O  O357  1  0.99234302  0.49814872  0.88255487  1
  O  O358  1  0.99807124  0.99062895  0.37815094  1
  O  O359  1  0.98553882  0.99890022  0.87520340  1
  O  O360  1  0.00467295  0.00310577  0.12276772  1
  O  O361  1  0.00566977  0.00865399  0.62230429  1
  O  O362  1  0.00926651  0.50112213  0.12075097  1
  O  O363  1  0.00172536  0.50771329  0.61939914  1
  O  O364  1  0.50317806  0.00211625  0.11885401  1
  O  O365  1  0.50545829  0.00490029  0.61936923  1
  O  O366  1  0.50154869  0.50659719  0.11790284  1
  O  O367  1  0.49862275  0.51005952  0.61850084  1
  O  O368  1  0.24805151  0.38450070  0.24682222  1
  O  O369  1  0.24583528  0.37924088  0.74442200  1
  O  O370  1  0.24446364  0.87416174  0.24098183  1
  O  O371  1  0.23842437  0.87572465  0.74356931  1
  O  O372  1  0.74631866  0.37898800  0.24654463  1
  O  O373  1  0.74375083  0.38260437  0.75025772  1
  O  O374  1  0.74225901  0.87924839  0.24371552  1
  O  O375  1  0.74467221  0.88072530  0.74413332  1
  O  O376  1  0.25697223  0.12436999  0.25754053  1
  O  O377  1  0.24972400  0.12420289  0.76268523  1
  O  O378  1  0.25586027  0.62112491  0.25600867  1
  O  O379  1  0.25671436  0.61759853  0.74894667  1
  O  O380  1  0.74682515  0.11047889  0.24890078  1
  O  O381  1  0.75623494  0.11828094  0.75011682  1
  O  O382  1  0.75541894  0.61885535  0.25657402  1
  O  O383  1  0.75575102  0.62176852  0.75639908  1
  O  O384  1  0.37129356  0.12109531  0.36981348  1
  O  O385  1  0.36573215  0.12020893  0.87552250  1
  O  O386  1  0.36972016  0.61974640  0.36924770  1
  O  O387  1  0.37671465  0.61776891  0.86743783  1
  O  O388  1  0.86964225  0.11901240  0.36844238  1
  O  O389  1  0.87206066  0.11590734  0.86887196  1
  O  O390  1  0.86918717  0.62064463  0.36980370  1
  O  O391  1  0.86924539  0.62013415  0.87089155  1
  O  O392  1  0.12811634  0.38867532  0.12427165  1
  O  O393  1  0.13303637  0.37561057  0.63215496  1
  O  O394  1  0.13437369  0.87252307  0.13082222  1
  O  O395  1  0.12894152  0.88091713  0.63264242  1
  O  O396  1  0.63136332  0.37597854  0.13236435  1
  O  O397  1  0.62729632  0.37854742  0.63393305  1
  O  O398  1  0.62877797  0.87753456  0.12929793  1
  O  O399  1  0.62976354  0.88083018  0.62942886  1
  O  O400  1  0.11897322  0.25282456  0.25726088  1
  O  O401  1  0.11899193  0.25535489  0.75502998  1
  O  O402  1  0.11935878  0.75408985  0.25643426  1
  O  O403  1  0.11676436  0.75989570  0.74959605  1
  O  O404  1  0.62463788  0.25554045  0.25622531  1
  O  O405  1  0.62004491  0.25612638  0.75520751  1
  O  O406  1  0.61870549  0.75361960  0.25462185  1
  O  O407  1  0.62403205  0.75721006  0.75656026  1
  O  O408  1  0.37830878  0.24433902  0.24026881  1
  O  O409  1  0.38289675  0.24906508  0.74304046  1
  O  O410  1  0.38048690  0.74340850  0.24471880  1
  O  O411  1  0.37668199  0.74320058  0.74189961  1
  O  O412  1  0.88803325  0.25014563  0.25075857  1
  O  O413  1  0.87880433  0.24504345  0.74592211  1
  O  O414  1  0.87845519  0.74511536  0.24554049  1
  O  O415  1  0.88425929  0.74560480  0.75052830  1
  O  O416  1  0.37970481  0.49411921  0.49311749  1
  O  O417  1  0.38193354  0.49538370  0.99424925  1
  O  O418  1  0.38273925  0.99952012  0.49304604  1
  O  O419  1  0.38013993  0.99308734  0.99376204  1
  O  O420  1  0.88264805  0.50100921  0.49373366  1
  O  O421  1  0.87921744  0.49541405  0.99626230  1
  O  O422  1  0.87402887  0.98749975  0.49851237  1
  O  O423  1  0.87245352  0.99438774  0.99126017  1
  O  O424  1  0.12190856  0.01147242  0.00057187  1
  O  O425  1  0.12300175  0.00877380  0.50677263  1
  O  O426  1  0.12065879  0.50615941  0.00708781  1
  O  O427  1  0.11892303  0.50851777  0.50156868  1
  O  O428  1  0.61821406  -0.00199084  0.00583172  1
  O  O429  1  0.62015597  0.00421193  0.50517778  1
  O  O430  1  0.61883419  0.50642330  -0.00012777  1
  O  O431  1  0.61660611  0.50310791  0.50153910  1
  O  O432  1  0.37778198  0.36610522  0.11911461  1
  O  O433  1  0.37087103  0.36920921  0.61857125  1
  O  O434  1  0.36738570  0.86945592  0.12030360  1
  O  O435  1  0.36784734  0.86936631  0.62416765  1
  O  O436  1  0.86772510  0.37146827  0.11852217  1
  O  O437  1  0.87181785  0.36647144  0.62259758  1
  O  O438  1  0.86740842  0.86747169  0.11911214  1
  O  O439  1  0.86871308  0.87478435  0.61630298  1
  O  O440  1  0.13203087  0.13166292  0.38180293  1
  O  O441  1  0.13143586  0.12954233  0.88147244  1
  O  O442  1  0.13092872  0.63150550  0.38066488  1
  O  O443  1  0.12655122  0.62408962  0.88694245  1
  O  O444  1  0.62650028  0.13061411  0.38147416  1
  O  O445  1  0.62788208  0.13290004  0.87803658  1
  O  O446  1  0.63156662  0.63115155  0.37566419  1
  O  O447  1  0.63019862  0.63081776  0.87986618  1
