# generated using pymatgen
data_V3Zn3O8
_symmetry_space_group_name_H-M   'P 1'
_cell_length_a   17.08261602
_cell_length_b   17.08054697
_cell_length_c   17.08331626
_cell_angle_alpha   90.01899169
_cell_angle_beta   90.00404889
_cell_angle_gamma   90.00278439
_symmetry_Int_Tables_number   1
_chemical_formula_structural   V3Zn3O8
_chemical_formula_sum   'V96 Zn96 O256'
_cell_volume   4984.57699237
_cell_formula_units_Z   32
loop_
 _symmetry_equiv_pos_site_id
 _symmetry_equiv_pos_as_xyz
  1  'x, y, z'
loop_
 _atom_site_type_symbol
 _atom_site_label
 _atom_site_symmetry_multiplicity
 _atom_site_fract_x
 _atom_site_fract_y
 _atom_site_fract_z
 _atom_site_occupancy
  V  V0  1  0.12505480  0.12565137  0.00031611  1
  V  V1  1  -0.00016972  0.87530473  0.87640497  1
  V  V2  1  0.62557189  0.87532150  0.75016620  1
  V  V3  1  0.87524695  0.49975784  0.37469248  1
  V  V4  1  0.25078348  0.49954874  0.74845049  1
  V  V5  1  0.50097286  0.00086589  0.00121620  1
  V  V6  1  0.12537887  0.87567531  0.24949244  1
  V  V7  1  0.37557090  0.62459421  0.74880431  1
  V  V8  1  0.25079064  0.24907623  0.50173115  1
  V  V9  1  0.49968221  0.62487115  0.12331297  1
  V  V10  1  0.24920910  0.12390966  0.37676650  1
  V  V11  1  0.50002284  -0.00033436  0.49978438  1
  V  V12  1  0.87521762  0.62498542  0.24965914  1
  V  V13  1  0.37648177  0.12513806  0.75115073  1
  V  V14  1  0.49834405  0.24993991  0.25062583  1
  V  V15  1  -0.00028799  0.00044611  -0.00023067  1
  V  V16  1  0.37526963  0.87493425  0.50078737  1
  V  V17  1  0.12532460  0.75029663  0.37426172  1
  V  V18  1  0.62514815  0.74907502  0.87578164  1
  V  V19  1  0.87535824  0.24974941  0.62511234  1
  V  V20  1  0.87501902  0.37612821  0.49907759  1
  V  V21  1  0.12518551  0.50068439  0.62248474  1
  V  V22  1  0.25000833  0.62508255  0.37412146  1
  V  V23  1  -0.00100183  0.87586459  0.37472417  1
  V  V24  1  0.24969854  0.24962761  0.00093008  1
  V  V25  1  0.00092154  0.25147028  0.75085541  1
  V  V26  1  0.49990454  0.87500633  0.87511763  1
  V  V27  1  0.37364125  0.37476637  0.00005693  1
  V  V28  1  0.75167918  0.25201958  0.00301511  1
  V  V29  1  0.12570077  0.37523181  0.74915138  1
  V  V30  1  0.62463591  0.87456128  0.24957951  1
  V  V31  1  0.12494194  0.62521484  0.49897831  1
  V  V32  1  0.50097665  0.49987874  -0.00030580  1
  V  V33  1  0.12508031  0.00013990  0.12594365  1
  V  V34  1  0.50165611  0.62346687  0.62436762  1
  V  V35  1  0.37485426  -0.00070731  0.37670445  1
  V  V36  1  0.24974815  -0.00024151  0.75107917  1
  V  V37  1  0.50047215  0.12490827  0.62667708  1
  V  V38  1  0.74984197  0.00079337  0.24934291  1
  V  V39  1  0.74955657  0.75028245  -0.00042169  1
  V  V40  1  0.75014197  0.62623246  0.37270057  1
  V  V41  1  0.87515491  0.87546400  0.00005968  1
  V  V42  1  0.62501794  0.50011087  0.62408534  1
  V  V43  1  0.62537139  0.12408494  0.49983536  1
  V  V44  1  0.12209793  0.25044019  0.37425045  1
  V  V45  1  0.75055678  0.50018016  0.74974351  1
  V  V46  1  0.00092073  0.62581065  0.62305631  1
  V  V47  1  0.75186472  0.12519179  0.87512904  1
  V  V48  1  0.37547449  0.37410411  0.49958558  1
  V  V49  1  0.37501238  0.49920766  0.37476575  1
  V  V50  1  0.87700908  0.50049661  0.87388129  1
  V  V51  1  0.49973508  0.75041149  0.24992388  1
  V  V52  1  0.25104222  0.75046328  0.50037575  1
  V  V53  1  0.87576407  -0.00139222  0.37540043  1
  V  V54  1  0.37593432  0.00026796  0.87598019  1
  V  V55  1  0.25020861  0.75002080  -0.00151735  1
  V  V56  1  0.87496278  0.12690243  0.24942483  1
  V  V57  1  0.75003633  0.37518085  0.62424928  1
  V  V58  1  0.74986037  0.24846932  0.50014502  1
  V  V59  1  0.87695576  0.37662480  0.00152205  1
  V  V60  1  0.50022823  0.74995155  0.75023299  1
  V  V61  1  0.62470306  0.37748436  0.24829680  1
  V  V62  1  0.12482492  0.87568105  0.74987679  1
  V  V63  1  0.49870896  0.37507884  0.37475299  1
  V  V64  1  0.37431893  0.62564409  0.24932727  1
  V  V65  1  0.37522625  0.75018124  0.62456008  1
  V  V66  1  0.24954829  0.62565751  0.87350766  1
  V  V67  1  0.12491040  0.49985955  0.12382694  1
  V  V68  1  0.00044053  0.62474116  0.12307812  1
  V  V69  1  0.37372006  0.75074896  0.12399010  1
  V  V70  1  0.74953089  0.62506182  0.87534763  1
  V  V71  1  0.24935079  -0.00074621  0.25082043  1
  V  V72  1  0.62493329  0.74968686  0.37356543  1
  V  V73  1  0.37485440  0.49911336  0.87402456  1
  V  V74  1  0.37509439  0.12465455  0.25139304  1
  V  V75  1  0.25019668  0.12544793  0.87698145  1
  V  V76  1  0.75072298  0.87504890  0.12366545  1
  V  V77  1  0.74889598  0.75137995  0.49962230  1
  V  V78  1  0.25160617  0.37404581  0.62405028  1
  V  V79  1  0.00067020  0.74986199  0.24918174  1
  V  V80  1  -0.00185594  0.12726399  0.12586107  1
  V  V81  1  0.12448920  0.00000122  0.62669014  1
  V  V82  1  0.62437360  0.25172317  0.87506162  1
  V  V83  1  0.49960645  0.12453303  0.12695676  1
  V  V84  1  0.24935131  0.49921019  0.24911526  1
  V  V85  1  0.24937760  0.37473938  0.12492516  1
  V  V86  1  0.74943330  0.12456791  0.37573163  1
  V  V87  1  0.87375058  0.75079907  0.62460725  1
  V  V88  1  0.12455381  0.12302423  0.50205060  1
  V  V89  1  0.62507693  0.00120867  0.12503330  1
  V  V90  1  -0.00056686  0.75013897  0.74959366  1
  V  V91  1  0.62531856  0.37363823  0.75006809  1
  V  V92  1  0.37461478  0.87451957  0.00015307  1
  V  V93  1  0.75031539  -0.00053954  0.74947752  1
  V  V94  1  0.00031915  0.12410415  0.62591295  1
  V  V95  1  0.12531115  0.74932233  0.87431433  1
  Zn  Zn96  1  -0.00162700  -0.00275896  0.50205244  1
  Zn  Zn97  1  0.49880822  0.37382005  0.87393965  1
  Zn  Zn98  1  0.12231854  0.37343194  0.25108609  1
  Zn  Zn99  1  0.87485503  0.74953107  0.12415944  1
  Zn  Zn100  1  0.24978017  0.87516549  0.12444390  1
  Zn  Zn101  1  0.62441021  0.25074337  0.37556736  1
  Zn  Zn102  1  -0.00276109  0.25275628  0.24991147  1
  Zn  Zn103  1  0.37347253  0.24944958  0.12600148  1
  Zn  Zn104  1  0.87589932  0.25381860  0.12918780  1
  Zn  Zn105  1  0.12470439  0.62459060  -0.00307258  1
  Zn  Zn106  1  0.00302777  0.37652060  0.87485095  1
  Zn  Zn107  1  0.50166879  0.49974644  0.49953616  1
  Zn  Zn108  1  0.74872521  0.87509552  0.62533113  1
  Zn  Zn109  1  0.62664665  -0.00282553  0.62363393  1
  Zn  Zn110  1  0.62561606  0.62415348  0.00108289  1
  Zn  Zn111  1  0.37604581  0.25092365  0.62779879  1
  Zn  Zn112  1  0.62314360  0.62339228  0.49830449  1
  Zn  Zn113  1  0.24925504  0.87522048  0.62561831  1
  Zn  Zn114  1  0.75026890  0.37886349  0.12692557  1
  Zn  Zn115  1  0.87544482  0.87626978  0.49944923  1
  Zn  Zn116  1  0.62705772  0.50171984  0.12384363  1
  Zn  Zn117  1  0.87587304  0.12427789  0.74956200  1
  Zn  Zn118  1  0.50028110  0.87429590  0.37550960  1
  Zn  Zn119  1  0.87510255  0.62511493  0.74944417  1
  Zn  Zn120  1  0.49933749  0.25020633  0.75150087  1
  Zn  Zn121  1  0.12489302  0.25237997  0.87583722  1
  Zn  Zn122  1  0.00049172  0.49921131  0.49887805  1
  Zn  Zn123  1  -0.00017052  0.37452026  0.37469472  1
  Zn  Zn124  1  0.62545898  0.12653205  0.00246602  1
  Zn  Zn125  1  0.00207436  0.50019294  -0.00276394  1
  Zn  Zn126  1  0.87628783  0.00082120  0.87488166  1
  Zn  Zn127  1  0.74843442  0.50121350  0.24627387  1
  Zn  Zn128  1  0.18696931  0.18662033  0.18817560  1
  Zn  Zn129  1  0.18824947  0.18720196  0.68843009  1
  Zn  Zn130  1  0.18771737  0.68754271  0.18611564  1
  Zn  Zn131  1  0.18750048  0.68814094  0.68654843  1
  Zn  Zn132  1  0.68600437  0.18991556  0.18907186  1
  Zn  Zn133  1  0.68692375  0.18650248  0.68733710  1
  Zn  Zn134  1  0.68646866  0.68689813  0.18523641  1
  Zn  Zn135  1  0.68733416  0.68563572  0.68855349  1
  Zn  Zn136  1  0.31022216  0.31195919  0.31239809  1
  Zn  Zn137  1  0.31273914  0.31097762  0.81328795  1
  Zn  Zn138  1  0.31280374  0.81399826  0.31325984  1
  Zn  Zn139  1  0.31254328  0.81324603  0.81174465  1
  Zn  Zn140  1  0.80969768  0.31264209  0.31347757  1
  Zn  Zn141  1  0.81392999  0.31439348  0.81252378  1
  Zn  Zn142  1  0.81347191  0.81247248  0.31032855  1
  Zn  Zn143  1  0.81348827  0.81314305  0.81384346  1
  Zn  Zn144  1  0.18886764  0.43619772  0.43787836  1
  Zn  Zn145  1  0.18772279  0.43677785  0.93659013  1
  Zn  Zn146  1  0.18673281  0.93662633  0.43929881  1
  Zn  Zn147  1  0.18708353  0.93741514  0.93785806  1
  Zn  Zn148  1  0.68722119  0.43817843  0.43621465  1
  Zn  Zn149  1  0.68847845  0.43727607  0.93696282  1
  Zn  Zn150  1  0.68695066  0.93673873  0.43656092  1
  Zn  Zn151  1  0.68667039  0.93746296  0.93767515  1
  Zn  Zn152  1  0.31280028  0.06211123  0.06456956  1
  Zn  Zn153  1  0.31269056  0.06210214  0.56481270  1
  Zn  Zn154  1  0.31225962  0.56360331  0.06069882  1
  Zn  Zn155  1  0.31400750  0.56193869  0.56075693  1
  Zn  Zn156  1  0.81423357  0.06338472  0.06266794  1
  Zn  Zn157  1  0.81434164  0.06216023  0.56300366  1
  Zn  Zn158  1  0.81127366  0.56160493  0.06261418  1
  Zn  Zn159  1  0.81123074  0.56456844  0.56053137  1
  Zn  Zn160  1  0.43678860  0.43717805  0.18606333  1
  Zn  Zn161  1  0.44015728  0.43568591  0.68737310  1
  Zn  Zn162  1  0.43728688  0.93700933  0.18795325  1
  Zn  Zn163  1  0.43712501  0.93796929  0.68691872  1
  Zn  Zn164  1  0.93993715  0.43642516  0.19049861  1
  Zn  Zn165  1  0.93844924  0.43787164  0.68556357  1
  Zn  Zn166  1  0.93718342  0.93875726  0.18695242  1
  Zn  Zn167  1  0.93617065  0.93689681  0.68922663  1
  Zn  Zn168  1  0.06038435  0.06339463  0.31231072  1
  Zn  Zn169  1  0.06361293  0.06385205  0.81408770  1
  Zn  Zn170  1  0.06133034  0.56203333  0.31140229  1
  Zn  Zn171  1  0.06235446  0.56350596  0.80837032  1
  Zn  Zn172  1  0.56236760  0.06222992  0.31388310  1
  Zn  Zn173  1  0.56522745  0.06276364  0.81342468  1
  Zn  Zn174  1  0.56144147  0.56253501  0.31216491  1
  Zn  Zn175  1  0.56349009  0.56189792  0.81251376  1
  Zn  Zn176  1  0.43793203  0.18842097  0.43788634  1
  Zn  Zn177  1  0.43728775  0.18718537  0.94070692  1
  Zn  Zn178  1  0.43902153  0.68654012  0.43805799  1
  Zn  Zn179  1  0.43655971  0.68631690  0.93675751  1
  Zn  Zn180  1  0.93735311  0.18461326  0.43931044  1
  Zn  Zn181  1  0.93774681  0.18877726  0.93720874  1
  Zn  Zn182  1  0.93738217  0.68806721  0.43729805  1
  Zn  Zn183  1  0.93660238  0.68782443  0.93846371  1
  Zn  Zn184  1  0.06160584  0.31185259  0.06252126  1
  Zn  Zn185  1  0.06181932  0.31337163  0.56107049  1
  Zn  Zn186  1  0.06405815  0.81225894  0.06194812  1
  Zn  Zn187  1  0.06198024  0.81369857  0.56141015  1
  Zn  Zn188  1  0.56071189  0.31262676  0.06429345  1
  Zn  Zn189  1  0.56280872  0.31133674  0.56154355  1
  Zn  Zn190  1  0.56291568  0.81261929  0.06257164  1
  Zn  Zn191  1  0.56316800  0.81281067  0.56304769  1
  O  O192  1  0.11911764  0.11912453  0.11984498  1
  O  O193  1  0.12027602  0.11940073  0.62152318  1
  O  O194  1  0.11730207  0.61646908  0.12439607  1
  O  O195  1  0.12112273  0.62065298  0.61866876  1
  O  O196  1  0.61837391  0.11882721  0.12520642  1
  O  O197  1  0.61616884  0.12221847  0.61979016  1
  O  O198  1  0.61452127  0.62325236  0.12133461  1
  O  O199  1  0.61891385  0.61807924  0.62540662  1
  O  O200  1  0.37835690  0.38028889  0.37922221  1
  O  O201  1  0.37549125  0.38186471  0.88117427  1
  O  O202  1  0.37658717  0.88150174  0.38246243  1
  O  O203  1  0.38118121  0.88049898  0.87988004  1
  O  O204  1  0.87274725  0.38509259  0.38060777  1
  O  O205  1  0.87555559  0.38544697  0.88240169  1
  O  O206  1  0.88147296  0.88105698  0.37313376  1
  O  O207  1  0.88276033  0.87638665  0.88216496  1
  O  O208  1  0.25444959  0.00513727  0.37105556  1
  O  O209  1  0.25636168  0.00550453  0.87119739  1
  O  O210  1  0.25450978  0.50581113  0.36896377  1
  O  O211  1  0.25528163  0.50557330  0.86786867  1
  O  O212  1  0.75497328  0.00467685  0.36834536  1
  O  O213  1  0.74917308  0.00967907  0.86873289  1
  O  O214  1  0.75991864  0.50743977  0.37338712  1
  O  O215  1  0.75808923  0.50446727  0.87007846  1
  O  O216  1  0.24229491  0.49697796  0.12874398  1
  O  O217  1  0.24552930  0.49499181  0.62965528  1
  O  O218  1  0.24302120  0.99872733  0.13256185  1
  O  O219  1  0.24324617  0.99917095  0.63386163  1
  O  O220  1  0.74486617  0.49709852  0.12789832  1
  O  O221  1  0.74605576  0.49512319  0.62996702  1
  O  O222  1  0.74452536  0.99558983  0.12965122  1
  O  O223  1  0.74933043  0.99833049  0.63725925  1
  O  O224  1  0.00470526  0.37002964  0.25652918  1
  O  O225  1  0.00651555  0.36568330  0.74723097  1
  O  O226  1  0.00605280  0.86976629  0.25410721  1
  O  O227  1  0.00515361  0.86948522  0.75674577  1
  O  O228  1  0.50432636  0.37008989  0.25462920  1
  O  O229  1  0.50893851  0.37067284  0.75360668  1
  O  O230  1  0.50649753  0.86814024  0.25071265  1
  O  O231  1  0.50412725  0.86981768  0.75620020  1
  O  O232  1  0.49450346  0.12946437  0.24688128  1
  O  O233  1  0.49628393  0.12374662  0.74218669  1
  O  O234  1  0.49282897  0.63070637  0.24381701  1
  O  O235  1  0.49454291  0.63041154  0.74531787  1
  O  O236  1  0.99244397  0.12633851  0.24336960  1
  O  O237  1  0.99993722  0.13521254  0.74546776  1
  O  O238  1  0.99608657  0.63025339  0.24147376  1
  O  O239  1  0.99814389  0.63306033  0.74111698  1
  O  O240  1  0.36806721  0.25645862  0.00237120  1
  O  O241  1  0.36758338  0.25585837  0.50112010  1
  O  O242  1  0.37030707  0.75535932  0.00376859  1
  O  O243  1  0.37045807  0.75457024  0.50491392  1
  O  O244  1  0.86669086  0.26009380  -0.00230808  1
  O  O245  1  0.86935912  0.25481523  0.50585928  1
  O  O246  1  0.86797647  0.75725114  0.00163827  1
  O  O247  1  0.86613727  0.75078120  0.50722988  1
  O  O248  1  0.13099331  0.24338463  0.49407760  1
  O  O249  1  0.13133831  0.24337724  0.99854080  1
  O  O250  1  0.13131635  0.74514241  0.49378385  1
  O  O251  1  0.13179064  0.74876587  0.99180446  1
  O  O252  1  0.63248608  0.24267177  0.49863117  1
  O  O253  1  0.63493886  0.25156424  0.99205001  1
  O  O254  1  0.63385804  0.74893130  0.49390788  1
  O  O255  1  0.63079191  0.74986678  0.99247410  1
  O  O256  1  0.49683970  0.24244835  0.13183557  1
  O  O257  1  0.49941775  0.23595710  0.62657371  1
  O  O258  1  0.49337843  0.74505552  0.12933843  1
  O  O259  1  0.49496029  0.74413554  0.63151973  1
  O  O260  1  0.99738485  0.24156939  0.12693935  1
  O  O261  1  0.99615031  0.24493251  0.63282347  1
  O  O262  1  1.00189964  0.73964255  0.13011494  1
  O  O263  1  0.99249561  0.74614634  0.62909610  1
  O  O264  1  0.01247831  0.24798877  0.37677375  1
  O  O265  1  0.00112853  0.25229035  0.86214036  1
  O  O266  1  0.00637065  0.75417586  0.36818566  1
  O  O267  1  0.00523198  0.75458352  0.86971808  1
  O  O268  1  0.50097727  0.25674514  0.36832777  1
  O  O269  1  0.51414714  0.24915440  0.87733911  1
  O  O270  1  0.50605967  0.75043971  0.36745115  1
  O  O271  1  0.50402745  0.75503052  0.86943899  1
  O  O272  1  0.24452084  0.12885008  0.49601926  1
  O  O273  1  0.24539576  0.12910884  0.99653220  1
  O  O274  1  0.24550170  0.63084247  0.49342268  1
  O  O275  1  0.24962411  0.63192498  0.99089334  1
  O  O276  1  0.74509133  0.12898013  0.49578750  1
  O  O277  1  0.75010602  0.13467835  0.99209222  1
  O  O278  1  0.74844389  0.63739298  0.49281519  1
  O  O279  1  0.74863101  0.63168446  0.99300318  1
  O  O280  1  0.25430420  0.36989183  0.00518499  1
  O  O281  1  0.25597710  0.36891934  0.50549449  1
  O  O282  1  0.25725102  0.86854884  -0.00024758  1
  O  O283  1  0.25640808  0.86767525  0.50207435  1
  O  O284  1  0.75935501  0.36717894  -0.00139235  1
  O  O285  1  0.75499830  0.36871945  0.50541037  1
  O  O286  1  0.75504669  0.87070566  0.00419866  1
  O  O287  1  0.75124874  0.86222308  0.50134593  1
  O  O288  1  0.13106660  0.50015100  0.23980059  1
  O  O289  1  0.13167743  0.49550088  0.74212248  1
  O  O290  1  0.13001281  0.99561313  0.24569638  1
  O  O291  1  0.13024107  0.99524696  0.74663218  1
  O  O292  1  0.62359848  0.48918526  0.24805860  1
  O  O293  1  0.63165348  0.49338566  0.74552222  1
  O  O294  1  0.63042960  0.99485760  0.24489749  1
  O  O295  1  0.63522000  0.99428307  0.75076480  1
  O  O296  1  0.36951948  0.00430437  0.25687986  1
  O  O297  1  0.37016267  0.00459304  0.75729008  1
  O  O298  1  0.36880648  0.50627212  0.25432271  1
  O  O299  1  0.37012887  0.50486581  0.75397083  1
  O  O300  1  0.86807725  0.00605765  0.25474719  1
  O  O301  1  0.86379618  0.00175071  0.75418301  1
  O  O302  1  0.87401131  0.50612016  0.25987530  1
  O  O303  1  0.86955465  0.49966913  0.75852803  1
  O  O304  1  0.12525389  0.36246779  0.37597842  1
  O  O305  1  0.12285973  0.37416324  0.86555264  1
  O  O306  1  0.11996847  0.86942943  0.36899172  1
  O  O307  1  0.11914392  0.86948136  0.86961331  1
  O  O308  1  0.61786101  0.37464776  0.36578825  1
  O  O309  1  0.62685473  0.36537600  0.86929549  1
  O  O310  1  0.62381930  0.86790545  0.36669103  1
  O  O311  1  0.61845217  0.86918845  0.87011008  1
  O  O312  1  0.38165843  0.12426905  0.13403541  1
  O  O313  1  0.38480813  0.12505745  0.63177076  1
  O  O314  1  0.37894801  0.63113639  0.13023061  1
  O  O315  1  0.38050865  0.62991960  0.63026207  1
  O  O316  1  0.88077979  0.12679824  0.13160310  1
  O  O317  1  0.88158663  0.13242193  0.62744457  1
  O  O318  1  0.88645142  0.62420602  0.12991910  1
  O  O319  1  0.88029786  0.63614666  0.62472240  1
  O  O320  1  0.25004745  0.25603073  0.11910906  1
  O  O321  1  0.25142455  0.25596853  0.61936117  1
  O  O322  1  0.25605870  0.75123007  0.11766387  1
  O  O323  1  0.25735488  0.75070198  0.61858174  1
  O  O324  1  0.75106211  0.25221807  0.11188580  1
  O  O325  1  0.75539241  0.25482527  0.62045475  1
  O  O326  1  0.75089545  0.75712062  0.11779853  1
  O  O327  1  0.75735027  0.74860059  0.61756246  1
  O  O328  1  0.24204128  0.24304469  0.38153077  1
  O  O329  1  0.24849710  0.24247854  0.88250286  1
  O  O330  1  0.24510548  0.74413615  0.37969258  1
  O  O331  1  0.24536775  0.74473327  0.87797906  1
  O  O332  1  0.74825634  0.24186688  0.38319483  1
  O  O333  1  0.74431132  0.24447983  0.88175710  1
  O  O334  1  0.74622358  0.74616083  0.38142052  1
  O  O335  1  0.74476852  0.74514015  0.87961973  1
  O  O336  1  0.00466030  0.12032175  0.00449908  1
  O  O337  1  0.00689131  0.12245603  0.50911992  1
  O  O338  1  0.00198858  0.62360317  0.01118962  1
  O  O339  1  0.00814635  0.62586491  0.50556620  1
  O  O340  1  0.50189583  0.11796561  0.00791743  1
  O  O341  1  0.50418433  0.11969025  0.50772720  1
  O  O342  1  0.49818388  0.61518472  0.00410031  1
  O  O343  1  0.50225975  0.62209256  0.50865267  1
  O  O344  1  0.49357738  0.37520109  0.49331107  1
  O  O345  1  0.49312350  0.38435237  0.99875999  1
  O  O346  1  0.49361391  0.88134711  0.49925911  1
  O  O347  1  0.49445303  0.88047949  0.99432743  1
  O  O348  1  0.99065226  0.37804160  0.49714781  1
  O  O349  1  0.98910610  0.37683255  0.99633493  1
  O  O350  1  0.99748269  0.87586695  0.49016972  1
  O  O351  1  0.99575999  0.88029208  0.99572493  1
  O  O352  1  0.49135420  0.49374571  0.37532820  1
  O  O353  1  0.49342350  0.49944687  0.88361889  1
  O  O354  1  0.49254691  0.99892590  0.38203708  1
  O  O355  1  0.49575536  0.99508135  0.88072748  1
  O  O356  1  0.98716085  0.50118898  0.37738942  1
  O  O357  1  0.98943314  0.50019734  0.87416501  1
  O  O358  1  0.99334944  0.99354439  0.37532903  1
  O  O359  1  0.99947643  0.99408884  0.88164066  1
  O  O360  1  0.00584189  0.00660574  0.11940630  1
  O  O361  1  0.00601248  0.00622705  0.62740782  1
  O  O362  1  0.00889347  0.50906450  0.12541001  1
  O  O363  1  0.00687238  0.50758050  0.62265253  1
  O  O364  1  0.50565089  0.00457671  0.12111749  1
  O  O365  1  0.50081277  0.01038735  0.61968059  1
  O  O366  1  0.49727293  0.50621700  0.11352005  1
  O  O367  1  0.50730165  0.50596050  0.62498174  1
  O  O368  1  0.24720619  0.38190673  0.24320722  1
  O  O369  1  0.24607384  0.38038946  0.74399595  1
  O  O370  1  0.24313227  0.88160893  0.24945477  1
  O  O371  1  0.24306921  0.88198720  0.75012413  1
  O  O372  1  0.73727333  0.37620231  0.24921982  1
  O  O373  1  0.74543570  0.38012525  0.74361290  1
  O  O374  1  0.74468489  0.88075928  0.24335696  1
  O  O375  1  0.74429320  0.88447896  0.75280320  1
  O  O376  1  0.25485254  0.11841880  0.25697608  1
  O  O377  1  0.25566250  0.11924575  0.75692724  1
  O  O378  1  0.25521740  0.62009530  0.25490933  1
  O  O379  1  0.25616072  0.61937077  0.75335666  1
  O  O380  1  0.75394258  0.11969340  0.25512089  1
  O  O381  1  0.75012174  0.11752064  0.75860353  1
  O  O382  1  0.75749136  0.62616266  0.25547603  1
  O  O383  1  0.75276383  0.61784774  0.75724044  1
  O  O384  1  0.36869081  0.11875001  0.37135764  1
  O  O385  1  0.37074742  0.11854815  0.87171050  1
  O  O386  1  0.36909247  0.62021431  0.36891847  1
  O  O387  1  0.36939248  0.61977817  0.86715604  1
  O  O388  1  0.86890020  0.11854678  0.37012874  1
  O  O389  1  0.86250268  0.12536660  0.87278722  1
  O  O390  1  0.87058325  0.61873266  0.36997334  1
  O  O391  1  0.86972589  0.61511314  0.87439609  1
  O  O392  1  0.12972493  0.38547369  0.12509243  1
  O  O393  1  0.13201297  0.38116898  0.62825951  1
  O  O394  1  0.12596046  0.88194759  0.13174390  1
  O  O395  1  0.12546966  0.88092085  0.63262754  1
  O  O396  1  0.62384584  0.37703879  0.13667107  1
  O  O397  1  0.63131931  0.37908390  0.63000903  1
  O  O398  1  0.63069380  0.88135243  0.12997875  1
  O  O399  1  0.62754755  0.87674524  0.63469852  1
  O  O400  1  0.12514814  0.24870477  0.26384766  1
  O  O401  1  0.11627188  0.25596256  0.74966690  1
  O  O402  1  0.12089735  0.75501747  0.25521074  1
  O  O403  1  0.11966002  0.75571891  0.75454562  1
  O  O404  1  0.61750042  0.25981237  0.25269197  1
  O  O405  1  0.62696198  0.25461970  0.76065379  1
  O  O406  1  0.61935077  0.75549958  0.25375149  1
  O  O407  1  0.61949525  0.75500823  0.75619715  1
  O  O408  1  0.37973503  0.24208980  0.24984049  1
  O  O409  1  0.37884211  0.24076666  0.74957204  1
  O  O410  1  0.37895787  0.74498666  0.24461518  1
  O  O411  1  0.38076048  0.74455462  0.74508418  1
  O  O412  1  0.87443686  0.24205395  0.24918033  1
  O  O413  1  0.88455360  0.25095650  0.74375848  1
  O  O414  1  0.88313196  0.74321587  0.24695430  1
  O  O415  1  0.87996231  0.74871101  0.74102555  1
  O  O416  1  0.37541310  0.49234648  0.49198129  1
  O  O417  1  0.38124994  0.49545568  0.99373943  1
  O  O418  1  0.37926839  0.99502345  0.49573364  1
  O  O419  1  0.38074331  0.99469985  0.99516723  1
  O  O420  1  0.87400240  0.49583911  0.49056574  1
  O  O421  1  0.87543854  0.49227609  0.98998058  1
  O  O422  1  0.87643467  0.99620723  0.49213583  1
  O  O423  1  0.88188419  0.99393022  0.99800841  1
  O  O424  1  0.11975768  0.00533943  0.00599215  1
  O  O425  1  0.12376735  0.00572251  0.50833814  1
  O  O426  1  0.12395031  0.50245203  0.01098595  1
  O  O427  1  0.12543504  0.50752333  0.50485090  1
  O  O428  1  0.61863639  0.00176762  0.00678402  1
  O  O429  1  0.61907154  0.00561368  0.50145618  1
  O  O430  1  0.61198648  0.50012632  -0.00130842  1
  O  O431  1  0.62400001  0.50231067  0.50825402  1
  O  O432  1  0.36634508  0.37444352  0.11798508  1
  O  O433  1  0.36930642  0.37344339  0.61884179  1
  O  O434  1  0.37364378  0.86871457  0.11800030  1
  O  O435  1  0.37356271  0.86795883  0.61945181  1
  O  O436  1  0.87373042  0.37564694  0.11326812  1
  O  O437  1  0.86871717  0.37027202  0.61924948  1
  O  O438  1  0.86863618  0.87390434  0.11857119  1
  O  O439  1  0.87310312  0.86129100  0.62383661  1
  O  O440  1  0.13016701  0.13030738  0.38176711  1
  O  O441  1  0.13277890  0.12606282  0.88320006  1
  O  O442  1  0.13068988  0.63060737  0.37833404  1
  O  O443  1  0.13165981  0.63106417  0.87344261  1
  O  O444  1  0.63197896  0.12564322  0.38174028  1
  O  O445  1  0.63595807  0.13420847  0.87737025  1
  O  O446  1  0.63176526  0.63205087  0.37421450  1
  O  O447  1  0.63126847  0.63172969  0.87620091  1
