# generated using pymatgen
data_V3Zn3O8
_symmetry_space_group_name_H-M   'P 1'
_cell_length_a   17.08913427
_cell_length_b   17.08999041
_cell_length_c   17.08850834
_cell_angle_alpha   89.99626745
_cell_angle_beta   89.99039604
_cell_angle_gamma   89.99589814
_symmetry_Int_Tables_number   1
_chemical_formula_structural   V3Zn3O8
_chemical_formula_sum   'V96 Zn96 O256'
_cell_volume   4990.75243605
_cell_formula_units_Z   32
loop_
 _symmetry_equiv_pos_site_id
 _symmetry_equiv_pos_as_xyz
  1  'x, y, z'
loop_
 _atom_site_type_symbol
 _atom_site_label
 _atom_site_symmetry_multiplicity
 _atom_site_fract_x
 _atom_site_fract_y
 _atom_site_fract_z
 _atom_site_occupancy
  V  V0  1  0.00029459  0.50000711  0.50033254  1
  V  V1  1  0.62491485  -0.00070693  0.62526986  1
  V  V2  1  0.12476448  0.62509339  -0.00010458  1
  V  V3  1  0.37411629  0.75099058  0.12510338  1
  V  V4  1  0.62577081  0.50009115  0.62539374  1
  V  V5  1  0.50004464  0.50009342  0.49985633  1
  V  V6  1  0.37345417  0.50347452  0.87293194  1
  V  V7  1  0.24990615  0.49970465  0.24888193  1
  V  V8  1  0.50027290  0.62434677  0.12436652  1
  V  V9  1  0.62513408  0.62408069  -0.00001688  1
  V  V10  1  0.87498896  0.12367281  0.75079041  1
  V  V11  1  0.24849515  0.62581831  0.37504872  1
  V  V12  1  0.24976514  0.37569586  0.62524841  1
  V  V13  1  -0.00057961  0.75028805  0.25053221  1
  V  V14  1  0.12484625  0.50115792  0.62431641  1
  V  V15  1  0.24955297  0.75129693  -0.00003914  1
  V  V16  1  0.74934998  0.62416918  0.37478571  1
  V  V17  1  0.87355784  -0.00019592  0.37463104  1
  V  V18  1  0.75091849  0.50007388  0.74991038  1
  V  V19  1  0.74974964  0.37554357  0.62555907  1
  V  V20  1  0.75034654  0.74908863  -0.00048760  1
  V  V21  1  0.25071817  0.25057720  -0.00009521  1
  V  V22  1  0.37562268  0.12462101  0.25081313  1
  V  V23  1  0.37456866  0.12535103  0.75102864  1
  V  V24  1  0.74941960  0.12456764  0.87559011  1
  V  V25  1  0.74938356  0.24924192  0.50018944  1
  V  V26  1  0.37489925  0.37484890  0.00035624  1
  V  V27  1  0.24915811  -0.00004395  0.25078604  1
  V  V28  1  0.87531567  0.49901901  0.37576866  1
  V  V29  1  0.12426670  0.87525592  0.24974412  1
  V  V30  1  0.50174121  0.12474462  0.12512511  1
  V  V31  1  0.37587201  0.25116570  0.62541241  1
  V  V32  1  0.62480975  0.87505745  0.75006134  1
  V  V33  1  0.12575934  0.12505078  0.00007827  1
  V  V34  1  0.62516681  0.87328877  0.24960516  1
  V  V35  1  0.87374307  0.87431183  0.49969763  1
  V  V36  1  0.50065000  0.24917723  0.25032913  1
  V  V37  1  0.12572159  0.25167718  0.87504847  1
  V  V38  1  0.75023423  0.49905294  0.24968000  1
  V  V39  1  0.25111245  0.37464012  0.12450320  1
  V  V40  1  0.37479562  0.74900358  0.62551867  1
  V  V41  1  0.00069184  0.62460347  0.12449819  1
  V  V42  1  0.62419753  0.74902092  0.37541614  1
  V  V43  1  0.24793453  0.74994608  0.49860212  1
  V  V44  1  0.37450074  0.87686600  0.00100175  1
  V  V45  1  0.87448787  0.37519653  0.49977723  1
  V  V46  1  0.50065092  0.12519123  0.62463214  1
  V  V47  1  0.49990875  0.25073628  0.75031642  1
  V  V48  1  0.24980380  0.87527156  0.62430504  1
  V  V49  1  -0.00041248  0.00041780  0.50035629  1
  V  V50  1  0.37551267  0.37499206  0.49988003  1
  V  V51  1  0.62571746  0.37510789  0.24933409  1
  V  V52  1  0.12467898  0.25027963  0.37514806  1
  V  V53  1  0.87595349  0.12467732  0.24963280  1
  V  V54  1  0.50024028  0.37446707  0.37410591  1
  V  V55  1  0.75126090  0.62396860  0.87430391  1
  V  V56  1  0.87603099  0.24930019  0.12546654  1
  V  V57  1  0.49933522  0.87482911  0.37565129  1
  V  V58  1  0.37417825  0.62507157  0.24944757  1
  V  V59  1  0.87524503  0.62425807  0.24964625  1
  V  V60  1  0.00007988  0.37505831  0.87486043  1
  V  V61  1  -0.00022774  0.87588367  0.87482117  1
  V  V62  1  0.62552493  0.25002091  0.87579186  1
  V  V63  1  0.49843745  0.62582062  0.62585931  1
  V  V64  1  0.12567139  0.87630518  0.74900562  1
  V  V65  1  0.49932977  0.87604327  0.87674356  1
  V  V66  1  0.12531930  0.75069515  0.87460558  1
  V  V67  1  0.49975089  -0.00066299  0.49999965  1
  V  V68  1  0.75105399  0.37483297  0.12553647  1
  V  V69  1  0.87540318  0.74983289  0.62613600  1
  V  V70  1  0.00045243  0.00097896  -0.00025320  1
  V  V71  1  0.00107841  0.12437790  0.62422886  1
  V  V72  1  0.75026496  0.12446992  0.37626813  1
  V  V73  1  0.74984466  0.74993601  0.50095483  1
  V  V74  1  0.50077308  0.37513903  0.87510074  1
  V  V75  1  0.62533373  -0.00026573  0.12509882  1
  V  V76  1  0.12468887  0.37471816  0.24895238  1
  V  V77  1  0.87563272  0.87538066  -0.00081122  1
  V  V78  1  0.87440783  0.74936243  0.12457212  1
  V  V79  1  0.25058636  0.12557948  0.37522045  1
  V  V80  1  -0.00204482  0.87441317  0.37433509  1
  V  V81  1  0.25055194  0.24956505  0.49994929  1
  V  V82  1  0.62559684  0.24875629  0.37628031  1
  V  V83  1  0.87548372  0.49911121  0.87482991  1
  V  V84  1  -0.00011691  0.75113344  0.74886792  1
  V  V85  1  0.87442203  0.24925777  0.62455513  1
  V  V86  1  0.37434149  0.87538226  0.49948248  1
  V  V87  1  0.49924740  0.74910654  0.25032411  1
  V  V88  1  0.87554850  0.37427792  -0.00018261  1
  V  V89  1  0.12480424  0.37512932  0.75012188  1
  V  V90  1  0.50075279  0.50045325  -0.00008021  1
  V  V91  1  0.62436376  0.62471182  0.50010904  1
  V  V92  1  0.62535019  0.75030944  0.87511955  1
  V  V93  1  0.74922543  0.87427925  0.12470057  1
  V  V94  1  0.25130921  0.00118825  0.75067410  1
  V  V95  1  0.37474652  0.49958318  0.37407792  1
  Zn  Zn96  1  0.49767429  0.74821568  0.75031102  1
  Zn  Zn97  1  0.12572979  0.00118129  0.62287375  1
  Zn  Zn98  1  0.62504807  0.12372391  0.50027427  1
  Zn  Zn99  1  0.00109618  0.24955665  0.25053159  1
  Zn  Zn100  1  0.12606557  0.12391270  0.50044172  1
  Zn  Zn101  1  0.87715756  0.62493782  0.75035627  1
  Zn  Zn102  1  0.74940266  0.24899066  0.00135138  1
  Zn  Zn103  1  0.74900643  0.87553264  0.62566701  1
  Zn  Zn104  1  0.49863534  0.00182785  0.00087315  1
  Zn  Zn105  1  0.00096938  0.49929996  0.00063476  1
  Zn  Zn106  1  0.62555548  0.49883791  0.12430872  1
  Zn  Zn107  1  0.24999558  0.50345926  0.74914151  1
  Zn  Zn108  1  0.12289622  0.74755672  0.37642126  1
  Zn  Zn109  1  0.37596262  0.00291134  0.87729508  1
  Zn  Zn110  1  0.12475494  0.00132767  0.12492983  1
  Zn  Zn111  1  0.37648428  0.24946817  0.12403553  1
  Zn  Zn112  1  -0.00137024  0.37351954  0.37346771  1
  Zn  Zn113  1  0.62527167  0.12375336  -0.00005501  1
  Zn  Zn114  1  0.00123218  0.62608436  0.62622693  1
  Zn  Zn115  1  0.12430145  0.49974455  0.12353947  1
  Zn  Zn116  1  0.87262654  -0.00008507  0.87482673  1
  Zn  Zn117  1  0.00007612  0.12468957  0.12541524  1
  Zn  Zn118  1  0.75001680  -0.00100480  0.74962193  1
  Zn  Zn119  1  0.24978282  0.62651118  0.87162242  1
  Zn  Zn120  1  0.62543561  0.37572518  0.74987326  1
  Zn  Zn121  1  0.24889066  0.87671446  0.12531974  1
  Zn  Zn122  1  0.00131928  0.24938556  0.75004341  1
  Zn  Zn123  1  0.25314138  0.12595455  0.87587547  1
  Zn  Zn124  1  0.37320391  0.62736150  0.74996114  1
  Zn  Zn125  1  0.12387018  0.62704788  0.49875062  1
  Zn  Zn126  1  0.37584168  0.00021924  0.37606190  1
  Zn  Zn127  1  0.75101200  -0.00198505  0.25062553  1
  Zn  Zn128  1  0.18903167  0.18784768  0.18544248  1
  Zn  Zn129  1  0.18739336  0.18840844  0.68824277  1
  Zn  Zn130  1  0.18751833  0.68965201  0.18662451  1
  Zn  Zn131  1  0.18900791  0.68590823  0.68760637  1
  Zn  Zn132  1  0.68947097  0.18738696  0.19031974  1
  Zn  Zn133  1  0.68705837  0.18700968  0.68884715  1
  Zn  Zn134  1  0.68697418  0.68606293  0.18656977  1
  Zn  Zn135  1  0.68763391  0.68722024  0.68866785  1
  Zn  Zn136  1  0.31290269  0.31120361  0.31101282  1
  Zn  Zn137  1  0.31119521  0.31511926  0.81266852  1
  Zn  Zn138  1  0.31161710  0.81255036  0.31449579  1
  Zn  Zn139  1  0.31230127  0.81214732  0.81234470  1
  Zn  Zn140  1  0.81192478  0.31176594  0.31294237  1
  Zn  Zn141  1  0.81291213  0.31191944  0.81107047  1
  Zn  Zn142  1  0.81132075  0.81126718  0.31220398  1
  Zn  Zn143  1  0.81208413  0.81294928  0.81279086  1
  Zn  Zn144  1  0.18836832  0.43704730  0.43704642  1
  Zn  Zn145  1  0.18822777  0.43867190  0.93740137  1
  Zn  Zn146  1  0.18504100  0.93792862  0.43681641  1
  Zn  Zn147  1  0.18808112  0.93814572  0.93521926  1
  Zn  Zn148  1  0.68754410  0.43657538  0.43761732  1
  Zn  Zn149  1  0.68938259  0.43655327  0.93847886  1
  Zn  Zn150  1  0.68748304  0.93684862  0.43817390  1
  Zn  Zn151  1  0.68717531  0.93897818  0.93878557  1
  Zn  Zn152  1  0.31229921  0.06292150  0.06535988  1
  Zn  Zn153  1  0.31389619  0.06304828  0.56317993  1
  Zn  Zn154  1  0.31101091  0.56253090  0.06153425  1
  Zn  Zn155  1  0.31160684  0.56421120  0.56118346  1
  Zn  Zn156  1  0.81146563  0.06208298  0.06123911  1
  Zn  Zn157  1  0.81117396  0.06110572  0.56267964  1
  Zn  Zn158  1  0.81335162  0.56046443  0.06147552  1
  Zn  Zn159  1  0.81293417  0.56404760  0.56360374  1
  Zn  Zn160  1  0.43761977  0.43740041  0.18605823  1
  Zn  Zn161  1  0.43877481  0.43818956  0.68898115  1
  Zn  Zn162  1  0.43707124  0.93814514  0.18900292  1
  Zn  Zn163  1  0.43688501  0.93697654  0.68738013  1
  Zn  Zn164  1  0.93974513  0.43819808  0.18648279  1
  Zn  Zn165  1  0.93791119  0.43636027  0.68890115  1
  Zn  Zn166  1  0.93736839  0.93836919  0.18568202  1
  Zn  Zn167  1  0.93733422  0.93788576  0.68708335  1
  Zn  Zn168  1  0.06172347  0.06253688  0.31417302  1
  Zn  Zn169  1  0.06446256  0.06275100  0.81361062  1
  Zn  Zn170  1  0.06289772  0.56153075  0.31319296  1
  Zn  Zn171  1  0.06007749  0.56350524  0.81170110  1
  Zn  Zn172  1  0.56402293  0.06097497  0.31248641  1
  Zn  Zn173  1  0.56136571  0.06204630  0.81155293  1
  Zn  Zn174  1  0.56260807  0.56127336  0.31138966  1
  Zn  Zn175  1  0.56223251  0.56312724  0.81066318  1
  Zn  Zn176  1  0.43780351  0.18599745  0.43776658  1
  Zn  Zn177  1  0.43768895  0.18749131  0.93822348  1
  Zn  Zn178  1  0.43508227  0.68754795  0.43876028  1
  Zn  Zn179  1  0.43809378  0.68871906  0.93833321  1
  Zn  Zn180  1  0.93787069  0.18772087  0.43764964  1
  Zn  Zn181  1  0.93859088  0.18953064  0.93729954  1
  Zn  Zn182  1  0.93755184  0.68623300  0.43803043  1
  Zn  Zn183  1  0.93857027  0.68748868  0.93593371  1
  Zn  Zn184  1  0.06140837  0.31173222  0.06220881  1
  Zn  Zn185  1  0.06175080  0.31295409  0.56225624  1
  Zn  Zn186  1  0.06241017  0.81264463  0.06397352  1
  Zn  Zn187  1  0.06311037  0.81413776  0.56209120  1
  Zn  Zn188  1  0.56363128  0.31217559  0.06152122  1
  Zn  Zn189  1  0.56377692  0.31306213  0.56223254  1
  Zn  Zn190  1  0.56167769  0.81111884  0.06213514  1
  Zn  Zn191  1  0.56056164  0.81195363  0.56297955  1
  O  O192  1  0.12156195  0.12497259  0.11281529  1
  O  O193  1  0.11248834  0.12541017  0.62391615  1
  O  O194  1  0.11946073  0.62666323  0.11586143  1
  O  O195  1  0.12319038  0.61262834  0.62137718  1
  O  O196  1  0.61930781  0.11685733  0.12752757  1
  O  O197  1  0.61864607  0.11656570  0.62555081  1
  O  O198  1  0.61848485  0.62347461  0.11816747  1
  O  O199  1  0.62011813  0.61995321  0.61846358  1
  O  O200  1  0.38045381  0.37964705  0.37944778  1
  O  O201  1  0.38090774  0.38331397  0.88059297  1
  O  O202  1  0.38206162  0.87610619  0.38138548  1
  O  O203  1  0.38365811  0.87473592  0.88415939  1
  O  O204  1  0.87531208  0.38108322  0.38153948  1
  O  O205  1  0.87969802  0.37821426  0.87980100  1
  O  O206  1  0.87873546  0.87961038  0.37919688  1
  O  O207  1  0.88110000  0.87689550  0.88146858  1
  O  O208  1  0.24964130  0.00632052  0.36516528  1
  O  O209  1  0.25292611  0.00117818  0.86166776  1
  O  O210  1  0.25642910  0.50420991  0.36913221  1
  O  O211  1  0.26261241  0.50124049  0.87491148  1
  O  O212  1  0.75602909  0.00545641  0.37374360  1
  O  O213  1  0.74986141  0.01199010  0.87306610  1
  O  O214  1  0.75520488  0.50523307  0.37031882  1
  O  O215  1  0.75546825  0.50436842  0.86964987  1
  O  O216  1  0.24832300  0.49334778  0.13153148  1
  O  O217  1  0.23998881  0.49346259  0.62195246  1
  O  O218  1  0.24704537  0.99887996  0.13910410  1
  O  O219  1  0.24974138  0.99500559  0.63472667  1
  O  O220  1  0.74994917  0.49324282  0.13241442  1
  O  O221  1  0.74548049  0.49561627  0.62904710  1
  O  O222  1  0.74142064  0.99324390  0.12596887  1
  O  O223  1  0.73937861  0.99673558  0.62731508  1
  O  O224  1  0.01231591  0.37335075  0.25202549  1
  O  O225  1  0.00646436  0.37174288  0.75617952  1
  O  O226  1  0.00520687  0.87104649  0.25403834  1
  O  O227  1  0.00568866  0.87187974  0.75518430  1
  O  O228  1  0.50506640  0.36976362  0.25508519  1
  O  O229  1  0.50233172  0.36811972  0.75707208  1
  O  O230  1  0.50508820  0.86814058  0.25513806  1
  O  O231  1  0.50835101  0.87455277  0.75955367  1
  O  O232  1  0.49646101  0.12895551  0.24371267  1
  O  O233  1  0.49431063  0.13088351  0.74427151  1
  O  O234  1  0.49391564  0.62972074  0.24547704  1
  O  O235  1  0.49748663  0.62807391  0.74126716  1
  O  O236  1  0.98798532  0.12589257  0.24801147  1
  O  O237  1  0.99188702  0.12489572  0.74217836  1
  O  O238  1  0.99423941  0.62985878  0.24545022  1
  O  O239  1  0.99723785  0.63525569  0.74690538  1
  O  O240  1  0.36939669  0.25727223  0.00083602  1
  O  O241  1  0.37093922  0.25587089  0.50541532  1
  O  O242  1  0.37034397  0.75859602  0.00503583  1
  O  O243  1  0.36828846  0.75636399  0.50508258  1
  O  O244  1  0.87350046  0.25449615  0.01000693  1
  O  O245  1  0.86897662  0.25542533  0.50468034  1
  O  O246  1  0.87004791  0.75533798  0.00512625  1
  O  O247  1  0.87022378  0.75436775  0.50685890  1
  O  O248  1  0.13162701  0.25118495  0.49043271  1
  O  O249  1  0.13010842  0.24317463  0.99542693  1
  O  O250  1  0.13144049  0.74852062  0.49703061  1
  O  O251  1  0.12902823  0.74491637  0.99516502  1
  O  O252  1  0.63144908  0.24826462  0.49381999  1
  O  O253  1  0.62675936  0.24690725  0.98753935  1
  O  O254  1  0.62930334  0.74435519  0.49477939  1
  O  O255  1  0.63096690  0.74464669  0.99493401  1
  O  O256  1  0.50249445  0.24001700  0.13156738  1
  O  O257  1  0.49536895  0.24601106  0.62977803  1
  O  O258  1  0.49452172  0.74404985  0.13088892  1
  O  O259  1  0.49286311  0.74332502  0.62445490  1
  O  O260  1  0.98720404  0.24770527  0.12771539  1
  O  O261  1  0.99315126  0.24033845  0.62484804  1
  O  O262  1  0.99293280  0.74530554  0.13090029  1
  O  O263  1  0.99085362  0.75127091  0.62925570  1
  O  O264  1  0.01178868  0.25216327  0.37404931  1
  O  O265  1  0.00768657  0.25681077  0.87331698  1
  O  O266  1  -0.00167233  0.75640975  0.36807460  1
  O  O267  1  0.00521473  0.75725919  0.86929546  1
  O  O268  1  0.50531088  0.25527349  0.37040080  1
  O  O269  1  0.50762248  0.25437014  0.87054177  1
  O  O270  1  0.50495418  0.75400095  0.37012112  1
  O  O271  1  0.50644255  0.76111245  0.87549809  1
  O  O272  1  0.24922700  0.13192888  0.49458914  1
  O  O273  1  0.24191727  0.12974865  0.99971777  1
  O  O274  1  0.24886034  0.63150088  0.49214264  1
  O  O275  1  0.23986733  0.63247700  0.99916825  1
  O  O276  1  0.74929742  0.13173476  0.49409410  1
  O  O277  1  0.74832577  0.12773875  0.98828601  1
  O  O278  1  0.74406438  0.62961989  0.49400748  1
  O  O279  1  0.74526243  0.63003481  0.99476822  1
  O  O280  1  0.25482834  0.37037398  0.00556151  1
  O  O281  1  0.25684396  0.36937731  0.50479706  1
  O  O282  1  0.25860179  0.87126061  0.00126148  1
  O  O283  1  0.25448663  0.87141828  0.50416582  1
  O  O284  1  0.75740609  0.37173075  0.00711877  1
  O  O285  1  0.75532179  0.36971259  0.50568761  1
  O  O286  1  0.75510808  0.86884760  0.00461512  1
  O  O287  1  0.75591406  0.86686322  0.50071530  1
  O  O288  1  0.13153469  0.48974479  0.24963937  1
  O  O289  1  0.12380507  0.49430211  0.73915045  1
  O  O290  1  0.13123676  0.99329187  0.24988496  1
  O  O291  1  0.13461288  0.99525458  0.74864153  1
  O  O292  1  0.63191635  0.49316731  0.24887069  1
  O  O293  1  0.63215136  0.49834310  0.74311867  1
  O  O294  1  0.62719585  0.99243146  0.24048713  1
  O  O295  1  0.62362863  0.99108176  0.74239479  1
  O  O296  1  0.36547144  0.00470334  0.25270859  1
  O  O297  1  0.36672328  0.00564447  0.75015945  1
  O  O298  1  0.37020230  0.50511667  0.25496048  1
  O  O299  1  0.37513674  0.50077891  0.76206830  1
  O  O300  1  0.87375149  0.00783877  0.25483444  1
  O  O301  1  0.87271102  0.01159815  0.75208864  1
  O  O302  1  0.87028471  0.50488552  0.25591467  1
  O  O303  1  0.86879615  0.50164560  0.75584046  1
  O  O304  1  0.12752094  0.36584892  0.36562702  1
  O  O305  1  0.12030156  0.37144317  0.87028830  1
  O  O306  1  0.11688957  0.87434930  0.36390364  1
  O  O307  1  0.11933746  0.86997149  0.86906571  1
  O  O308  1  0.61972116  0.36940133  0.36971682  1
  O  O309  1  0.62042361  0.36572339  0.87423782  1
  O  O310  1  0.61976292  0.86794781  0.36974370  1
  O  O311  1  0.61813892  0.87121238  0.87031104  1
  O  O312  1  0.38636498  0.12508885  0.13161203  1
  O  O313  1  0.38116241  0.13243873  0.63073579  1
  O  O314  1  0.38017271  0.63073101  0.12981880  1
  O  O315  1  0.38136426  0.63087866  0.62352513  1
  O  O316  1  0.87330999  0.13235815  0.13265336  1
  O  O317  1  0.88112494  0.12868261  0.63210908  1
  O  O318  1  0.87945939  0.63040529  0.13007764  1
  O  O319  1  0.87679354  0.63836204  0.62606561  1
  O  O320  1  0.25343871  0.25646434  0.11788237  1
  O  O321  1  0.25597512  0.25568111  0.61965284  1
  O  O322  1  0.25726642  0.75387525  0.11906789  1
  O  O323  1  0.25460468  0.75632227  0.61854816  1
  O  O324  1  0.76073416  0.25505040  0.12594478  1
  O  O325  1  0.75465469  0.25443649  0.62025545  1
  O  O326  1  0.75488458  0.75405833  0.11893936  1
  O  O327  1  0.75813638  0.75154242  0.61933352  1
  O  O328  1  0.24314728  0.24581646  0.37977798  1
  O  O329  1  0.24358758  0.24983455  0.88227116  1
  O  O330  1  0.24871558  0.74343783  0.38067501  1
  O  O331  1  0.24277992  0.75048463  0.88224183  1
  O  O332  1  0.74509391  0.24470351  0.38084436  1
  O  O333  1  0.74169781  0.24143326  0.87377192  1
  O  O334  1  0.74406111  0.74331508  0.38018657  1
  O  O335  1  0.74502516  0.74469615  0.88087966  1
  O  O336  1  0.00779619  0.11703085  -0.00105495  1
  O  O337  1  -0.00179329  0.11960392  0.50962157  1
  O  O338  1  0.00980433  0.62710503  0.00561085  1
  O  O339  1  0.00056585  0.61157444  0.50195640  1
  O  O340  1  0.50221771  0.12304813  0.01238921  1
  O  O341  1  0.50154166  0.11824334  0.50701303  1
  O  O342  1  0.50588787  0.62080691  0.00536961  1
  O  O343  1  0.50519307  0.61888673  0.50398274  1
  O  O344  1  0.49498473  0.38031603  0.49386690  1
  O  O345  1  0.49524247  0.38008266  0.99484591  1
  O  O346  1  0.49442270  0.87939495  0.49470738  1
  O  O347  1  0.49162220  0.87496976  0.99331177  1
  O  O348  1  0.99333720  0.38460447  0.49897076  1
  O  O349  1  0.99374637  0.37612281  0.99345884  1
  O  O350  1  0.99311134  0.88018721  0.49392513  1
  O  O351  1  0.99611993  0.88195300  0.99520426  1
  O  O352  1  0.49467451  0.49436592  0.37975319  1
  O  O353  1  0.49345704  0.49530611  0.88048638  1
  O  O354  1  0.50025929  0.99245884  0.38099083  1
  O  O355  1  0.49961203  0.98804291  0.87881910  1
  O  O356  1  0.99404836  0.49757202  0.38403443  1
  O  O357  1  0.99323255  0.49300001  0.87628032  1
  O  O358  1  0.99246185  0.99477387  0.38031173  1
  O  O359  1  0.99937356  0.99487611  0.88511443  1
  O  O360  1  0.00170843  0.00174343  0.11129982  1
  O  O361  1  -0.00078796  0.00955681  0.61934923  1
  O  O362  1  0.00341748  0.50887738  0.12184848  1
  O  O363  1  0.00751430  0.49891095  0.61667689  1
  O  O364  1  0.50905528  0.00801892  0.12753095  1
  O  O365  1  0.50629777  0.00451136  0.62041981  1
  O  O366  1  0.50110935  0.50673627  0.11823655  1
  O  O367  1  0.50544582  0.50438021  0.61829635  1
  O  O368  1  0.24349820  0.37916436  0.24514239  1
  O  O369  1  0.24338818  0.37891864  0.74217108  1
  O  O370  1  0.24160195  0.88318422  0.25180277  1
  O  O371  1  0.24603795  0.88300178  0.74452427  1
  O  O372  1  0.74528842  0.37991403  0.24570876  1
  O  O373  1  0.74918390  0.38134390  0.74266361  1
  O  O374  1  0.74309225  0.87393234  0.24262483  1
  O  O375  1  0.73641743  0.87748312  0.75086408  1
  O  O376  1  0.25456053  0.11834845  0.25443226  1
  O  O377  1  0.25574367  0.11697137  0.74958130  1
  O  O378  1  0.25560246  0.62010108  0.25370846  1
  O  O379  1  0.25436007  0.62049154  0.75426937  1
  O  O380  1  0.76138269  0.12325202  0.25692724  1
  O  O381  1  0.75837341  0.12404387  0.75795815  1
  O  O382  1  0.75541457  0.61992024  0.25514448  1
  O  O383  1  0.75186970  0.61877135  0.75721508  1
  O  O384  1  0.36851850  0.12338272  0.36858982  1
  O  O385  1  0.37421078  0.12257697  0.86743537  1
  O  O386  1  0.37010816  0.61884755  0.36859379  1
  O  O387  1  0.37528727  0.61464172  0.87663084  1
  O  O388  1  0.87071259  0.12044447  0.36789628  1
  O  O389  1  0.86704630  0.12672482  0.86692560  1
  O  O390  1  0.86860263  0.61933608  0.36949544  1
  O  O391  1  0.86844068  0.61882528  0.87456238  1
  O  O392  1  0.13103411  0.37397584  0.13420165  1
  O  O393  1  0.12953139  0.38179744  0.62921471  1
  O  O394  1  0.12583581  0.87758432  0.13785490  1
  O  O395  1  0.13171036  0.87809920  0.63176675  1
  O  O396  1  0.63200604  0.37492073  0.13162492  1
  O  O397  1  0.63185998  0.38214706  0.62543390  1
  O  O398  1  0.62861799  0.88035027  0.12954744  1
  O  O399  1  0.62302991  0.88073870  0.63439256  1
  O  O400  1  0.12643333  0.25741506  0.25798178  1
  O  O401  1  0.12436508  0.25697368  0.75663999  1
  O  O402  1  0.11826653  0.75949545  0.25128488  1
  O  O403  1  0.12031902  0.75692498  0.75419973  1
  O  O404  1  0.62044192  0.25545705  0.25687019  1
  O  O405  1  0.61903017  0.25127140  0.75993482  1
  O  O406  1  0.61908388  0.75323195  0.25550192  1
  O  O407  1  0.62310737  0.75965935  0.75617214  1
  O  O408  1  0.38281878  0.24304296  0.24793920  1
  O  O409  1  0.37987622  0.24636364  0.74448554  1
  O  O410  1  0.37993567  0.74490736  0.24539088  1
  O  O411  1  0.37740425  0.74996594  0.74130265  1
  O  O412  1  0.87608667  0.24206052  0.24343020  1
  O  O413  1  0.87645364  0.23868625  0.74354457  1
  O  O414  1  0.87925061  0.74382551  0.24428346  1
  O  O415  1  0.88016668  0.75202811  0.74115541  1
  O  O416  1  0.38049500  0.49412226  0.49375268  1
  O  O417  1  0.38076778  0.49536596  0.99222587  1
  O  O418  1  0.38151247  0.99316081  0.49893543  1
  O  O419  1  0.37593228  0.98901875  1.00009180  1
  O  O420  1  0.88134405  0.49529892  0.49638373  1
  O  O421  1  0.87667859  0.49232672  0.99277553  1
  O  O422  1  0.87929206  0.99382135  0.49458615  1
  O  O423  1  0.88381838  0.99444675  0.99834078  1
  O  O424  1  0.11847245  0.00742571  -0.00014895  1
  O  O425  1  0.11602064  0.00366398  0.50175347  1
  O  O426  1  0.12403976  0.51251305  0.00115911  1
  O  O427  1  0.11644679  0.49677084  0.50770032  1
  O  O428  1  0.62177699  0.00072343  0.01375222  1
  O  O429  1  0.61837367  -0.00087753  0.50897045  1
  O  O430  1  0.61892746  0.50606079  0.00052714  1
  O  O431  1  0.61989022  0.50536801  0.50445061  1
  O  O432  1  0.36977030  0.37328832  0.11824922  1
  O  O433  1  0.37089928  0.37062002  0.61932181  1
  O  O434  1  0.37565905  0.86957616  0.11662425  1
  O  O435  1  0.36949482  0.86966783  0.61880703  1
  O  O436  1  0.87101690  0.36699375  0.12208748  1
  O  O437  1  0.86943249  0.36918249  0.61964911  1
  O  O438  1  0.86944028  0.86893973  0.11928620  1
  O  O439  1  0.87297100  0.86606155  0.61926707  1
  O  O440  1  0.13070314  0.13566772  0.37505513  1
  O  O441  1  0.12698819  0.13152287  0.88536988  1
  O  O442  1  0.13282631  0.62640956  0.37668841  1
  O  O443  1  0.12385380  0.63214987  0.88465978  1
  O  O444  1  0.63176951  0.13092851  0.37583414  1
  O  O445  1  0.63177155  0.13250371  0.87398227  1
  O  O446  1  0.62939512  0.62954621  0.38010251  1
  O  O447  1  0.63044711  0.63051944  0.88053902  1
