# generated using pymatgen
data_V3Zn3O8
_symmetry_space_group_name_H-M   'P 1'
_cell_length_a   17.08691926
_cell_length_b   17.08533270
_cell_length_c   17.08613280
_cell_angle_alpha   90.00761467
_cell_angle_beta   89.99666234
_cell_angle_gamma   90.00205498
_symmetry_Int_Tables_number   1
_chemical_formula_structural   V3Zn3O8
_chemical_formula_sum   'V96 Zn96 O256'
_cell_volume   4988.05208836
_cell_formula_units_Z   32
loop_
 _symmetry_equiv_pos_site_id
 _symmetry_equiv_pos_as_xyz
  1  'x, y, z'
loop_
 _atom_site_type_symbol
 _atom_site_label
 _atom_site_symmetry_multiplicity
 _atom_site_fract_x
 _atom_site_fract_y
 _atom_site_fract_z
 _atom_site_occupancy
  V  V0  1  0.37520851  -0.00008650  0.87575607  1
  V  V1  1  0.37605388  0.24948900  0.62482159  1
  V  V2  1  0.37618366  0.49954407  0.87687304  1
  V  V3  1  0.74866530  0.12526594  0.37529456  1
  V  V4  1  0.00008290  0.75021080  0.75018974  1
  V  V5  1  0.12543809  0.87561657  0.75111298  1
  V  V6  1  0.50246973  0.37469540  0.87376171  1
  V  V7  1  0.12612414  0.37412915  0.74974767  1
  V  V8  1  0.87453486  0.37482958  0.49872210  1
  V  V9  1  0.87560789  0.00034026  0.37556499  1
  V  V10  1  0.12360608  0.87498304  0.25104079  1
  V  V11  1  0.37391931  0.50073698  0.37523531  1
  V  V12  1  0.87384976  0.75017274  0.62415967  1
  V  V13  1  0.37551612  0.62598467  0.74992002  1
  V  V14  1  0.49928948  0.25009108  0.25024560  1
  V  V15  1  0.12445533  0.62445353  0.00080980  1
  V  V16  1  0.75135096  0.75123691  0.00053613  1
  V  V17  1  0.75067295  0.62486784  0.87500210  1
  V  V18  1  0.00003345  0.62523747  0.62438494  1
  V  V19  1  0.12595274  0.25000727  0.87468074  1
  V  V20  1  0.37399423  0.25056724  0.12463729  1
  V  V21  1  0.12422333  0.00094862  0.12529935  1
  V  V22  1  0.62407002  0.75123041  0.37448907  1
  V  V23  1  0.12526714  0.12522217  0.00032840  1
  V  V24  1  0.12529075  0.49960545  0.12427534  1
  V  V25  1  0.50182733  0.25011006  0.74989112  1
  V  V26  1  0.37523463  0.87626819  0.00135353  1
  V  V27  1  0.37373446  -0.00103514  0.37573554  1
  V  V28  1  0.12270548  0.75011422  0.37453905  1
  V  V29  1  0.75070335  0.87551407  0.12423601  1
  V  V30  1  0.12487185  0.75024305  0.87602984  1
  V  V31  1  0.50083825  0.12358064  0.62484237  1
  V  V32  1  0.87420114  0.49964085  0.37323414  1
  V  V33  1  0.62485813  0.00062858  0.12517599  1
  V  V34  1  0.74850569  0.75026125  0.50088671  1
  V  V35  1  0.25059868  0.24922007  0.50005796  1
  V  V36  1  0.24948479  0.49974572  0.24969535  1
  V  V37  1  0.50077871  0.49985066  0.50003694  1
  V  V38  1  0.62579406  0.75002532  0.87513016  1
  V  V39  1  0.62491151  -0.00023141  0.62616615  1
  V  V40  1  0.24992732  0.87371094  0.62585696  1
  V  V41  1  0.87629784  0.25007871  0.12407130  1
  V  V42  1  0.25080130  -0.00006269  0.75080636  1
  V  V43  1  0.75002493  0.50021610  0.74805339  1
  V  V44  1  0.37540838  0.87464848  0.49994360  1
  V  V45  1  0.12567547  0.49923701  0.62554486  1
  V  V46  1  0.25050864  0.24993264  0.00009682  1
  V  V47  1  0.87436048  0.87527887  0.00113164  1
  V  V48  1  0.62539684  0.12450277  0.49946137  1
  V  V49  1  0.62476453  0.87439272  0.75101798  1
  V  V50  1  0.62418070  0.62489017  0.49915555  1
  V  V51  1  0.00108581  0.50003073  -0.00014600  1
  V  V52  1  0.00025617  0.37414094  0.37354480  1
  V  V53  1  0.24968856  0.00075009  0.25102335  1
  V  V54  1  0.75187370  0.50227782  0.25002142  1
  V  V55  1  0.00155456  0.37487152  0.87375684  1
  V  V56  1  0.00026101  0.00109455  0.00053105  1
  V  V57  1  0.12582909  0.24999309  0.37545954  1
  V  V58  1  0.49972199  0.12518883  0.12558720  1
  V  V59  1  0.37511667  0.74957428  0.12662927  1
  V  V60  1  0.24932896  0.87506232  0.12640531  1
  V  V61  1  0.24923047  0.74951652  0.50082474  1
  V  V62  1  0.37612708  0.37491162  0.50056066  1
  V  V63  1  0.87365255  0.00247501  0.87422967  1
  V  V64  1  0.24951226  0.75081235  0.00117225  1
  V  V65  1  0.49924975  -0.00039227  0.00058525  1
  V  V66  1  0.87497937  0.12628582  0.24956211  1
  V  V67  1  0.37425297  0.12403732  0.25106555  1
  V  V68  1  0.62314753  0.37370317  0.24927010  1
  V  V69  1  0.12409257  0.00040491  0.62550424  1
  V  V70  1  0.87542873  0.62509145  0.74970560  1
  V  V71  1  0.12447421  0.62510365  0.50023191  1
  V  V72  1  0.25071565  0.37552594  0.12427661  1
  V  V73  1  -0.00013703  0.87526371  0.37457996  1
  V  V74  1  0.49937143  0.62566116  0.12639758  1
  V  V75  1  0.25079758  0.62534112  0.87569680  1
  V  V76  1  0.62566410  0.62549122  0.00065725  1
  V  V77  1  0.62557540  0.49941197  0.62341561  1
  V  V78  1  0.87664382  0.49924233  0.87483018  1
  V  V79  1  0.87692440  0.24858037  0.62530615  1
  V  V80  1  0.62426290  0.50016922  0.12420674  1
  V  V81  1  0.62456262  0.87526796  0.25073787  1
  V  V82  1  0.50004190  0.74976781  0.75036503  1
  V  V83  1  0.49989185  0.37459781  0.37387217  1
  V  V84  1  0.24933072  0.62386520  0.37539269  1
  V  V85  1  0.62720213  0.12775801  -0.00349413  1
  V  V86  1  0.37557500  0.12362037  0.75021009  1
  V  V87  1  0.75101404  0.00181663  0.75124340  1
  V  V88  1  0.74962959  0.87425101  0.62545420  1
  V  V89  1  -0.00061751  0.50031299  0.49890739  1
  V  V90  1  0.25045904  0.37505534  0.62606588  1
  V  V91  1  0.74994444  0.37386074  0.12108901  1
  V  V92  1  0.74950566  0.00085025  0.24991040  1
  V  V93  1  -0.00043271  0.87596909  0.87584633  1
  V  V94  1  0.75117532  0.37627624  0.62266547  1
  V  V95  1  0.00046954  0.00120819  0.50186180  1
  Zn  Zn96  1  0.50100968  0.49798892  0.00048916  1
  Zn  Zn97  1  0.75108028  0.25062219  -0.00561534  1
  Zn  Zn98  1  0.49823706  0.75170648  0.25116229  1
  Zn  Zn99  1  0.37457001  0.62671278  0.25114675  1
  Zn  Zn100  1  0.87622220  0.12590032  0.75035527  1
  Zn  Zn101  1  0.62865517  0.25161164  0.87201982  1
  Zn  Zn102  1  -0.00376989  0.74850699  0.24843009  1
  Zn  Zn103  1  0.87947578  0.62668553  0.24983275  1
  Zn  Zn104  1  0.87538701  0.74685980  0.12874702  1
  Zn  Zn105  1  0.00120418  0.12560358  0.62766687  1
  Zn  Zn106  1  0.75021254  0.25084947  0.49755543  1
  Zn  Zn107  1  0.49926534  0.62353504  0.62460805  1
  Zn  Zn108  1  -0.00201319  0.62677188  0.12718296  1
  Zn  Zn109  1  0.12711884  0.12493251  0.50178492  1
  Zn  Zn110  1  0.75195080  0.13086110  0.87169301  1
  Zn  Zn111  1  0.75161063  0.62637400  0.37392049  1
  Zn  Zn112  1  0.00060794  0.12643409  0.12677438  1
  Zn  Zn113  1  0.50050907  0.87503626  0.87697863  1
  Zn  Zn114  1  0.25048826  0.49970357  0.75026037  1
  Zn  Zn115  1  0.24968042  0.12515334  0.37691775  1
  Zn  Zn116  1  0.87388400  0.87484999  0.49968250  1
  Zn  Zn117  1  0.62690343  0.37363559  0.74764583  1
  Zn  Zn118  1  0.37695191  0.37389932  -0.00000661  1
  Zn  Zn119  1  0.49870845  0.87507187  0.37396030  1
  Zn  Zn120  1  0.62498999  0.24879243  0.37435742  1
  Zn  Zn121  1  0.49947857  -0.00210502  0.49954021  1
  Zn  Zn122  1  0.00149215  0.24984498  0.25013947  1
  Zn  Zn123  1  0.25035368  0.12540377  0.87520957  1
  Zn  Zn124  1  0.12408029  0.37402658  0.24828860  1
  Zn  Zn125  1  0.00118692  0.24661635  0.74998973  1
  Zn  Zn126  1  0.87607635  0.37377261  -0.00247069  1
  Zn  Zn127  1  0.37516875  0.74853121  0.62455052  1
  Zn  Zn128  1  0.18802583  0.18764969  0.18845114  1
  Zn  Zn129  1  0.18739266  0.18588682  0.68737304  1
  Zn  Zn130  1  0.18501730  0.68615520  0.18892721  1
  Zn  Zn131  1  0.18777103  0.68755551  0.68797179  1
  Zn  Zn132  1  0.68739646  0.18802854  0.18664077  1
  Zn  Zn133  1  0.69004866  0.18927161  0.68677366  1
  Zn  Zn134  1  0.68820391  0.68911297  0.18699019  1
  Zn  Zn135  1  0.68633367  0.68536523  0.68643577  1
  Zn  Zn136  1  0.31142446  0.31382717  0.31164463  1
  Zn  Zn137  1  0.31290777  0.31136812  0.81208893  1
  Zn  Zn138  1  0.31053073  0.81080491  0.31256138  1
  Zn  Zn139  1  0.31329262  0.81384024  0.81513852  1
  Zn  Zn140  1  0.81087519  0.31132261  0.31141120  1
  Zn  Zn141  1  0.81278242  0.31341678  0.81022820  1
  Zn  Zn142  1  0.81254640  0.81337354  0.31244628  1
  Zn  Zn143  1  0.81284730  0.81407284  0.81304948  1
  Zn  Zn144  1  0.18742255  0.43584549  0.43830777  1
  Zn  Zn145  1  0.18914169  0.43643090  0.93784196  1
  Zn  Zn146  1  0.18726427  0.93730930  0.43737826  1
  Zn  Zn147  1  0.18836235  0.93886791  0.93798589  1
  Zn  Zn148  1  0.68717868  0.43632981  0.43597884  1
  Zn  Zn149  1  0.68656037  0.43991231  0.93635346  1
  Zn  Zn150  1  0.68833061  0.93746364  0.43798345  1
  Zn  Zn151  1  0.68774708  0.93886279  0.93661975  1
  Zn  Zn152  1  0.31116388  0.06361932  0.06334770  1
  Zn  Zn153  1  0.31108534  0.06229168  0.56295763  1
  Zn  Zn154  1  0.31276849  0.56273148  0.06212340  1
  Zn  Zn155  1  0.31243017  0.56163258  0.56311406  1
  Zn  Zn156  1  0.81209618  0.06339039  0.06155662  1
  Zn  Zn157  1  0.81251341  0.06269704  0.56300407  1
  Zn  Zn158  1  0.81589280  0.56326941  0.06219454  1
  Zn  Zn159  1  0.81170401  0.56359940  0.55967529  1
  Zn  Zn160  1  0.43522839  0.43877727  0.18854413  1
  Zn  Zn161  1  0.43911504  0.43760018  0.68822834  1
  Zn  Zn162  1  0.43851399  0.93691771  0.18864176  1
  Zn  Zn163  1  0.43781583  0.93651917  0.68687424  1
  Zn  Zn164  1  0.93921233  0.43634341  0.18722642  1
  Zn  Zn165  1  0.93885041  0.43558210  0.68754351  1
  Zn  Zn166  1  0.93747037  0.93708387  0.18745110  1
  Zn  Zn167  1  0.93584950  0.93675395  0.68790099  1
  Zn  Zn168  1  0.06186361  0.06541802  0.31309734  1
  Zn  Zn169  1  0.06069761  0.06547501  0.81253877  1
  Zn  Zn170  1  0.06255214  0.56193999  0.30991366  1
  Zn  Zn171  1  0.06332217  0.56157318  0.81215293  1
  Zn  Zn172  1  0.55931704  0.05991572  0.31463696  1
  Zn  Zn173  1  0.56175780  0.06176573  0.81370215  1
  Zn  Zn174  1  0.56348213  0.56278594  0.31207041  1
  Zn  Zn175  1  0.56387556  0.56168763  0.81148405  1
  Zn  Zn176  1  0.43832879  0.18628158  0.43709019  1
  Zn  Zn177  1  0.43813999  0.18735386  0.93688325  1
  Zn  Zn178  1  0.43785747  0.68709840  0.43738047  1
  Zn  Zn179  1  0.43858435  0.68851154  0.93964638  1
  Zn  Zn180  1  0.93818205  0.18688866  0.43905413  1
  Zn  Zn181  1  0.93889395  0.18734342  0.93754766  1
  Zn  Zn182  1  0.93496136  0.68714783  0.43493176  1
  Zn  Zn183  1  0.93765594  0.68729637  0.93978873  1
  Zn  Zn184  1  0.06281322  0.31379850  0.06090789  1
  Zn  Zn185  1  0.06214335  0.31321792  0.56103150  1
  Zn  Zn186  1  0.06001798  0.81228626  0.06473036  1
  Zn  Zn187  1  0.06179979  0.81420419  0.56200088  1
  Zn  Zn188  1  0.56105965  0.31155799  0.06118152  1
  Zn  Zn189  1  0.56352680  0.31151635  0.56208553  1
  Zn  Zn190  1  0.56276029  0.81242218  0.06359534  1
  Zn  Zn191  1  0.56139280  0.81154485  0.56405843  1
  O  O192  1  0.12386220  0.11870284  0.11928425  1
  O  O193  1  0.12280825  0.11588985  0.62216051  1
  O  O194  1  0.12599327  0.61728091  0.11645118  1
  O  O195  1  0.11949299  0.62017047  0.62017452  1
  O  O196  1  0.61940910  0.11989213  0.11764294  1
  O  O197  1  0.62104713  0.11946944  0.61734974  1
  O  O198  1  0.61796109  0.62082787  0.12029492  1
  O  O199  1  0.62303235  0.61753722  0.61740051  1
  O  O200  1  0.38002689  0.38086962  0.38120813  1
  O  O201  1  0.38372065  0.38437106  0.87321866  1
  O  O202  1  0.37277569  0.87884715  0.38534259  1
  O  O203  1  0.37665253  0.88132453  0.88385216  1
  O  O204  1  0.87974561  0.37937770  0.37944932  1
  O  O205  1  0.88251955  0.38241644  0.87479596  1
  O  O206  1  0.88072746  0.88372296  0.37720782  1
  O  O207  1  0.88067788  0.88127538  0.88076750  1
  O  O208  1  0.25576011  0.00101859  0.36860910  1
  O  O209  1  0.25697686  0.00104489  0.86844855  1
  O  O210  1  0.25437815  0.50426115  0.37148791  1
  O  O211  1  0.26028662  0.50594448  0.87324009  1
  O  O212  1  0.75553369  0.00509041  0.36935957  1
  O  O213  1  0.75647212  0.00069452  0.86791800  1
  O  O214  1  0.75419283  0.49745883  0.36343871  1
  O  O215  1  0.75585376  0.50595999  0.86871718  1
  O  O216  1  0.24612853  0.49548736  0.12879865  1
  O  O217  1  0.24378400  0.49315020  0.62613834  1
  O  O218  1  0.24436919  0.99391122  0.13082731  1
  O  O219  1  0.24469039  0.99283821  0.63138869  1
  O  O220  1  0.74522832  0.49167218  0.13130937  1
  O  O221  1  0.74614851  0.49585270  0.62856709  1
  O  O222  1  0.74389623  0.99567818  0.13056970  1
  O  O223  1  0.74452403  0.99380559  0.63093588  1
  O  O224  1  0.00282358  0.37193547  0.25922474  1
  O  O225  1  0.00900246  0.37396656  0.75638456  1
  O  O226  1  0.00730881  0.87655668  0.25819943  1
  O  O227  1  0.00568186  0.86929011  0.75606714  1
  O  O228  1  0.50397277  0.37024741  0.25430445  1
  O  O229  1  0.50085758  0.36947907  0.75811340  1
  O  O230  1  0.50902746  0.87201148  0.25193005  1
  O  O231  1  0.50508781  0.86484172  0.75192747  1
  O  O232  1  0.49441409  0.12942139  0.24447508  1
  O  O233  1  0.49523315  0.12948842  0.74409773  1
  O  O234  1  0.49990710  0.62662653  0.23712762  1
  O  O235  1  0.49160714  0.63302494  0.75142604  1
  O  O236  1  0.99051180  0.12832993  0.24738069  1
  O  O237  1  0.99483967  0.12845972  0.74528784  1
  O  O238  1  0.99888367  0.62851359  0.24689320  1
  O  O239  1  0.99543958  0.63082781  0.74444903  1
  O  O240  1  0.36919069  0.24927227  0.00739557  1
  O  O241  1  0.37163900  0.25574339  0.50574340  1
  O  O242  1  0.36882523  0.75585705  0.00580333  1
  O  O243  1  0.36835464  0.75779198  0.50117685  1
  O  O244  1  0.87188568  0.25214736  0.01119550  1
  O  O245  1  0.87374352  0.25684763  0.50730207  1
  O  O246  1  0.86736037  0.75841399  -0.00178004  1
  O  O247  1  0.86739781  0.75097450  0.50675699  1
  O  O248  1  0.13180140  0.25019856  0.49207493  1
  O  O249  1  0.13107597  0.24469961  0.99503692  1
  O  O250  1  0.12960412  0.74470630  0.49549560  1
  O  O251  1  0.13069335  0.74599257  0.99444129  1
  O  O252  1  0.62621883  0.23581806  0.49907455  1
  O  O253  1  0.62518492  0.23828447  0.99924291  1
  O  O254  1  0.62832214  0.74599413  0.49357456  1
  O  O255  1  0.63111389  0.74535896  0.99454718  1
  O  O256  1  0.49364438  0.24480948  0.13098315  1
  O  O257  1  0.49443363  0.24418385  0.62968670  1
  O  O258  1  0.49496214  0.74092416  0.12576044  1
  O  O259  1  0.49835344  0.74643526  0.63908616  1
  O  O260  1  0.98818122  0.25112724  0.12645072  1
  O  O261  1  0.98919586  0.25034409  0.62384726  1
  O  O262  1  0.99525101  0.74775456  0.12802672  1
  O  O263  1  0.99526385  0.74507407  0.63037425  1
  O  O264  1  0.00937745  0.25581646  0.37704843  1
  O  O265  1  0.00794956  0.25776686  0.87500906  1
  O  O266  1  0.00664147  0.75812106  0.37726085  1
  O  O267  1  0.00532741  0.75576486  0.86979275  1
  O  O268  1  0.50035587  0.25669326  0.36770077  1
  O  O269  1  0.49944989  0.26011473  0.86873907  1
  O  O270  1  0.51222773  0.75159695  0.37404929  1
  O  O271  1  0.50629972  0.75039359  0.86598714  1
  O  O272  1  0.24919242  0.13390987  0.49794184  1
  O  O273  1  0.24318443  0.13163938  0.99929354  1
  O  O274  1  0.24393071  0.62939169  0.49587124  1
  O  O275  1  0.24528801  0.63158624  0.99429047  1
  O  O276  1  0.73960820  0.12396745  0.49452723  1
  O  O277  1  0.73722591  0.12562040  0.99871778  1
  O  O278  1  0.74180059  0.63229477  0.49765520  1
  O  O279  1  0.74479428  0.63031686  0.99390553  1
  O  O280  1  0.25383809  0.36804673  0.00591492  1
  O  O281  1  0.25732346  0.36981575  0.50660558  1
  O  O282  1  0.25486667  0.87016357  0.00693827  1
  O  O283  1  0.25687086  0.86933738  0.50554774  1
  O  O284  1  0.74949676  0.37592024  0.01224666  1
  O  O285  1  0.75714239  0.37486027  0.50464277  1
  O  O286  1  0.75426926  0.87109529  0.00475669  1
  O  O287  1  0.75026681  0.86846504  0.50830891  1
  O  O288  1  0.13301331  0.49702272  0.24304295  1
  O  O289  1  0.12785391  0.49442111  0.74290548  1
  O  O290  1  0.13020317  0.99556080  0.24580998  1
  O  O291  1  0.13040704  0.99352472  0.74636394  1
  O  O292  1  0.63235890  0.49330522  0.24392422  1
  O  O293  1  0.63251664  0.50012007  0.74187514  1
  O  O294  1  0.63007172  0.99614612  0.24472746  1
  O  O295  1  0.62963952  0.99395156  0.74553090  1
  O  O296  1  0.36909677  0.00379496  0.25515579  1
  O  O297  1  0.37054537  0.00359637  0.75504405  1
  O  O298  1  0.36790944  0.50296124  0.25806324  1
  O  O299  1  0.37587895  0.51025347  0.75919239  1
  O  O300  1  0.86877998  0.00612536  0.25535289  1
  O  O301  1  0.86795203  -0.00140457  0.75672759  1
  O  O302  1  0.86421085  0.49676057  0.25439294  1
  O  O303  1  0.87084143  0.50682452  0.75401749  1
  O  O304  1  0.11946688  0.36550562  0.37573119  1
  O  O305  1  0.12190421  0.37016698  0.86916720  1
  O  O306  1  0.12020745  0.86981263  0.37038671  1
  O  O307  1  0.11983348  0.86991433  0.87064627  1
  O  O308  1  0.61717674  0.37318540  0.36786874  1
  O  O309  1  0.61320813  0.37695010  0.87195505  1
  O  O310  1  0.62397259  0.86693289  0.37070369  1
  O  O311  1  0.62359997  0.86795986  0.86886283  1
  O  O312  1  0.38060920  0.12978555  0.13127882  1
  O  O313  1  0.38130256  0.12947590  0.63010448  1
  O  O314  1  0.38386768  0.63035086  0.12458815  1
  O  O315  1  0.37606081  0.62585776  0.63781298  1
  O  O316  1  0.87355680  0.13475839  0.13025290  1
  O  O317  1  0.87586147  0.13716643  0.62397755  1
  O  O318  1  0.87798684  0.62713929  0.12923282  1
  O  O319  1  0.88066617  0.63016395  0.63003285  1
  O  O320  1  0.25514674  0.25567902  0.12016829  1
  O  O321  1  0.25686869  0.25560037  0.62020056  1
  O  O322  1  0.25424098  0.75532206  0.12012837  1
  O  O323  1  0.25053549  0.75596632  0.61891695  1
  O  O324  1  0.75697518  0.25980821  0.12470506  1
  O  O325  1  0.75967892  0.25781354  0.62143965  1
  O  O326  1  0.74937437  0.75831098  0.11710231  1
  O  O327  1  0.75398355  0.75455396  0.62119660  1
  O  O328  1  0.24211493  0.25166576  0.38160652  1
  O  O329  1  0.24465033  0.24876961  0.88177670  1
  O  O330  1  0.24285461  0.74385719  0.38178645  1
  O  O331  1  0.24457632  0.74581678  0.88149337  1
  O  O332  1  0.74560784  0.24151482  0.37651691  1
  O  O333  1  0.74616478  0.24957066  0.87749558  1
  O  O334  1  0.73842912  0.75058204  0.38159593  1
  O  O335  1  0.74518320  0.74421232  0.87957566  1
  O  O336  1  0.00747334  0.11787682  0.00285711  1
  O  O337  1  0.00210612  0.11042215  0.50173809  1
  O  O338  1  0.00850968  0.61742543  -0.00162397  1
  O  O339  1  0.00506672  0.62000347  0.50544751  1
  O  O340  1  0.50709387  0.11962653  0.00618121  1
  O  O341  1  0.50862385  0.12239956  0.50632489  1
  O  O342  1  0.50636513  0.62475929  0.01051472  1
  O  O343  1  0.50547392  0.61791292  0.50192455  1
  O  O344  1  0.49489879  0.37961468  0.49404010  1
  O  O345  1  0.49741428  0.37721097  0.98837684  1
  O  O346  1  0.48630695  0.87416728  0.50101494  1
  O  O347  1  0.49327200  0.88131568  1.00103769  1
  O  O348  1  0.99429265  0.38255840  0.49369091  1
  O  O349  1  0.99992339  0.38280130  0.99112437  1
  O  O350  1  0.99851744  0.88557186  0.49401076  1
  O  O351  1  0.99516683  0.88130543  0.99394626  1
  O  O352  1  0.49452956  0.49458941  0.37958826  1
  O  O353  1  0.49232910  0.49278615  0.87440335  1
  O  O354  1  0.48979171  0.99492461  0.37915616  1
  O  O355  1  0.49293236  0.99730440  0.88222714  1
  O  O356  1  0.99526921  0.49392343  0.38066616  1
  O  O357  1  0.99626297  0.49501852  0.87936840  1
  O  O358  1  0.99621180  0.99546741  0.38332433  1
  O  O359  1  0.99478593  0.99391988  0.88082827  1
  O  O360  1  0.00685511  0.00053433  0.11797281  1
  O  O361  1  0.00523963  -0.00330677  0.61605473  1
  O  O362  1  0.00809194  0.49793400  0.11665000  1
  O  O363  1  0.00522519  0.50590146  0.61885632  1
  O  O364  1  0.50526559  0.00623846  0.12022325  1
  O  O365  1  0.50711303  0.00581829  0.62425019  1
  O  O366  1  0.50479992  0.50867998  0.12391955  1
  O  O367  1  0.50642946  0.49998138  0.61767987  1
  O  O368  1  0.24931141  0.38239244  0.24217278  1
  O  O369  1  0.24532832  0.37669642  0.74300978  1
  O  O370  1  0.24386634  0.88095919  0.24510878  1
  O  O371  1  0.24502300  0.87918752  0.74608319  1
  O  O372  1  0.74391001  0.38235367  0.24022270  1
  O  O373  1  0.74944779  0.38431792  0.74102980  1
  O  O374  1  0.74354293  0.88272516  0.24448081  1
  O  O375  1  0.74350001  0.87972925  0.74464899  1
  O  O376  1  0.25747556  0.11804166  0.25147732  1
  O  O377  1  0.25831366  0.11743703  0.75039254  1
  O  O378  1  0.25041023  0.61806228  0.25796071  1
  O  O379  1  0.26046805  0.62588085  0.75697878  1
  O  O380  1  0.75391032  0.11917848  0.25493420  1
  O  O381  1  0.75245214  0.11576675  0.75050500  1
  O  O382  1  0.74707992  0.60945250  0.24941534  1
  O  O383  1  0.75620026  0.62059515  0.75523165  1
  O  O384  1  0.37366998  0.11777315  0.36857972  1
  O  O385  1  0.37456528  0.11805875  0.86773962  1
  O  O386  1  0.36754113  0.61853632  0.37555626  1
  O  O387  1  0.37194241  0.61903888  0.86899673  1
  O  O388  1  0.86889269  0.11982770  0.37041788  1
  O  O389  1  0.87290175  0.11666443  0.87407088  1
  O  O390  1  0.86992064  0.61455368  0.37285512  1
  O  O391  1  0.87022692  0.62015609  0.86876309  1
  O  O392  1  0.13345343  0.38131092  0.12485836  1
  O  O393  1  0.13073440  0.38008993  0.62919733  1
  O  O394  1  0.13093579  0.88122163  0.13043341  1
  O  O395  1  0.13028537  0.87952218  0.63215135  1
  O  O396  1  0.63090379  0.37930176  0.12876595  1
  O  O397  1  0.63262861  0.38189455  0.62323501  1
  O  O398  1  0.63087789  0.88161609  0.12963844  1
  O  O399  1  0.62950147  0.87958490  0.63131769  1
  O  O400  1  0.12474140  0.25217709  0.26184279  1
  O  O401  1  0.12550467  0.25666161  0.75609345  1
  O  O402  1  0.12549486  0.75825010  0.25807333  1
  O  O403  1  0.11972604  0.75530690  0.75621351  1
  O  O404  1  0.61676008  0.25561826  0.24947827  1
  O  O405  1  0.61667624  0.25249975  0.75014425  1
  O  O406  1  0.62645895  0.75624972  0.25965582  1
  O  O407  1  0.61822654  0.75314964  0.75528230  1
  O  O408  1  0.37963336  0.24444734  0.24448989  1
  O  O409  1  0.38117921  0.24369341  0.74358737  1
  O  O410  1  0.37693239  0.74717073  0.24297931  1
  O  O411  1  0.38300368  0.74187228  0.75276212  1
  O  O412  1  0.87392655  0.24485359  0.23977141  1
  O  O413  1  0.87757367  0.25124909  0.73642987  1
  O  O414  1  0.87543343  0.74630731  0.24882835  1
  O  O415  1  0.88060418  0.74449534  0.74521472  1
  O  O416  1  0.38054747  0.49422405  0.49528099  1
  O  O417  1  0.37790847  0.50028842  0.98645492  1
  O  O418  1  0.37295660  0.98915540  0.49558237  1
  O  O419  1  0.37961490  0.99566216  0.99669292  1
  O  O420  1  0.88042004  0.49498929  0.49420776  1
  O  O421  1  0.88184237  0.49813759  0.99135094  1
  O  O422  1  0.88346495  0.99841522  0.49474961  1
  O  O423  1  0.88002705  0.99484662  0.99473151  1
  O  O424  1  0.12054562  0.00463612  0.00550204  1
  O  O425  1  0.11662995  -0.00114136  0.50626998  1
  O  O426  1  0.12175378  0.50575789  0.00365767  1
  O  O427  1  0.11922852  0.50536838  0.50547911  1
  O  O428  1  0.61925232  0.00724507  0.00541713  1
  O  O429  1  0.62380376  0.00857304  0.50664341  1
  O  O430  1  0.62367870  0.50840699  0.00657897  1
  O  O431  1  0.61974868  0.50500628  0.50317915  1
  O  O432  1  0.36971298  0.36871863  0.12285195  1
  O  O433  1  0.37123559  0.36957591  0.62027139  1
  O  O434  1  0.36861372  0.87020974  0.12072749  1
  O  O435  1  0.36833250  0.87292662  0.61665839  1
  O  O436  1  0.86530659  0.36745718  0.12414742  1
  O  O437  1  0.87112122  0.36956542  0.61787443  1
  O  O438  1  0.86664638  0.87694549  0.11762514  1
  O  O439  1  0.86763240  0.86673964  0.62463593  1
  O  O440  1  0.12725498  0.13710942  0.37839733  1
  O  O441  1  0.12748516  0.13142397  0.88226101  1
  O  O442  1  0.12996263  0.62932772  0.38257115  1
  O  O443  1  0.13137730  0.63089990  0.87922628  1
  O  O444  1  0.62887851  0.12280196  0.38431929  1
  O  O445  1  0.62432096  0.12616159  0.88637286  1
  O  O446  1  0.62668729  0.63430981  0.38004188  1
  O  O447  1  0.63106420  0.62984571  0.87993099  1
