# generated using pymatgen
data_V3Zn3O8
_symmetry_space_group_name_H-M   'P 1'
_cell_length_a   17.08942967
_cell_length_b   17.08867516
_cell_length_c   17.08850143
_cell_angle_alpha   90.00385988
_cell_angle_beta   89.99006409
_cell_angle_gamma   89.98823633
_symmetry_Int_Tables_number   1
_chemical_formula_structural   V3Zn3O8
_chemical_formula_sum   'V96 Zn96 O256'
_cell_volume   4990.45249578
_cell_formula_units_Z   32
loop_
 _symmetry_equiv_pos_site_id
 _symmetry_equiv_pos_as_xyz
  1  'x, y, z'
loop_
 _atom_site_type_symbol
 _atom_site_label
 _atom_site_symmetry_multiplicity
 _atom_site_fract_x
 _atom_site_fract_y
 _atom_site_fract_z
 _atom_site_occupancy
  V  V0  1  0.62578278  0.37512133  0.75139576  1
  V  V1  1  0.24959381  0.87579053  0.12380368  1
  V  V2  1  0.37411504  -0.00014639  0.37305768  1
  V  V3  1  0.74999504  0.87439564  0.12464184  1
  V  V4  1  0.37429647  0.12529008  0.75007555  1
  V  V5  1  0.62529303  0.24887361  0.37595697  1
  V  V6  1  -0.00056177  -0.00050005  0.49891619  1
  V  V7  1  0.87541563  0.24959616  0.62670767  1
  V  V8  1  0.49952690  0.49944224  0.49988109  1
  V  V9  1  0.00047415  0.24930843  0.25060456  1
  V  V10  1  0.62438186  0.37385805  0.25282042  1
  V  V11  1  0.12346113  0.62419381  0.00056255  1
  V  V12  1  0.75091321  0.74956497  0.49969109  1
  V  V13  1  0.74947188  0.24884577  0.50087598  1
  V  V14  1  0.50151108  0.62664971  0.62441876  1
  V  V15  1  0.37632803  0.50087443  0.87455096  1
  V  V16  1  0.62528488  0.75030627  0.87565992  1
  V  V17  1  0.87529884  0.74866760  0.12521815  1
  V  V18  1  0.50052050  0.12561807  0.12472593  1
  V  V19  1  0.50029589  0.75141585  0.74988862  1
  V  V20  1  0.74965750  0.00176040  0.74949890  1
  V  V21  1  0.24880036  0.37482300  0.12501121  1
  V  V22  1  0.25113844  0.62588941  0.87406160  1
  V  V23  1  0.87479380  0.50044490  0.87672291  1
  V  V24  1  0.12543562  0.50044862  0.62521416  1
  V  V25  1  0.12454374  -0.00074157  0.62368677  1
  V  V26  1  0.62356571  0.00033074  0.62481975  1
  V  V27  1  0.87536009  0.87459977  0.49907966  1
  V  V28  1  0.37505462  0.25016822  0.62533395  1
  V  V29  1  0.24825237  0.49823660  0.25010957  1
  V  V30  1  0.62420082  0.87632446  0.74980094  1
  V  V31  1  0.87588851  -0.00112542  0.37512587  1
  V  V32  1  0.74939226  0.25004142  0.00049604  1
  V  V33  1  0.12478824  0.12501181  -0.00084212  1
  V  V34  1  0.74974369  0.12440630  0.37585017  1
  V  V35  1  0.37425505  0.00126714  0.87490107  1
  V  V36  1  0.12518020  -0.00008940  0.12416930  1
  V  V37  1  0.24976591  0.74925764  0.49836301  1
  V  V38  1  0.87517936  0.74999425  0.62387227  1
  V  V39  1  -0.00049987  0.87457582  0.87331869  1
  V  V40  1  0.49874994  0.12481814  0.62526287  1
  V  V41  1  0.37611333  0.62545192  0.24875990  1
  V  V42  1  0.37615066  0.37674277  -0.00027788  1
  V  V43  1  0.00044454  0.12341527  0.12411061  1
  V  V44  1  0.75127695  0.62419273  0.37644835  1
  V  V45  1  0.87401881  0.49905857  0.37568669  1
  V  V46  1  0.00012889  0.37599871  0.87707610  1
  V  V47  1  0.74968708  0.62569868  0.87541216  1
  V  V48  1  0.62488131  0.00024648  0.12413657  1
  V  V49  1  0.87548767  0.37563510  0.00095253  1
  V  V50  1  0.62492866  0.25102125  0.87620364  1
  V  V51  1  0.24993214  0.24932250  0.49874076  1
  V  V52  1  0.00048840  0.37358380  0.37424044  1
  V  V53  1  0.50024836  0.37659253  0.87494298  1
  V  V54  1  0.87527931  0.12357115  0.24938576  1
  V  V55  1  0.00012158  0.62408656  0.62467181  1
  V  V56  1  0.24993325  0.75026592  -0.00154284  1
  V  V57  1  -0.00063444  0.75119134  0.74859316  1
  V  V58  1  0.74988088  0.49956050  0.25263490  1
  V  V59  1  0.12521260  0.25014678  0.87538796  1
  V  V60  1  -0.00003564  0.74820648  0.24827369  1
  V  V61  1  0.25028341  0.00018377  0.24848762  1
  V  V62  1  0.12455328  0.74986595  0.37333943  1
  V  V63  1  0.24935423  0.87572963  0.62410677  1
  V  V64  1  0.37568138  0.25117062  0.12539460  1
  V  V65  1  0.12540757  0.37527804  0.75074277  1
  V  V66  1  0.62632513  0.62590827  0.50068259  1
  V  V67  1  0.12428550  0.87505826  0.74859088  1
  V  V68  1  0.87499341  0.37455737  0.50103137  1
  V  V69  1  0.74983425  0.37441293  0.12686477  1
  V  V70  1  -0.00040129  0.24961287  0.75019716  1
  V  V71  1  0.87534916  0.87478742  -0.00122310  1
  V  V72  1  0.75040176  0.37481605  0.62710710  1
  V  V73  1  0.37480721  0.12477185  0.24959105  1
  V  V74  1  0.37518905  0.75124005  0.62401247  1
  V  V75  1  0.75081832  -0.00111214  0.24982201  1
  V  V76  1  0.37502094  0.74939168  0.12485364  1
  V  V77  1  0.49983554  -0.00016519  0.49979449  1
  V  V78  1  0.49874967  0.87637637  0.87566610  1
  V  V79  1  0.12500951  0.12532494  0.49923410  1
  V  V80  1  0.25012308  0.62398256  0.37454686  1
  V  V81  1  0.87465668  0.24921131  0.12507684  1
  V  V82  1  0.24960323  0.12619051  0.87420435  1
  V  V83  1  0.62244436  0.50184815  0.12561403  1
  V  V84  1  0.87409088  -0.00018094  0.87426027  1
  V  V85  1  0.62492585  0.12602704  0.00035920  1
  V  V86  1  0.37503337  0.87500747  0.49838224  1
  V  V87  1  0.25031647  0.37509729  0.62516869  1
  V  V88  1  0.75058605  0.50012696  0.75120942  1
  V  V89  1  0.62481277  0.87376859  0.25006298  1
  V  V90  1  0.37541028  0.62611038  0.75036961  1
  V  V91  1  0.50080662  0.87383262  0.37286811  1
  V  V92  1  0.50083005  0.25033992  0.25206905  1
  V  V93  1  -0.00080108  0.12548587  0.62535976  1
  V  V94  1  0.37456617  0.87596627  -0.00102306  1
  V  V95  1  0.74896290  0.74984187  -0.00049617  1
  Zn  Zn96  1  0.87470691  0.12573411  0.75210687  1
  Zn  Zn97  1  0.12467795  0.37287797  0.24974606  1
  Zn  Zn98  1  0.24855510  0.00018816  0.74917045  1
  Zn  Zn99  1  0.37455419  0.49699867  0.37693087  1
  Zn  Zn100  1  0.50031452  0.62645508  0.12405378  1
  Zn  Zn101  1  0.50258578  0.74903051  0.24947244  1
  Zn  Zn102  1  0.12049264  0.49793052  0.12420171  1
  Zn  Zn103  1  0.62643578  0.50006972  0.62620774  1
  Zn  Zn104  1  0.50042986  0.50337892  0.00061558  1
  Zn  Zn105  1  0.75040252  0.12626761  0.87567989  1
  Zn  Zn106  1  0.62438353  0.12444556  0.50059983  1
  Zn  Zn107  1  0.00027251  0.49972847  0.49884886  1
  Zn  Zn108  1  0.62507619  0.74967228  0.37384325  1
  Zn  Zn109  1  0.12494811  0.87564800  0.24812983  1
  Zn  Zn110  1  0.49852756  0.37366298  0.37857861  1
  Zn  Zn111  1  0.37585296  0.37594506  0.50001886  1
  Zn  Zn112  1  0.12609528  0.24927954  0.37332256  1
  Zn  Zn113  1  0.00001374  -0.00116438  -0.00116666  1
  Zn  Zn114  1  0.12587015  0.62373477  0.49968541  1
  Zn  Zn115  1  0.00113083  0.87502525  0.37349441  1
  Zn  Zn116  1  0.50000842  0.25117918  0.74968171  1
  Zn  Zn117  1  0.12466862  0.75044266  0.87355905  1
  Zn  Zn118  1  0.25201807  0.50045654  0.74974022  1
  Zn  Zn119  1  0.25059314  0.25090827  -0.00068420  1
  Zn  Zn120  1  0.49973466  0.00150514  0.00000966  1
  Zn  Zn121  1  -0.00208295  0.62167410  0.12343152  1
  Zn  Zn122  1  0.87536759  0.62319070  0.24913562  1
  Zn  Zn123  1  0.87454987  0.62529412  0.75083834  1
  Zn  Zn124  1  0.24850988  0.12482660  0.37347525  1
  Zn  Zn125  1  0.62240665  0.62580429  0.00133980  1
  Zn  Zn126  1  -0.00028770  0.50120945  0.00222867  1
  Zn  Zn127  1  0.74938074  0.87500598  0.62303083  1
  Zn  Zn128  1  0.18685364  0.18764389  0.18771285  1
  Zn  Zn129  1  0.18719498  0.18710734  0.68701719  1
  Zn  Zn130  1  0.18794922  0.68642188  0.18508806  1
  Zn  Zn131  1  0.18782586  0.68886705  0.68816326  1
  Zn  Zn132  1  0.68706005  0.18670239  0.18842233  1
  Zn  Zn133  1  0.68542013  0.18725445  0.68816375  1
  Zn  Zn134  1  0.68943299  0.68691515  0.19014147  1
  Zn  Zn135  1  0.68853764  0.68725276  0.68769165  1
  Zn  Zn136  1  0.31637221  0.31389811  0.31535878  1
  Zn  Zn137  1  0.31250659  0.31279673  0.81139123  1
  Zn  Zn138  1  0.31180069  0.81277553  0.31045208  1
  Zn  Zn139  1  0.31121334  0.81326079  0.81191692  1
  Zn  Zn140  1  0.81271256  0.31128327  0.31320473  1
  Zn  Zn141  1  0.81268409  0.31338451  0.81413769  1
  Zn  Zn142  1  0.81356417  0.81139681  0.31337742  1
  Zn  Zn143  1  0.81221222  0.81317169  0.81048799  1
  Zn  Zn144  1  0.18623022  0.43619432  0.43846211  1
  Zn  Zn145  1  0.18939188  0.44025467  0.93728612  1
  Zn  Zn146  1  0.18718163  0.93682163  0.43571211  1
  Zn  Zn147  1  0.18692271  0.93899305  0.93568463  1
  Zn  Zn148  1  0.68581288  0.43665207  0.43981492  1
  Zn  Zn149  1  0.68793373  0.43828980  0.93937319  1
  Zn  Zn150  1  0.68727687  0.93660067  0.43760966  1
  Zn  Zn151  1  0.68702962  0.93774921  0.93739525  1
  Zn  Zn152  1  0.31171244  0.06352652  0.06087655  1
  Zn  Zn153  1  0.31232264  0.06283641  0.56202310  1
  Zn  Zn154  1  0.31085399  0.56164299  0.06147444  1
  Zn  Zn155  1  0.31330322  0.56404125  0.56305394  1
  Zn  Zn156  1  0.81203230  0.06191205  0.06100663  1
  Zn  Zn157  1  0.81299815  0.06272983  0.56323153  1
  Zn  Zn158  1  0.81073432  0.56354026  0.06292601  1
  Zn  Zn159  1  0.81358881  0.56106659  0.56265355  1
  Zn  Zn160  1  0.43743483  0.43668232  0.18973545  1
  Zn  Zn161  1  0.43856789  0.43806630  0.68682563  1
  Zn  Zn162  1  0.43831805  0.93710590  0.18641428  1
  Zn  Zn163  1  0.43602294  0.93919204  0.68830342  1
  Zn  Zn164  1  0.93732777  0.43867740  0.18757552  1
  Zn  Zn165  1  0.93737055  0.43736203  0.69070286  1
  Zn  Zn166  1  0.93917559  0.93502602  0.18704981  1
  Zn  Zn167  1  0.93628320  0.93691860  0.68583425  1
  Zn  Zn168  1  0.06399246  0.06317580  0.31250312  1
  Zn  Zn169  1  0.06197000  0.06147881  0.81160876  1
  Zn  Zn170  1  0.06216014  0.56204069  0.31100338  1
  Zn  Zn171  1  0.06248375  0.56263178  0.81319914  1
  Zn  Zn172  1  0.56267901  0.06174141  0.31210928  1
  Zn  Zn173  1  0.56119064  0.06457125  0.81331366  1
  Zn  Zn174  1  0.56311176  0.56285479  0.31505018  1
  Zn  Zn175  1  0.56362141  0.56270380  0.81248366  1
  Zn  Zn176  1  0.43672089  0.18567167  0.43785787  1
  Zn  Zn177  1  0.43789499  0.18993169  0.93761791  1
  Zn  Zn178  1  0.43863038  0.68695739  0.43508422  1
  Zn  Zn179  1  0.43922943  0.68660835  0.93978132  1
  Zn  Zn180  1  0.93645608  0.18718665  0.43819372  1
  Zn  Zn181  1  0.93701686  0.18623921  0.93721632  1
  Zn  Zn182  1  0.93800811  0.68580708  0.43772909  1
  Zn  Zn183  1  0.93711459  0.68858408  0.93615107  1
  Zn  Zn184  1  0.06250815  0.31081944  0.06180127  1
  Zn  Zn185  1  0.06300729  0.31266410  0.56180155  1
  Zn  Zn186  1  0.06247376  0.81149608  0.06123818  1
  Zn  Zn187  1  0.06220779  0.81237794  0.56036421  1
  Zn  Zn188  1  0.56170389  0.31482918  0.06272144  1
  Zn  Zn189  1  0.56404315  0.31239034  0.56424319  1
  Zn  Zn190  1  0.56026897  0.81196184  0.06309166  1
  Zn  Zn191  1  0.56403055  0.81359406  0.56109031  1
  O  O192  1  0.11996961  0.11986151  0.11914034  1
  O  O193  1  0.11865108  0.11939622  0.61891140  1
  O  O194  1  0.12532175  0.62306886  0.11185624  1
  O  O195  1  0.11788920  0.61695036  0.62547737  1
  O  O196  1  0.61998547  0.12024131  0.12069007  1
  O  O197  1  0.61688348  0.11803176  0.62413379  1
  O  O198  1  0.62540317  0.61266473  0.12773635  1
  O  O199  1  0.61856989  0.62456156  0.61908780  1
  O  O200  1  0.38093602  0.37926903  0.38178110  1
  O  O201  1  0.37966943  0.38066821  0.87919099  1
  O  O202  1  0.37965049  0.88004142  0.37914192  1
  O  O203  1  0.37897767  0.88075160  0.87925908  1
  O  O204  1  0.88175559  0.37869017  0.38060799  1
  O  O205  1  0.88035695  0.37995602  0.88202451  1
  O  O206  1  0.87718132  0.88184594  0.38103805  1
  O  O207  1  0.87942515  0.88053098  0.87917803  1
  O  O208  1  0.25684693  0.00020396  0.36758168  1
  O  O209  1  0.25613999  0.00790499  0.87214665  1
  O  O210  1  0.24944375  0.50435743  0.36650877  1
  O  O211  1  0.25826244  0.50750116  0.87143526  1
  O  O212  1  0.75610346  0.00467204  0.36925078  1
  O  O213  1  0.75525666  0.00008225  0.86545281  1
  O  O214  1  0.75457577  0.50340048  0.37198830  1
  O  O215  1  0.75501408  0.50504197  0.87095820  1
  O  O216  1  0.25009321  0.48968741  0.13347117  1
  O  O217  1  0.24085950  0.49569832  0.62602954  1
  O  O218  1  0.24512138  0.99539660  0.12927171  1
  O  O219  1  0.24275462  0.99304970  0.62409348  1
  O  O220  1  0.74266900  0.49357961  0.13221907  1
  O  O221  1  0.75072039  0.49258555  0.63241329  1
  O  O222  1  0.74546078  0.99397826  0.13069248  1
  O  O223  1  0.74397370  0.99919631  0.63367221  1
  O  O224  1  -0.00157881  0.36833296  0.25960367  1
  O  O225  1  0.00594850  0.36883977  0.75683666  1
  O  O226  1  0.00310593  0.86161049  0.25194637  1
  O  O227  1  0.00477683  0.87005782  0.75280500  1
  O  O228  1  0.50673897  0.36756504  0.25279086  1
  O  O229  1  0.50766413  0.37442692  0.75642201  1
  O  O230  1  0.50665729  0.87495347  0.25558410  1
  O  O231  1  0.50413152  0.87034409  0.75538458  1
  O  O232  1  0.49496549  0.13044103  0.24404164  1
  O  O233  1  0.49232949  0.12695814  0.74309088  1
  O  O234  1  0.48664051  0.62427905  0.24941633  1
  O  O235  1  0.49565083  0.63265633  0.74472643  1
  O  O236  1  0.99378739  0.12922467  0.24403656  1
  O  O237  1  0.99938748  0.13207570  0.74277478  1
  O  O238  1  0.99844469  0.63667499  0.24780608  1
  O  O239  1  0.99941218  0.63078506  0.73942499  1
  O  O240  1  0.37299617  0.25832779  0.00771436  1
  O  O241  1  0.36459637  0.24861888  0.50687420  1
  O  O242  1  0.36882416  0.75597751  0.00486894  1
  O  O243  1  0.36991771  0.75567161  0.50419795  1
  O  O244  1  0.86947390  0.25515034  0.00623350  1
  O  O245  1  0.86889071  0.25513773  0.50666835  1
  O  O246  1  0.86866347  0.75607685  0.00467639  1
  O  O247  1  0.87094147  0.75465402  0.50454641  1
  O  O248  1  0.13479289  0.24416313  0.50091636  1
  O  O249  1  0.12690341  0.24307317  0.99275051  1
  O  O250  1  0.13060416  0.74867902  0.48944362  1
  O  O251  1  0.13203365  0.74152791  0.99722684  1
  O  O252  1  0.63235897  0.24753062  0.49459695  1
  O  O253  1  0.63064361  0.24652234  0.99650866  1
  O  O254  1  0.63259187  0.74404185  0.49872236  1
  O  O255  1  0.63189553  0.75113407  0.99362593  1
  O  O256  1  0.49545255  0.24581699  0.13222997  1
  O  O257  1  0.49322420  0.24310184  0.62534577  1
  O  O258  1  0.49054710  0.74803479  0.12926193  1
  O  O259  1  0.49452931  0.74685677  0.62979101  1
  O  O260  1  0.99367710  0.24392862  0.13069151  1
  O  O261  1  0.99521127  0.24590901  0.63028921  1
  O  O262  1  0.99456580  0.74894095  0.13325380  1
  O  O263  1  0.99605829  0.74188970  0.62822957  1
  O  O264  1  -0.00247609  0.25862174  0.36960230  1
  O  O265  1  0.00531967  0.25596979  0.87000076  1
  O  O266  1  0.00867077  0.74856773  0.36723294  1
  O  O267  1  0.00001569  0.75734160  0.86612637  1
  O  O268  1  0.50729795  0.24827517  0.36949287  1
  O  O269  1  0.50686467  0.25874042  0.87346785  1
  O  O270  1  0.50219685  0.75869259  0.37148359  1
  O  O271  1  0.50467227  0.75653446  0.86870413  1
  O  O272  1  0.24404572  0.13450749  0.50008923  1
  O  O273  1  0.24312634  0.12831654  0.99280070  1
  O  O274  1  0.24892953  0.63208560  0.49329351  1
  O  O275  1  0.24374978  0.63056703  0.99387552  1
  O  O276  1  0.74935467  0.13098799  0.49366708  1
  O  O277  1  0.74291557  0.13261119  1.00038455  1
  O  O278  1  0.74600342  0.62925193  0.49601949  1
  O  O279  1  0.74675033  0.63300258  0.99322044  1
  O  O280  1  0.25636201  0.37511661  0.01019864  1
  O  O281  1  0.24948798  0.36489766  0.50694238  1
  O  O282  1  0.25513770  0.87027970  0.00393886  1
  O  O283  1  0.25587818  0.86903084  0.50415645  1
  O  O284  1  0.75559660  0.36884708  0.00739209  1
  O  O285  1  0.75549642  0.36857933  0.50663048  1
  O  O286  1  0.75502965  0.86939914  0.00530637  1
  O  O287  1  0.75711810  0.86849091  0.50094618  1
  O  O288  1  0.13786056  0.49806468  0.24741745  1
  O  O289  1  0.12639776  0.49443146  0.73990392  1
  O  O290  1  0.13168427  0.99891488  0.24273077  1
  O  O291  1  0.12510483  0.99294495  0.74098260  1
  O  O292  1  0.63034165  0.49375174  0.24525248  1
  O  O293  1  0.63292807  0.49320834  0.74927417  1
  O  O294  1  0.63201082  0.99458177  0.24376000  1
  O  O295  1  0.63113676  0.99580036  0.74593951  1
  O  O296  1  0.37009044  0.00536864  0.25339156  1
  O  O297  1  0.37190041  0.00692139  0.75668543  1
  O  O298  1  0.36457531  0.50810216  0.25029830  1
  O  O299  1  0.37492621  0.50874090  0.75545758  1
  O  O300  1  0.87017735  0.00425555  0.25429784  1
  O  O301  1  0.86521953  -0.00040230  0.75490113  1
  O  O302  1  0.86676221  0.49953313  0.25785960  1
  O  O303  1  0.86807912  0.50030900  0.75872252  1
  O  O304  1  0.11162714  0.37297130  0.37394295  1
  O  O305  1  0.12080979  0.37069789  0.87072182  1
  O  O306  1  0.12441884  0.86154607  0.37141946  1
  O  O307  1  0.11803972  0.87451923  0.86720392  1
  O  O308  1  0.62414953  0.36661149  0.36970752  1
  O  O309  1  0.62050378  0.37071033  0.87148657  1
  O  O310  1  0.61875113  0.87533693  0.36764612  1
  O  O311  1  0.61874486  0.87017338  0.86940831  1
  O  O312  1  0.38024006  0.13107569  0.12971165  1
  O  O313  1  0.37917560  0.12938124  0.63047395  1
  O  O314  1  0.37212363  0.62968678  0.13449198  1
  O  O315  1  0.38097931  0.63304919  0.63039544  1
  O  O316  1  0.87989981  0.12940543  0.13003505  1
  O  O317  1  0.88203303  0.13187282  0.62695397  1
  O  O318  1  0.87576266  0.63376281  0.12735312  1
  O  O319  1  0.88542120  0.62957596  0.62625019  1
  O  O320  1  0.25674775  0.26060943  0.12598500  1
  O  O321  1  0.25402222  0.25469120  0.61677712  1
  O  O322  1  0.25554039  0.75601184  0.11839479  1
  O  O323  1  0.25552670  0.75558117  0.61812131  1
  O  O324  1  0.75525056  0.25500826  0.12143155  1
  O  O325  1  0.75560959  0.25470853  0.62117290  1
  O  O326  1  0.75529074  0.75600685  0.12009945  1
  O  O327  1  0.75752162  0.75080140  0.61845723  1
  O  O328  1  0.24908890  0.24912733  0.38710455  1
  O  O329  1  0.24263149  0.24455871  0.87586395  1
  O  O330  1  0.24220203  0.74488141  0.37780386  1
  O  O331  1  0.24930101  0.74399290  0.88116665  1
  O  O332  1  0.74573143  0.24367658  0.38056761  1
  O  O333  1  0.74366193  0.24982186  0.88292943  1
  O  O334  1  0.75080957  0.74221491  0.38245980  1
  O  O335  1  0.74475607  0.74654395  0.87928066  1
  O  O336  1  0.00623563  0.12327887  0.00691440  1
  O  O337  1  0.00441002  0.11988167  0.50593039  1
  O  O338  1  0.01157124  0.62588534  -0.00092520  1
  O  O339  1  0.00333213  0.62256982  0.51285398  1
  O  O340  1  0.50686057  0.12575890  0.00775626  1
  O  O341  1  0.50041282  0.11656814  0.50697149  1
  O  O342  1  0.50447732  0.62101783  0.00597229  1
  O  O343  1  0.50552751  0.61980162  0.50507748  1
  O  O344  1  0.50064837  0.38718226  0.50223543  1
  O  O345  1  0.49352772  0.37870796  0.99370922  1
  O  O346  1  0.49374871  0.88039175  0.49384253  1
  O  O347  1  0.49219656  0.87650413  0.99291842  1
  O  O348  1  0.99349421  0.37430655  0.49059343  1
  O  O349  1  0.99306339  0.37503814  0.99417841  1
  O  O350  1  0.99360839  0.88162678  0.49729444  1
  O  O351  1  0.99270908  0.87508734  0.99223395  1
  O  O352  1  0.49938902  0.50001965  0.38867601  1
  O  O353  1  0.49408610  0.49421659  0.87598346  1
  O  O354  1  0.49375791  0.99434339  0.37955362  1
  O  O355  1  0.49295475  0.99378511  0.87667270  1
  O  O356  1  0.99431127  0.49032214  0.37487280  1
  O  O357  1  0.99323228  0.49308419  0.87638786  1
  O  O358  1  0.99364905  0.99917569  0.38060253  1
  O  O359  1  0.99118479  0.99279386  0.87444271  1
  O  O360  1  0.00606153  0.00581344  0.12374965  1
  O  O361  1  0.00461394  0.00534816  0.61827248  1
  O  O362  1  0.00313266  0.50336372  0.12162107  1
  O  O363  1  0.00784686  0.50694991  0.62602649  1
  O  O364  1  0.50706100  0.00757402  0.12377284  1
  O  O365  1  0.50357727  0.00440742  0.61941219  1
  O  O366  1  0.51243585  0.49951901  0.12705650  1
  O  O367  1  0.50227720  0.50854425  0.61697563  1
  O  O368  1  0.25153257  0.38251676  0.24255745  1
  O  O369  1  0.24249848  0.37646411  0.74270241  1
  O  O370  1  0.24951647  0.88203466  0.24112515  1
  O  O371  1  0.24332176  0.87578175  0.74133509  1
  O  O372  1  0.74430880  0.37905133  0.24598993  1
  O  O373  1  0.74555801  0.38041826  0.74633856  1
  O  O374  1  0.74606639  0.88023123  0.24432474  1
  O  O375  1  0.74315936  0.88583439  0.74803410  1
  O  O376  1  0.25746584  0.11870001  0.24979086  1
  O  O377  1  0.25556974  0.12364877  0.75595546  1
  O  O378  1  0.25641102  0.61650803  0.25336803  1
  O  O379  1  0.25806716  0.62596692  0.75534436  1
  O  O380  1  0.75601106  0.11854583  0.25492954  1
  O  O381  1  0.75014926  0.11272862  0.75181988  1
  O  O382  1  0.75209268  0.61718219  0.25908328  1
  O  O383  1  0.75186995  0.61886746  0.75711197  1
  O  O384  1  0.37355417  0.11728721  0.36716955  1
  O  O385  1  0.37001410  0.12176450  0.87046988  1
  O  O386  1  0.36763689  0.62419103  0.36444748  1
  O  O387  1  0.37096337  0.62121922  0.86960255  1
  O  O388  1  0.86960168  0.11894317  0.36896746  1
  O  O389  1  0.87195223  0.11594500  0.87280103  1
  O  O390  1  0.86921552  0.61625242  0.37526797  1
  O  O391  1  0.86796356  0.61888101  0.87374930  1
  O  O392  1  0.13715053  0.37482265  0.12656537  1
  O  O393  1  0.12850753  0.38261726  0.63043431  1
  O  O394  1  0.13218293  0.88141120  0.12418285  1
  O  O395  1  0.12975822  0.87991063  0.62785566  1
  O  O396  1  0.63066762  0.38166074  0.13245321  1
  O  O397  1  0.63365896  0.37546251  0.63332246  1
  O  O398  1  0.63095176  0.88064477  0.12953204  1
  O  O399  1  0.62523106  0.88234028  0.63223529  1
  O  O400  1  0.11635652  0.25167063  0.25296010  1
  O  O401  1  0.11897726  0.25579854  0.75496152  1
  O  O402  1  0.11875927  0.74940170  0.25698385  1
  O  O403  1  0.11722854  0.75769867  0.74943128  1
  O  O404  1  0.62054982  0.25438000  0.25574283  1
  O  O405  1  0.62448771  0.25737917  0.75805047  1
  O  O406  1  0.62439980  0.75861515  0.25235944  1
  O  O407  1  0.61978513  0.75671449  0.75513807  1
  O  O408  1  0.38090327  0.24468346  0.24492309  1
  O  O409  1  0.37586631  0.24323736  0.74255124  1
  O  O410  1  0.37188059  0.73915054  0.24349222  1
  O  O411  1  0.38127053  0.74664111  0.74363210  1
  O  O412  1  0.87924861  0.24275192  0.24416112  1
  O  O413  1  0.88150564  0.24961021  0.74466203  1
  O  O414  1  0.88410154  0.74894026  0.24459185  1
  O  O415  1  0.88140893  0.74927974  0.74184740  1
  O  O416  1  0.38662783  0.50103900  0.50017809  1
  O  O417  1  0.37592201  0.49400621  0.99305091  1
  O  O418  1  0.37956736  0.99388006  0.49380458  1
  O  O419  1  0.37614089  0.99383194  0.99311790  1
  O  O420  1  0.87721212  0.49146458  0.49406889  1
  O  O421  1  0.87409739  0.49264533  0.99425590  1
  O  O422  1  0.88015202  0.99516645  0.49466517  1
  O  O423  1  0.87474276  0.99260362  0.99201793  1
  O  O424  1  0.12306967  0.00709012  0.00606029  1
  O  O425  1  0.11947190  0.00450328  0.50434138  1
  O  O426  1  0.12460213  0.51183213  0.00065101  1
  O  O427  1  0.12236937  0.50102249  0.51325760  1
  O  O428  1  0.62435389  0.00683225  0.00683258  1
  O  O429  1  0.61792665  0.00053913  0.50636564  1
  O  O430  1  0.62557952  0.50052736  0.01433865  1
  O  O431  1  0.61720956  0.50699926  0.50370945  1
  O  O432  1  0.36770687  0.37091151  0.12106561  1
  O  O433  1  0.36787507  0.36867686  0.62384747  1
  O  O434  1  0.36915353  0.87044583  0.11864637  1
  O  O435  1  0.37012460  0.87026686  0.61836641  1
  O  O436  1  0.86890060  0.36833344  0.12111670  1
  O  O437  1  0.87071899  0.36888390  0.62113701  1
  O  O438  1  0.86895694  0.86956011  0.11921421  1
  O  O439  1  0.87375290  0.86782752  0.61659342  1
  O  O440  1  0.12767481  0.12812146  0.38382267  1
  O  O441  1  0.12910346  0.13014774  0.87885153  1
  O  O442  1  0.13064660  0.63405261  0.37571705  1
  O  O443  1  0.13189581  0.62700064  0.88212913  1
  O  O444  1  0.63264661  0.13010054  0.37574939  1
  O  O445  1  0.62569224  0.13248065  0.88245370  1
  O  O446  1  0.63341841  0.62649864  0.38256946  1
  O  O447  1  0.63152646  0.63314311  0.87574268  1
