# generated using pymatgen
data_V3Zn3O8
_symmetry_space_group_name_H-M   'P 1'
_cell_length_a   17.08498995
_cell_length_b   17.08646821
_cell_length_c   17.08546240
_cell_angle_alpha   89.98413445
_cell_angle_beta   90.00127114
_cell_angle_gamma   90.01205219
_symmetry_Int_Tables_number   1
_chemical_formula_structural   V3Zn3O8
_chemical_formula_sum   'V96 Zn96 O256'
_cell_volume   4987.62440177
_cell_formula_units_Z   32
loop_
 _symmetry_equiv_pos_site_id
 _symmetry_equiv_pos_as_xyz
  1  'x, y, z'
loop_
 _atom_site_type_symbol
 _atom_site_label
 _atom_site_symmetry_multiplicity
 _atom_site_fract_x
 _atom_site_fract_y
 _atom_site_fract_z
 _atom_site_occupancy
  V  V0  1  0.74944791  0.37446122  0.62508792  1
  V  V1  1  0.87467470  0.75190511  0.12448921  1
  V  V2  1  0.00084518  0.37527786  0.37525312  1
  V  V3  1  0.62463837  -0.00101193  0.62526055  1
  V  V4  1  0.74982955  0.25147181  -0.00091680  1
  V  V5  1  0.00065661  0.62603292  0.12559005  1
  V  V6  1  0.75092611  0.62439923  0.37467867  1
  V  V7  1  -0.00006096  -0.00050693  0.50003354  1
  V  V8  1  0.87488774  0.50069088  0.37431889  1
  V  V9  1  0.87472020  0.24932868  0.62453788  1
  V  V10  1  0.00031382  0.25070250  0.25044786  1
  V  V11  1  0.00013486  0.50016668  0.50013650  1
  V  V12  1  0.62706656  0.00105324  0.12482943  1
  V  V13  1  0.49976521  0.62512997  0.62714162  1
  V  V14  1  0.49925307  0.00093185  -0.00009044  1
  V  V15  1  0.74986180  -0.00101366  0.75070831  1
  V  V16  1  0.50118849  0.74849995  0.25009052  1
  V  V17  1  0.00006426  0.12427034  0.62429831  1
  V  V18  1  0.12362450  0.37484549  0.75017723  1
  V  V19  1  0.12450691  0.00165060  0.12322167  1
  V  V20  1  0.50045065  0.50054979  0.00123230  1
  V  V21  1  0.37556348  -0.00017752  0.37437133  1
  V  V22  1  0.00031756  0.75118333  0.24986085  1
  V  V23  1  -0.00175182  0.87592666  0.87539405  1
  V  V24  1  0.62688367  0.87476295  0.24950415  1
  V  V25  1  0.25123653  0.62485470  0.37592045  1
  V  V26  1  0.12562983  0.62591586  0.00056012  1
  V  V27  1  0.87520207  0.12591532  0.25129752  1
  V  V28  1  0.00050555  0.87491514  0.37496599  1
  V  V29  1  0.87501727  0.37493809  0.49970940  1
  V  V30  1  0.49847416  0.24874998  0.74900352  1
  V  V31  1  0.37389091  0.75140486  0.12450130  1
  V  V32  1  0.50033506  -0.00068434  0.49955268  1
  V  V33  1  0.37608471  0.62557195  0.25100580  1
  V  V34  1  0.75031760  0.12606119  0.87518795  1
  V  V35  1  -0.00005775  0.74934941  0.75008297  1
  V  V36  1  0.87476419  0.37658718  0.00032587  1
  V  V37  1  0.62570623  0.74953252  0.37463984  1
  V  V38  1  0.75160770  0.75233838  0.00126084  1
  V  V39  1  0.75056824  0.12441127  0.37406149  1
  V  V40  1  0.62375491  0.75053037  0.87625716  1
  V  V41  1  0.37655042  0.74875901  0.62560070  1
  V  V42  1  0.24802565  0.12450460  0.87473530  1
  V  V43  1  0.12576096  0.50030546  0.12610866  1
  V  V44  1  0.74943973  0.37761013  0.12566087  1
  V  V45  1  0.50034138  0.24997535  0.24935833  1
  V  V46  1  0.37635249  0.49793031  0.37632224  1
  V  V47  1  0.24967618  -0.00123477  0.74875796  1
  V  V48  1  0.37432659  0.24981714  0.12347680  1
  V  V49  1  0.12478738  0.24907199  0.87416604  1
  V  V50  1  0.49992620  0.37436393  0.37583016  1
  V  V51  1  0.87448720  0.62449924  0.75005740  1
  V  V52  1  0.12502389  0.49993611  0.62525976  1
  V  V53  1  0.37307895  0.49989677  0.87567880  1
  V  V54  1  0.25032893  0.12482480  0.37446716  1
  V  V55  1  0.74892442  0.62582667  0.87575886  1
  V  V56  1  0.12586630  0.62543734  0.49934568  1
  V  V57  1  0.24938462  0.37482605  0.12487199  1
  V  V58  1  -0.00057598  0.50025756  0.00027683  1
  V  V59  1  0.62469131  0.50034024  0.62559422  1
  V  V60  1  0.12652063  0.87618013  0.24931206  1
  V  V61  1  0.62409717  0.37397789  0.74993913  1
  V  V62  1  0.12631510  0.24989816  0.37601531  1
  V  V63  1  0.37435169  -0.00096782  0.87522976  1
  V  V64  1  0.87448215  0.74976027  0.62447970  1
  V  V65  1  0.37313675  0.37442000  -0.00024941  1
  V  V66  1  0.87425427  0.12485748  0.74981396  1
  V  V67  1  0.74931943  0.49953695  0.75104408  1
  V  V68  1  0.74950473  0.24937830  0.49965738  1
  V  V69  1  -0.00010342  0.62442697  0.62490455  1
  V  V70  1  0.24998306  0.50090951  0.75070127  1
  V  V71  1  0.62473432  0.24935379  0.37472902  1
  V  V72  1  -0.00039142  0.12643787  0.12341925  1
  V  V73  1  0.50005482  0.12522747  0.12418508  1
  V  V74  1  0.49894655  0.87491456  0.87551179  1
  V  V75  1  0.12554409  0.37613728  0.25009080  1
  V  V76  1  0.37510058  0.12474206  0.74898917  1
  V  V77  1  0.87519115  0.62552816  0.25072768  1
  V  V78  1  -0.00041552  0.25010168  0.74966333  1
  V  V79  1  0.12560082  -0.00122552  0.62431681  1
  V  V80  1  0.37510260  0.12397721  0.24991540  1
  V  V81  1  0.87520879  0.87427381  0.50056427  1
  V  V82  1  0.25074867  0.74932859  0.49991248  1
  V  V83  1  0.12494226  0.74938597  0.87490738  1
  V  V84  1  0.75102654  0.75018299  0.50098052  1
  V  V85  1  0.62455876  0.12344909  0.49911689  1
  V  V86  1  0.62591577  0.37559227  0.24955869  1
  V  V87  1  0.62585652  0.62459187  0.50099501  1
  V  V88  1  0.87497011  0.50022504  0.87590804  1
  V  V89  1  0.24916429  0.62537565  0.87523857  1
  V  V90  1  0.12584116  0.12514523  0.49871712  1
  V  V91  1  0.25028771  0.87449278  0.62465117  1
  V  V92  1  0.37600794  0.87509076  0.49884146  1
  V  V93  1  0.87463419  0.00068973  0.37499674  1
  V  V94  1  0.25249904  0.37288207  0.62314811  1
  V  V95  1  0.62510081  0.25002574  0.87462898  1
  Zn  Zn96  1  0.75139798  0.00059302  0.24892843  1
  Zn  Zn97  1  0.50054808  0.49637884  0.50211259  1
  Zn  Zn98  1  0.87560103  0.25150680  0.12527965  1
  Zn  Zn99  1  0.37697437  0.37113271  0.50036814  1
  Zn  Zn100  1  0.49716921  0.12467128  0.62348521  1
  Zn  Zn101  1  0.74836986  0.50139472  0.24960001  1
  Zn  Zn102  1  0.49940273  0.75049784  0.75150816  1
  Zn  Zn103  1  0.25007457  0.75243507  -0.00019548  1
  Zn  Zn104  1  0.37523120  0.62631259  0.75204962  1
  Zn  Zn105  1  0.75335898  0.87801816  0.12405280  1
  Zn  Zn106  1  0.62261781  0.50257880  0.12719738  1
  Zn  Zn107  1  -0.00198848  0.00310473  -0.00472318  1
  Zn  Zn108  1  0.49808168  0.37531532  0.87457902  1
  Zn  Zn109  1  0.25226922  -0.00016825  0.24783024  1
  Zn  Zn110  1  0.87617207  0.88005825  0.00252363  1
  Zn  Zn111  1  0.12617712  0.74997196  0.37446214  1
  Zn  Zn112  1  0.37046314  0.87538639  0.00157941  1
  Zn  Zn113  1  0.12495814  0.87348921  0.74911884  1
  Zn  Zn114  1  0.62417991  0.62347696  0.00319281  1
  Zn  Zn115  1  0.24963967  0.87639148  0.12192402  1
  Zn  Zn116  1  0.75005033  0.87385374  0.62625483  1
  Zn  Zn117  1  0.50007651  0.87393566  0.37538627  1
  Zn  Zn118  1  0.37490611  0.24779481  0.62230401  1
  Zn  Zn119  1  0.25060126  0.50043511  0.25048664  1
  Zn  Zn120  1  0.62539296  0.87476095  0.75009134  1
  Zn  Zn121  1  0.25308338  0.24922088  0.50021313  1
  Zn  Zn122  1  -0.00010263  0.37467828  0.87556118  1
  Zn  Zn123  1  0.62569456  0.12657240  0.00000431  1
  Zn  Zn124  1  0.24837637  0.24826332  -0.00058648  1
  Zn  Zn125  1  0.50197808  0.62450302  0.12558223  1
  Zn  Zn126  1  0.12496751  0.12621797  -0.00112484  1
  Zn  Zn127  1  0.87457598  -0.00002832  0.87738073  1
  Zn  Zn128  1  0.18857428  0.18838174  0.18887430  1
  Zn  Zn129  1  0.18733570  0.18685226  0.68829051  1
  Zn  Zn130  1  0.19002545  0.68797711  0.18884922  1
  Zn  Zn131  1  0.18772981  0.68750057  0.68843515  1
  Zn  Zn132  1  0.68874687  0.18912788  0.18688470  1
  Zn  Zn133  1  0.68578265  0.18554509  0.68723748  1
  Zn  Zn134  1  0.68719435  0.68563598  0.18525421  1
  Zn  Zn135  1  0.68688675  0.68774987  0.68945605  1
  Zn  Zn136  1  0.31189424  0.31162065  0.31096261  1
  Zn  Zn137  1  0.31151157  0.31252611  0.81200711  1
  Zn  Zn138  1  0.31213194  0.81255327  0.31181342  1
  Zn  Zn139  1  0.31296817  0.81106569  0.81082054  1
  Zn  Zn140  1  0.81278767  0.31222266  0.31157146  1
  Zn  Zn141  1  0.81288534  0.31321148  0.81320554  1
  Zn  Zn142  1  0.81208230  0.81264056  0.31233309  1
  Zn  Zn143  1  0.81315748  0.81342964  0.81275294  1
  Zn  Zn144  1  0.18895925  0.43833001  0.43817926  1
  Zn  Zn145  1  0.18668954  0.43669164  0.93822665  1
  Zn  Zn146  1  0.18939768  0.93844060  0.43622990  1
  Zn  Zn147  1  0.18557812  0.93599817  0.93874458  1
  Zn  Zn148  1  0.68695087  0.43820314  0.43751615  1
  Zn  Zn149  1  0.68508299  0.43613071  0.93722810  1
  Zn  Zn150  1  0.68912620  0.93636668  0.43707510  1
  Zn  Zn151  1  0.68644721  0.93761274  0.93822297  1
  Zn  Zn152  1  0.31081521  0.06272215  0.06045436  1
  Zn  Zn153  1  0.31301107  0.06271525  0.56176611  1
  Zn  Zn154  1  0.31274627  0.56380675  0.06304101  1
  Zn  Zn155  1  0.31374970  0.56086495  0.56175207  1
  Zn  Zn156  1  0.81468901  0.06387336  0.06039911  1
  Zn  Zn157  1  0.81171165  0.06173771  0.56242932  1
  Zn  Zn158  1  0.81226923  0.56438338  0.06277474  1
  Zn  Zn159  1  0.81203387  0.56238615  0.56235927  1
  Zn  Zn160  1  0.43661712  0.43667410  0.18768101  1
  Zn  Zn161  1  0.43648863  0.43819487  0.68981819  1
  Zn  Zn162  1  0.44029118  0.93600121  0.18823335  1
  Zn  Zn163  1  0.43755485  0.93645206  0.68839755  1
  Zn  Zn164  1  0.93716939  0.43907582  0.18763178  1
  Zn  Zn165  1  0.93696877  0.43686089  0.68810607  1
  Zn  Zn166  1  0.93831084  0.93898086  0.18758702  1
  Zn  Zn167  1  0.93715950  0.93615642  0.68847767  1
  Zn  Zn168  1  0.06238704  0.06236684  0.31118282  1
  Zn  Zn169  1  0.06350017  0.06140419  0.80986535  1
  Zn  Zn170  1  0.06325758  0.56293189  0.31277115  1
  Zn  Zn171  1  0.06264188  0.56207573  0.81353593  1
  Zn  Zn172  1  0.56110473  0.06149248  0.31211737  1
  Zn  Zn173  1  0.56306810  0.06430137  0.81321075  1
  Zn  Zn174  1  0.56217172  0.56139042  0.31213357  1
  Zn  Zn175  1  0.56167985  0.56232986  0.81488337  1
  Zn  Zn176  1  0.43655183  0.18723824  0.43889046  1
  Zn  Zn177  1  0.43641815  0.18650767  0.93670465  1
  Zn  Zn178  1  0.43946712  0.68660623  0.43871060  1
  Zn  Zn179  1  0.43557960  0.68564862  0.94039622  1
  Zn  Zn180  1  0.93864310  0.18766963  0.43737949  1
  Zn  Zn181  1  0.93579933  0.18971431  0.93720993  1
  Zn  Zn182  1  0.93891291  0.68830002  0.43673558  1
  Zn  Zn183  1  0.93733574  0.68856509  0.93796823  1
  Zn  Zn184  1  0.06341940  0.31258598  0.06098832  1
  Zn  Zn185  1  0.06419016  0.31177714  0.56233235  1
  Zn  Zn186  1  0.06210444  0.81331229  0.06048519  1
  Zn  Zn187  1  0.06342141  0.81135806  0.56239306  1
  Zn  Zn188  1  0.56252589  0.31476050  0.06126305  1
  Zn  Zn189  1  0.56178688  0.31199089  0.56238563  1
  Zn  Zn190  1  0.56062972  0.81379587  0.06278818  1
  Zn  Zn191  1  0.56278403  0.81276358  0.56217008  1
  O  O192  1  0.11604241  0.11824649  0.12788470  1
  O  O193  1  0.11938555  0.11898936  0.61915637  1
  O  O194  1  0.11966494  0.62076369  0.12145538  1
  O  O195  1  0.11936038  0.61897385  0.61945543  1
  O  O196  1  0.61926021  0.11632487  0.12580389  1
  O  O197  1  0.62447248  0.11387111  0.61814219  1
  O  O198  1  0.62080168  0.62036065  0.12071980  1
  O  O199  1  0.61903086  0.62044185  0.62133953  1
  O  O200  1  0.38047741  0.38292136  0.37336022  1
  O  O201  1  0.37378192  0.38202976  0.88157387  1
  O  O202  1  0.37625757  0.88116259  0.38097018  1
  O  O203  1  0.38422219  0.88020150  0.87548051  1
  O  O204  1  0.88082240  0.37968953  0.38078383  1
  O  O205  1  0.87561629  0.38295135  0.88150033  1
  O  O206  1  0.88075492  0.88026447  0.38025634  1
  O  O207  1  0.88692882  0.87506455  0.87553596  1
  O  O208  1  0.25731202  0.00694269  0.37212647  1
  O  O209  1  0.25401432  0.00387044  0.86831989  1
  O  O210  1  0.25986512  0.50543927  0.37417488  1
  O  O211  1  0.25299293  0.50541371  0.87008286  1
  O  O212  1  0.75692083  0.00707410  0.37443527  1
  O  O213  1  0.74813209  0.00583288  0.86511868  1
  O  O214  1  0.75757907  0.50658343  0.37510901  1
  O  O215  1  0.75432159  0.50558637  0.87036152  1
  O  O216  1  0.24326129  0.49394591  0.12738351  1
  O  O217  1  0.24420859  0.49328648  0.62977025  1
  O  O218  1  0.23713380  1.00036980  0.12762085  1
  O  O219  1  0.24506307  0.99380030  0.62875564  1
  O  O220  1  0.74897840  0.48825612  0.12519007  1
  O  O221  1  0.74535496  0.49462106  0.63117732  1
  O  O222  1  0.73881833  1.00016332  0.12615187  1
  O  O223  1  0.74168585  1.00011302  0.63289786  1
  O  O224  1  0.00515714  0.37099302  0.25608132  1
  O  O225  1  0.00543410  0.36823239  0.74972622  1
  O  O226  1  0.00794150  0.87096485  0.25542025  1
  O  O227  1  0.00072815  0.86721923  0.75736651  1
  O  O228  1  0.50559112  0.36834847  0.25523924  1
  O  O229  1  0.50568052  0.36568541  0.75067027  1
  O  O230  1  0.51307042  0.86844372  0.25208050  1
  O  O231  1  0.50314096  0.87399112  0.76354478  1
  O  O232  1  0.49503614  0.13104396  0.24423919  1
  O  O233  1  0.49450490  0.13330855  0.74954187  1
  O  O234  1  0.49355368  0.63159085  0.25003365  1
  O  O235  1  0.50065821  0.62642768  0.73765467  1
  O  O236  1  0.99538737  0.13111762  0.24349676  1
  O  O237  1  0.99418246  0.13007267  0.74255306  1
  O  O238  1  0.99540349  0.63127828  0.24514917  1
  O  O239  1  0.99389808  0.62872207  0.74437445  1
  O  O240  1  0.37389826  0.25608714  0.00588902  1
  O  O241  1  0.37115085  0.25309682  0.50472282  1
  O  O242  1  0.37442382  0.75154037  0.01263711  1
  O  O243  1  0.37048731  0.75496816  0.50541196  1
  O  O244  1  0.86767901  0.25879441  0.00161466  1
  O  O245  1  0.86981140  0.25516906  0.50477578  1
  O  O246  1  0.86599869  0.75077402  0.00537922  1
  O  O247  1  0.87085164  0.75437775  0.50511586  1
  O  O248  1  0.12548525  0.24247342  0.49326993  1
  O  O249  1  0.12669137  0.24831805  0.98941336  1
  O  O250  1  0.13186905  0.74293185  0.49863089  1
  O  O251  1  0.12477814  0.74199893  0.99353678  1
  O  O252  1  0.63059810  0.24380395  0.49484125  1
  O  O253  1  0.63132988  0.25047457  0.99268553  1
  O  O254  1  0.63132918  0.74467761  0.49507647  1
  O  O255  1  0.63273267  0.75040336  0.99117467  1
  O  O256  1  0.49512198  0.24522996  0.12979503  1
  O  O257  1  0.50097165  0.24736180  0.63794024  1
  O  O258  1  0.49125678  0.74936310  0.13131992  1
  O  O259  1  0.49689409  0.74129496  0.62634273  1
  O  O260  1  1.00089655  0.24170692  0.13197831  1
  O  O261  1  0.99444348  0.24411528  0.62891780  1
  O  O262  1  0.99490052  0.74485903  0.13005949  1
  O  O263  1  0.99446975  0.74326286  0.62941231  1
  O  O264  1  0.00604475  0.25616420  0.37076178  1
  O  O265  1  0.00615486  0.25148861  0.86681242  1
  O  O266  1  0.00238692  0.75692929  0.36814790  1
  O  O267  1  0.00440583  0.75522751  0.86905320  1
  O  O268  1  0.50607781  0.25390864  0.36864523  1
  O  O269  1  0.50500099  0.25044608  0.86420265  1
  O  O270  1  0.50840824  0.75076975  0.36933821  1
  O  O271  1  0.50745948  0.75704427  0.87754461  1
  O  O272  1  0.24251580  0.12513655  0.49308959  1
  O  O273  1  0.24688394  0.12733840  0.98997758  1
  O  O274  1  0.24534357  0.62971641  0.49612862  1
  O  O275  1  0.24230655  0.62621224  0.99317487  1
  O  O276  1  0.74524665  0.13046710  0.49407450  1
  O  O277  1  0.74887454  0.13377393  0.99366820  1
  O  O278  1  0.74571581  0.63068301  0.49504349  1
  O  O279  1  0.74948492  0.63604551  0.99369793  1
  O  O280  1  0.25570428  0.37361787  0.00738137  1
  O  O281  1  0.24938379  0.37387384  0.51253027  1
  O  O282  1  0.25231312  0.87065012  0.00397186  1
  O  O283  1  0.25615414  0.86960622  0.50495097  1
  O  O284  1  0.75468450  0.37173154  0.00716480  1
  O  O285  1  0.75526513  0.36897665  0.50530328  1
  O  O286  1  0.75179642  0.86300652  0.00018003  1
  O  O287  1  0.75769201  0.86779553  0.50147102  1
  O  O288  1  0.12536143  0.49368815  0.24382512  1
  O  O289  1  0.12912460  0.49504662  0.74416624  1
  O  O290  1  0.12376195  0.99152397  0.24141117  1
  O  O291  1  0.13199011  0.99775632  0.74073938  1
  O  O292  1  0.62799788  0.49089987  0.24903428  1
  O  O293  1  0.63063907  0.49458438  0.74573326  1
  O  O294  1  0.62489307  0.99219930  0.24176696  1
  O  O295  1  0.63343452  1.00159761  0.74186667  1
  O  O296  1  0.37611023  0.00615284  0.25524501  1
  O  O297  1  0.36962862  0.00467028  0.75552752  1
  O  O298  1  0.37514239  0.50540414  0.26135643  1
  O  O299  1  0.36754259  0.50223609  0.75766093  1
  O  O300  1  0.87398822  0.00695981  0.25747768  1
  O  O301  1  0.86413248  0.00650714  0.74832191  1
  O  O302  1  0.87440970  0.50763141  0.25731826  1
  O  O303  1  0.86886825  0.50486557  0.75490814  1
  O  O304  1  0.11967458  0.37105220  0.37091068  1
  O  O305  1  0.12335736  0.36830374  0.86734641  1
  O  O306  1  0.11918784  0.87586614  0.36552562  1
  O  O307  1  0.11476157  0.86836220  0.87189161  1
  O  O308  1  0.62109444  0.36819920  0.37012620  1
  O  O309  1  0.62354987  0.36780196  0.86624693  1
  O  O310  1  0.62544516  0.86888876  0.36579725  1
  O  O311  1  0.61587078  0.86757972  0.87537729  1
  O  O312  1  0.38060413  0.12945827  0.12978554  1
  O  O313  1  0.37706605  0.12599579  0.63376929  1
  O  O314  1  0.37632019  0.63427757  0.13277141  1
  O  O315  1  0.38496265  0.62909011  0.62414903  1
  O  O316  1  0.88447374  0.12731148  0.13234146  1
  O  O317  1  0.88016937  0.13058287  0.62874258  1
  O  O318  1  0.88114661  0.63094277  0.13075455  1
  O  O319  1  0.88045700  0.62918509  0.63027884  1
  O  O320  1  0.25643309  0.25605381  0.12367323  1
  O  O321  1  0.24970161  0.26210884  0.62615311  1
  O  O322  1  0.26183017  0.75204514  0.12538005  1
  O  O323  1  0.25584367  0.75405368  0.61932352  1
  O  O324  1  0.75133317  0.26141107  0.11928001  1
  O  O325  1  0.75456748  0.25433255  0.61947750  1
  O  O326  1  0.75523762  0.75082296  0.11528333  1
  O  O327  1  0.75610403  0.75025877  0.61958991  1
  O  O328  1  0.24288131  0.24335430  0.37545808  1
  O  O329  1  0.24166013  0.24245142  0.87235604  1
  O  O330  1  0.24962896  0.74318654  0.38251610  1
  O  O331  1  0.24290916  0.74317822  0.87446639  1
  O  O332  1  0.74469628  0.24499215  0.38090290  1
  O  O333  1  0.74468596  0.24574258  0.87865239  1
  O  O334  1  0.74569491  0.74358705  0.38122096  1
  O  O335  1  0.74345816  0.74654133  0.88196397  1
  O  O336  1  0.00065008  0.12711133  0.01288547  1
  O  O337  1  0.00499441  0.11894769  0.50495220  1
  O  O338  1  0.00487276  0.62004628  0.00628698  1
  O  O339  1  0.00484387  0.61942257  0.50540975  1
  O  O340  1  0.50242998  0.11914073  0.00633923  1
  O  O341  1  0.50758049  0.11774025  0.50105263  1
  O  O342  1  0.49995548  0.61172006  0.00152316  1
  O  O343  1  0.50733569  0.62320095  0.51156613  1
  O  O344  1  0.49880709  0.37656575  0.49197841  1
  O  O345  1  0.49206232  0.38331012  0.99753888  1
  O  O346  1  0.49357365  0.88095894  0.49822410  1
  O  O347  1  0.49832238  0.88168881  0.98926409  1
  O  O348  1  0.99483070  0.38024808  0.49549259  1
  O  O349  1  0.99293594  0.38289488  0.99994210  1
  O  O350  1  0.99503492  0.87991863  0.49499726  1
  O  O351  1  0.99896282  0.87595945  0.98686592  1
  O  O352  1  0.49179048  0.49361957  0.37695598  1
  O  O353  1  0.49242053  0.49820012  0.88300931  1
  O  O354  1  0.49405522  0.99790854  0.38177265  1
  O  O355  1  0.49606057  0.99347301  0.87930112  1
  O  O356  1  0.99484866  0.49482769  0.38112441  1
  O  O357  1  0.99295945  0.49939933  0.88196479  1
  O  O358  1  0.99453351  0.99531849  0.38089433  1
  O  O359  1  0.99856858  0.98919806  0.87190485  1
  O  O360  1  0.00796548  0.01144443  0.12661770  1
  O  O361  1  0.00450789  0.00488738  0.61951033  1
  O  O362  1  0.00539956  0.50690042  0.12021326  1
  O  O363  1  0.00438615  0.50488605  0.61980376  1
  O  O364  1  0.50833598  0.00500305  0.12044080  1
  O  O365  1  0.50975304  0.00038401  0.62015786  1
  O  O366  1  0.49877152  0.49959766  0.11364856  1
  O  O367  1  0.50602693  0.50789848  0.62495936  1
  O  O368  1  0.24253565  0.37648501  0.24328125  1
  O  O369  1  0.24345767  0.38110319  0.74186548  1
  O  O370  1  0.23698780  0.87700951  0.24795884  1
  O  O371  1  0.24890993  0.88098142  0.74202918  1
  O  O372  1  0.74550154  0.37524045  0.24149959  1
  O  O373  1  0.74486553  0.37993112  0.74378547  1
  O  O374  1  0.73818589  0.87650743  0.24761322  1
  O  O375  1  0.74846451  0.88673036  0.74906090  1
  O  O376  1  0.25763164  0.12372998  0.25642391  1
  O  O377  1  0.25509240  0.11800732  0.75453731  1
  O  O378  1  0.25757551  0.62330231  0.25845720  1
  O  O379  1  0.24993835  0.61731097  0.75627754  1
  O  O380  1  0.75661247  0.12540865  0.25704431  1
  O  O381  1  0.75461104  0.11791607  0.75404166  1
  O  O382  1  0.75749444  0.62475799  0.25690532  1
  O  O383  1  0.75518917  0.61902373  0.75566756  1
  O  O384  1  0.37050097  0.11954136  0.36910808  1
  O  O385  1  0.36898425  0.11814534  0.86844360  1
  O  O386  1  0.37171218  0.61723957  0.37175699  1
  O  O387  1  0.36713437  0.61836977  0.87438387  1
  O  O388  1  0.87080713  0.12025438  0.37145277  1
  O  O389  1  0.86824984  0.12493842  0.86638369  1
  O  O390  1  0.87106649  0.62043316  0.37046335  1
  O  O391  1  0.86909064  0.62029811  0.86917953  1
  O  O392  1  0.12907969  0.38057719  0.13056753  1
  O  O393  1  0.13164626  0.38068061  0.62984961  1
  O  O394  1  0.12075642  0.88461459  0.13381014  1
  O  O395  1  0.13183431  0.88099068  0.62452555  1
  O  O396  1  0.63445660  0.37572340  0.13079449  1
  O  O397  1  0.63113682  0.37996926  0.63010679  1
  O  O398  1  0.62564498  0.88403505  0.13272589  1
  O  O399  1  0.62721771  0.88654087  0.62730156  1
  O  O400  1  0.11920049  0.25642492  0.25652412  1
  O  O401  1  0.11825861  0.25480918  0.75453867  1
  O  O402  1  0.11895616  0.76042253  0.24977189  1
  O  O403  1  0.11698984  0.74982012  0.75586897  1
  O  O404  1  0.61960102  0.25495673  0.25558137  1
  O  O405  1  0.61823177  0.25367063  0.75413222  1
  O  O406  1  0.62202349  0.75695488  0.25409142  1
  O  O407  1  0.62513101  0.75297029  0.76430669  1
  O  O408  1  0.38161483  0.24409636  0.24370020  1
  O  O409  1  0.38410856  0.24455915  0.74975387  1
  O  O410  1  0.38129027  0.74586799  0.24467600  1
  O  O411  1  0.37879784  0.74606250  0.74136650  1
  O  O412  1  0.88319213  0.24425044  0.24992487  1
  O  O413  1  0.87891725  0.24523604  0.74312372  1
  O  O414  1  0.88063325  0.74524588  0.24502502  1
  O  O415  1  0.87901825  0.74296702  0.74446735  1
  O  O416  1  0.37733046  0.49730184  0.48692614  1
  O  O417  1  0.38104291  0.49434514  0.99544183  1
  O  O418  1  0.38083473  0.99477046  0.49470219  1
  O  O419  1  0.38199748  0.99873351  0.99314733  1
  O  O420  1  0.88054303  0.49444077  0.49525103  1
  O  O421  1  0.87988334  0.49692995  0.99488942  1
  O  O422  1  0.88074550  0.99499734  0.49539282  1
  O  O423  1  0.87950713  0.99734731  0.99514224  1
  O  O424  1  0.11936382  0.00339656  0.01163211  1
  O  O425  1  0.11891861  0.00512009  0.50435131  1
  O  O426  1  0.11887277  0.50570085  0.00636201  1
  O  O427  1  0.11893031  0.50545307  0.50558689  1
  O  O428  1  0.61949911  0.00106529  0.01025402  1
  O  O429  1  0.62186310  0.00335011  0.50696745  1
  O  O430  1  0.61246475  0.49933138  -0.00007301  1
  O  O431  1  0.62528040  0.50673771  0.50788795  1
  O  O432  1  0.36895481  0.36867370  0.12073504  1
  O  O433  1  0.36278174  0.37570351  0.62491807  1
  O  O434  1  0.37393838  0.86465580  0.12652018  1
  O  O435  1  0.37033271  0.86957463  0.61875187  1
  O  O436  1  0.86631322  0.37499065  0.11995089  1
  O  O437  1  0.86916933  0.36939565  0.61929694  1
  O  O438  1  0.87346909  0.86791271  0.12436660  1
  O  O439  1  0.87458640  0.86750904  0.61817681  1
  O  O440  1  0.12922163  0.12960924  0.37898635  1
  O  O441  1  0.12982330  0.13165187  0.87343840  1
  O  O442  1  0.13199121  0.62548718  0.38180868  1
  O  O443  1  0.12886062  0.62939738  0.88093128  1
  O  O444  1  0.63025158  0.12971977  0.37941028  1
  O  O445  1  0.63255199  0.13210805  0.87669148  1
  O  O446  1  0.63092201  0.62976776  0.38066668  1
  O  O447  1  0.63021870  0.63494267  0.87745593  1
