# generated using pymatgen
data_V3Zn3O8
_symmetry_space_group_name_H-M   'P 1'
_cell_length_a   17.08388840
_cell_length_b   17.08378247
_cell_length_c   17.08306948
_cell_angle_alpha   89.98462807
_cell_angle_beta   90.01114216
_cell_angle_gamma   90.00233551
_symmetry_Int_Tables_number   1
_chemical_formula_structural   V3Zn3O8
_chemical_formula_sum   'V96 Zn96 O256'
_cell_volume   4985.82053084
_cell_formula_units_Z   32
loop_
 _symmetry_equiv_pos_site_id
 _symmetry_equiv_pos_as_xyz
  1  'x, y, z'
loop_
 _atom_site_type_symbol
 _atom_site_label
 _atom_site_symmetry_multiplicity
 _atom_site_fract_x
 _atom_site_fract_y
 _atom_site_fract_z
 _atom_site_occupancy
  V  V0  1  0.62530831  0.49955694  0.12464591  1
  V  V1  1  0.87591784  0.24928062  0.12526674  1
  V  V2  1  0.00097118  0.62557116  0.12377276  1
  V  V3  1  0.75141603  0.62323549  0.87307982  1
  V  V4  1  0.87477718  0.62402313  0.25112545  1
  V  V5  1  0.25113854  0.50017029  0.24883016  1
  V  V6  1  0.87597686  0.37416789  0.49886660  1
  V  V7  1  0.62543436  -0.00071783  0.12664241  1
  V  V8  1  0.49962004  0.87422492  0.87576326  1
  V  V9  1  0.75017665  0.12425477  0.87527207  1
  V  V10  1  0.37491299  0.74958784  0.12528292  1
  V  V11  1  0.37414817  0.00067191  0.87542353  1
  V  V12  1  0.00037601  0.49860886  0.49750779  1
  V  V13  1  0.25100958  0.37522987  0.62321864  1
  V  V14  1  0.49981805  0.00000153  0.00062725  1
  V  V15  1  0.12339442  -0.00000337  0.62448618  1
  V  V16  1  0.49964473  0.87468294  0.37594232  1
  V  V17  1  0.75036312  0.25034715  0.50035593  1
  V  V18  1  0.37512936  0.37403572  0.49881684  1
  V  V19  1  0.62583010  0.62506287  0.50012374  1
  V  V20  1  0.87577430  0.37576436  -0.00060254  1
  V  V21  1  -0.00145171  0.87374411  0.87550512  1
  V  V22  1  0.87440238  0.75208134  0.12514956  1
  V  V23  1  0.50151030  0.25161315  0.75025511  1
  V  V24  1  0.62390860  0.12516422  0.50004954  1
  V  V25  1  0.87336877  0.00022114  0.37602763  1
  V  V26  1  0.24879790  0.75041389  -0.00099908  1
  V  V27  1  0.37508310  0.12493239  0.25006916  1
  V  V28  1  0.62650188  0.37533374  0.24915465  1
  V  V29  1  0.50087271  0.37528255  0.37442905  1
  V  V30  1  0.37552557  0.75007443  0.62573469  1
  V  V31  1  0.12275874  0.87391529  0.75003115  1
  V  V32  1  0.62489313  -0.00024498  0.62631948  1
  V  V33  1  0.62338736  0.75046066  0.87670503  1
  V  V34  1  0.00002636  0.24885885  0.24949533  1
  V  V35  1  0.25029539  0.62551575  0.37521155  1
  V  V36  1  0.25008368  0.74920950  0.49955641  1
  V  V37  1  0.12507514  0.50075474  0.12312898  1
  V  V38  1  0.62310907  0.62451840  0.00099374  1
  V  V39  1  0.25018645  0.37572260  0.12482734  1
  V  V40  1  0.24993883  0.24959966  0.49880105  1
  V  V41  1  0.49894574  0.00028110  0.50081553  1
  V  V42  1  0.50023407  0.25011324  0.24942183  1
  V  V43  1  0.37343448  0.12391803  0.75074763  1
  V  V44  1  0.12466536  0.12485250  0.50053482  1
  V  V45  1  0.62482390  0.74980963  0.37551664  1
  V  V46  1  0.74915176  0.87518648  0.62585207  1
  V  V47  1  0.75045547  0.37505048  0.12457039  1
  V  V48  1  0.50075453  0.37542438  0.87443101  1
  V  V49  1  -0.00050466  0.00074146  0.50120955  1
  V  V50  1  0.74950715  0.12438729  0.37558918  1
  V  V51  1  0.37412725  0.87532021  0.00010658  1
  V  V52  1  0.37528729  0.25053315  0.12463540  1
  V  V53  1  0.75031591  0.24902059  -0.00063691  1
  V  V54  1  0.50101792  0.49999612  0.49961625  1
  V  V55  1  0.12607026  0.49938931  0.62237809  1
  V  V56  1  0.87418976  0.00068444  0.87472509  1
  V  V57  1  0.62512190  0.87490520  0.25071625  1
  V  V58  1  0.49932412  0.75028814  0.75101496  1
  V  V59  1  0.74984808  0.75027260  0.50182632  1
  V  V60  1  0.37465782  0.00024181  0.37522328  1
  V  V61  1  0.49955802  0.74919021  0.24998811  1
  V  V62  1  -0.00242424  0.62624586  0.62509263  1
  V  V63  1  0.62497493  0.25026215  0.37489674  1
  V  V64  1  0.12635352  0.25033969  0.87612071  1
  V  V65  1  0.25140650  0.50010931  0.74909928  1
  V  V66  1  0.00003214  0.00096649  0.00006411  1
  V  V67  1  0.00064568  0.37729367  0.87543943  1
  V  V68  1  0.74906307  0.75055440  0.00157048  1
  V  V69  1  0.74936081  0.00013055  0.75083979  1
  V  V70  1  0.00215575  0.87346710  0.37427457  1
  V  V71  1  0.24865432  0.62599148  0.87444623  1
  V  V72  1  0.00049577  0.24873604  0.74844961  1
  V  V73  1  0.75035692  0.37473512  0.62643246  1
  V  V74  1  0.87366721  0.87440438  0.50159964  1
  V  V75  1  -0.00026804  0.12473757  0.12465366  1
  V  V76  1  0.12525646  0.12542268  0.00054529  1
  V  V77  1  0.50034650  0.12490946  0.12471580  1
  V  V78  1  0.62631169  0.49938111  0.62571158  1
  V  V79  1  0.49893097  0.12537525  0.62514575  1
  V  V80  1  0.74886794  -0.00017613  0.25148257  1
  V  V81  1  0.37583717  0.62554641  0.24923889  1
  V  V82  1  0.37585004  0.37599332  -0.00098588  1
  V  V83  1  0.12590871  0.62495848  0.49769108  1
  V  V84  1  0.49970301  0.49978944  -0.00098909  1
  V  V85  1  0.24870854  -0.00090711  0.24927055  1
  V  V86  1  0.50012736  0.62571749  0.62553898  1
  V  V87  1  0.37582390  0.50014284  0.37395023  1
  V  V88  1  0.24895931  0.87567680  0.12503470  1
  V  V89  1  0.00019734  0.37394274  0.37413405  1
  V  V90  1  0.24850390  0.87514197  0.62561459  1
  V  V91  1  0.25032634  0.24999438  -0.00046265  1
  V  V92  1  0.62576589  0.12499304  0.00005746  1
  V  V93  1  0.37436439  0.87541829  0.50135752  1
  V  V94  1  0.75105603  0.62437831  0.37485719  1
  V  V95  1  0.12464140  0.24886109  0.37416749  1
  Zn  Zn96  1  0.62691499  0.25088739  0.87493126  1
  Zn  Zn97  1  -0.00094096  0.50142127  -0.00173113  1
  Zn  Zn98  1  0.00417614  0.75141177  0.25030580  1
  Zn  Zn99  1  0.24954452  0.12490661  0.37487132  1
  Zn  Zn100  1  0.75020390  0.49904545  0.25063175  1
  Zn  Zn101  1  0.87430487  0.12566575  0.74747069  1
  Zn  Zn102  1  0.12472021  0.37367603  0.24939332  1
  Zn  Zn103  1  0.75033135  0.87567858  0.12551683  1
  Zn  Zn104  1  0.62502003  0.87552364  0.75211814  1
  Zn  Zn105  1  0.12685924  0.37336890  0.74899626  1
  Zn  Zn106  1  0.87330132  0.87637707  0.00122025  1
  Zn  Zn107  1  0.12613331  0.75030225  0.37266484  1
  Zn  Zn108  1  0.12474365  0.87353336  0.24913509  1
  Zn  Zn109  1  0.24784075  0.00086494  0.75172083  1
  Zn  Zn110  1  0.37516769  0.62599708  0.74968429  1
  Zn  Zn111  1  0.75173393  0.49820849  0.75171311  1
  Zn  Zn112  1  0.87472803  0.12411236  0.25035331  1
  Zn  Zn113  1  0.87676008  0.24848930  0.62503464  1
  Zn  Zn114  1  0.37413542  0.24973027  0.62365887  1
  Zn  Zn115  1  0.87539674  0.50124155  0.87411007  1
  Zn  Zn116  1  0.87290962  0.74855726  0.62807442  1
  Zn  Zn117  1  0.62630589  0.37644520  0.75178198  1
  Zn  Zn118  1  0.87499082  0.62339714  0.75002020  1
  Zn  Zn119  1  0.49970871  0.62397759  0.12448377  1
  Zn  Zn120  1  0.12279329  0.74970479  0.87616736  1
  Zn  Zn121  1  0.37595861  0.50079721  0.87361671  1
  Zn  Zn122  1  0.12358830  -0.00106894  0.12540290  1
  Zn  Zn123  1  0.24957752  0.12461478  0.87587801  1
  Zn  Zn124  1  -0.00202549  0.12547354  0.62552217  1
  Zn  Zn125  1  0.87459187  0.49848762  0.37326673  1
  Zn  Zn126  1  -0.00390221  0.74706460  0.75121816  1
  Zn  Zn127  1  0.12372177  0.62779561  -0.00134620  1
  Zn  Zn128  1  0.18635666  0.18639712  0.18691310  1
  Zn  Zn129  1  0.18665966  0.18824640  0.68615556  1
  Zn  Zn130  1  0.18739495  0.69007621  0.18905828  1
  Zn  Zn131  1  0.18462599  0.68777394  0.68690047  1
  Zn  Zn132  1  0.68866753  0.18698651  0.18745132  1
  Zn  Zn133  1  0.68741081  0.18671043  0.68775524  1
  Zn  Zn134  1  0.68789699  0.68646441  0.18772829  1
  Zn  Zn135  1  0.68499080  0.68901799  0.68961169  1
  Zn  Zn136  1  0.31110408  0.31274212  0.31220521  1
  Zn  Zn137  1  0.31423135  0.31299420  0.81284401  1
  Zn  Zn138  1  0.31321541  0.81270139  0.31258800  1
  Zn  Zn139  1  0.31151046  0.81267438  0.81184311  1
  Zn  Zn140  1  0.81363983  0.31117873  0.31181463  1
  Zn  Zn141  1  0.81537643  0.31089525  0.81268244  1
  Zn  Zn142  1  0.81302629  0.81225298  0.31310807  1
  Zn  Zn143  1  0.81355897  0.80986053  0.81003666  1
  Zn  Zn144  1  0.18683403  0.43616342  0.43549066  1
  Zn  Zn145  1  0.18707570  0.43806055  0.93747998  1
  Zn  Zn146  1  0.18704319  0.93831311  0.43807949  1
  Zn  Zn147  1  0.18702215  0.93978566  0.93674581  1
  Zn  Zn148  1  0.68949793  0.43869539  0.43726617  1
  Zn  Zn149  1  0.68590335  0.43687364  0.93786771  1
  Zn  Zn150  1  0.68678345  0.93755438  0.43886936  1
  Zn  Zn151  1  0.68827251  0.93612048  0.93935157  1
  Zn  Zn152  1  0.31222572  0.06337518  0.06285146  1
  Zn  Zn153  1  0.30978450  0.06270313  0.56409539  1
  Zn  Zn154  1  0.31305011  0.56365502  0.06058005  1
  Zn  Zn155  1  0.31431776  0.56276370  0.56178373  1
  Zn  Zn156  1  0.81348551  0.06189058  0.06279991  1
  Zn  Zn157  1  0.81393552  0.06365664  0.56498309  1
  Zn  Zn158  1  0.81194359  0.56084176  0.05995713  1
  Zn  Zn159  1  0.81408313  0.55931640  0.56064905  1
  Zn  Zn160  1  0.43868134  0.43777845  0.18593826  1
  Zn  Zn161  1  0.43659584  0.43753426  0.68610042  1
  Zn  Zn162  1  0.43654409  0.93647561  0.18769034  1
  Zn  Zn163  1  0.43775760  0.93722427  0.68923232  1
  Zn  Zn164  1  0.93847773  0.43690018  0.18764485  1
  Zn  Zn165  1  0.93511712  0.43964989  0.68962862  1
  Zn  Zn166  1  0.93703655  0.93977325  0.18964202  1
  Zn  Zn167  1  0.93534006  0.93808907  0.68796382  1
  Zn  Zn168  1  0.06215770  0.06284602  0.31328394  1
  Zn  Zn169  1  0.06254755  0.06301287  0.81362353  1
  Zn  Zn170  1  0.06315647  0.56174524  0.31093218  1
  Zn  Zn171  1  0.06559501  0.56078731  0.80956302  1
  Zn  Zn172  1  0.56196846  0.06230699  0.31296895  1
  Zn  Zn173  1  0.56296779  0.06287999  0.81371829  1
  Zn  Zn174  1  0.56367960  0.56245601  0.31135917  1
  Zn  Zn175  1  0.56461887  0.56200297  0.81115500  1
  Zn  Zn176  1  0.43602524  0.18753169  0.43617857  1
  Zn  Zn177  1  0.43811902  0.18834277  0.93615547  1
  Zn  Zn178  1  0.43702637  0.68741801  0.43822370  1
  Zn  Zn179  1  0.43484586  0.68584593  0.93713559  1
  Zn  Zn180  1  0.93711301  0.18710113  0.43802521  1
  Zn  Zn181  1  0.93715587  0.18766818  0.93613155  1
  Zn  Zn182  1  0.93706401  0.68887859  0.43918924  1
  Zn  Zn183  1  0.93549905  0.68925947  0.93939469  1
  Zn  Zn184  1  0.06266622  0.31256321  0.06207825  1
  Zn  Zn185  1  0.06461216  0.31276856  0.56216562  1
  Zn  Zn186  1  0.06455767  0.81379482  0.06222206  1
  Zn  Zn187  1  0.06256713  0.81075629  0.56035706  1
  Zn  Zn188  1  0.56369132  0.31277706  0.06130680  1
  Zn  Zn189  1  0.56308684  0.31239989  0.56374681  1
  Zn  Zn190  1  0.56198433  0.81233839  0.06400263  1
  Zn  Zn191  1  0.56331244  0.81312374  0.56394831  1
  O  O192  1  0.11762926  0.12349534  0.11781542  1
  O  O193  1  0.12306113  0.11761165  0.61852871  1
  O  O194  1  0.11701513  0.61800722  0.12613008  1
  O  O195  1  0.11828685  0.61894396  0.61722179  1
  O  O196  1  0.61904779  0.11913888  0.12065401  1
  O  O197  1  0.61864737  0.11956497  0.61891824  1
  O  O198  1  0.62359339  0.61854352  0.11896418  1
  O  O199  1  0.61980781  0.62036930  0.61866049  1
  O  O200  1  0.38157436  0.38085541  0.37843394  1
  O  O201  1  0.38240752  0.37737312  0.88182576  1
  O  O202  1  0.38096919  0.88009164  0.38181471  1
  O  O203  1  0.37983182  0.88018794  0.88101513  1
  O  O204  1  0.88187094  0.37528849  0.38046923  1
  O  O205  1  0.88577709  0.37442821  0.88120164  1
  O  O206  1  0.88157355  0.88019554  0.38145737  1
  O  O207  1  0.88474979  0.88031945  0.87559576  1
  O  O208  1  0.25691439  0.00003437  0.36615452  1
  O  O209  1  0.25868963  0.00348026  0.87243780  1
  O  O210  1  0.25660836  0.50500152  0.36932928  1
  O  O211  1  0.24944491  0.50704349  0.86572342  1
  O  O212  1  0.75304244  0.00504586  0.37168109  1
  O  O213  1  0.75425587  0.00427998  0.87106182  1
  O  O214  1  0.75337195  0.50827270  0.37194503  1
  O  O215  1  0.74874002  0.51206599  0.87635502  1
  O  O216  1  0.24363634  0.49639846  0.12906682  1
  O  O217  1  0.24645553  0.49655452  0.63035458  1
  O  O218  1  0.25192530  0.99462356  0.13439542  1
  O  O219  1  0.24195539  0.99182998  0.62684607  1
  O  O220  1  0.74328492  0.49253977  0.12571426  1
  O  O221  1  0.74463295  0.48919853  0.62260982  1
  O  O222  1  0.74333050  0.99912052  0.13247063  1
  O  O223  1  0.74359684  0.99531385  0.63016329  1
  O  O224  1  0.00135821  0.36729335  0.25555423  1
  O  O225  1  0.00270155  0.36816217  0.75917527  1
  O  O226  1  0.00037697  0.87593359  0.26293040  1
  O  O227  1  0.00688124  0.87547317  0.75859485  1
  O  O228  1  0.50557793  0.36911286  0.25487454  1
  O  O229  1  0.49855950  0.36565249  0.75382208  1
  O  O230  1  0.50435824  0.86952679  0.25699850  1
  O  O231  1  0.50101695  0.86886928  0.75810372  1
  O  O232  1  0.49537893  0.13045939  0.24455231  1
  O  O233  1  0.49261162  0.13191081  0.74589549  1
  O  O234  1  0.49350844  0.63158228  0.24963619  1
  O  O235  1  0.49809341  0.63136906  0.74344181  1
  O  O236  1  0.99803091  0.13039419  0.24339730  1
  O  O237  1  0.99994812  0.13721716  0.75057138  1
  O  O238  1  0.99171594  0.62639245  0.24060856  1
  O  O239  1  1.00275352  0.62452684  0.73663979  1
  O  O240  1  0.37108103  0.25527140  0.00590940  1
  O  O241  1  0.36906159  0.25625271  0.49963468  1
  O  O242  1  0.36927862  0.75625811  0.00529425  1
  O  O243  1  0.37063234  0.75632531  0.50597932  1
  O  O244  1  0.86981930  0.25567569  0.00569885  1
  O  O245  1  0.86794734  0.25664957  0.50077806  1
  O  O246  1  0.86851841  0.75057461  0.01204437  1
  O  O247  1  0.86635231  0.75668926  0.50236889  1
  O  O248  1  0.13030581  0.24453557  0.49377760  1
  O  O249  1  0.13101791  0.24513971  0.99589352  1
  O  O250  1  0.13347461  0.74295247  0.49722456  1
  O  O251  1  0.13389307  0.74808499  0.99754165  1
  O  O252  1  0.62895894  0.24445858  0.49372685  1
  O  O253  1  0.63215963  0.24224736  1.00031202  1
  O  O254  1  0.62919765  0.74461714  0.49436048  1
  O  O255  1  0.62858484  0.74428583  0.99654288  1
  O  O256  1  0.49505378  0.24499706  0.13004807  1
  O  O257  1  0.49777255  0.24429489  0.63295594  1
  O  O258  1  0.49272269  0.74889136  0.13244069  1
  O  O259  1  0.49559113  0.74554802  0.63009697  1
  O  O260  1  0.99499786  0.24500198  0.12932781  1
  O  O261  1  1.00184522  0.25151146  0.63701028  1
  O  O262  1  0.99172561  0.74202198  0.12556948  1
  O  O263  1  0.99936546  0.73645053  0.62256254  1
  O  O264  1  0.00518265  0.25421198  0.36940347  1
  O  O265  1  0.00582505  0.25842203  0.86867146  1
  O  O266  1  0.00024131  0.76233946  0.37515239  1
  O  O267  1  0.00137847  0.76134963  0.87511194  1
  O  O268  1  0.50541628  0.25548313  0.36913172  1
  O  O269  1  0.50124896  0.25597845  0.86569399  1
  O  O270  1  0.50480103  0.75540804  0.37069619  1
  O  O271  1  0.50324049  0.75455145  0.87145702  1
  O  O272  1  0.24364150  0.13110377  0.49814169  1
  O  O273  1  0.24494535  0.13291588  0.99988354  1
  O  O274  1  0.24612553  0.62912625  0.49448467  1
  O  O275  1  0.24928093  0.63091169  0.99030679  1
  O  O276  1  0.74273469  0.12984446  0.49516943  1
  O  O277  1  0.74490954  0.12936809  0.99542771  1
  O  O278  1  0.74456140  0.62992701  0.49532800  1
  O  O279  1  0.74324418  0.63089884  0.99324976  1
  O  O280  1  0.25591067  0.37003400  0.00559959  1
  O  O281  1  0.25614898  0.37035350  0.50310593  1
  O  O282  1  0.25565793  0.87113304  0.00444602  1
  O  O283  1  0.25553705  0.86988433  0.50545007  1
  O  O284  1  0.75521533  0.36859836  0.00505232  1
  O  O285  1  0.75459296  0.36970899  0.50664627  1
  O  O286  1  0.75283947  0.86659766  0.00468936  1
  O  O287  1  0.75372778  0.87019891  0.50527308  1
  O  O288  1  0.13203867  0.49930479  0.23832720  1
  O  O289  1  0.13777692  0.49727624  0.74177656  1
  O  O290  1  0.13824600  0.99894986  0.24938423  1
  O  O291  1  0.12453378  0.98974521  0.74461147  1
  O  O292  1  0.62595737  0.49265483  0.24341923  1
  O  O293  1  0.62902844  0.49706085  0.74027195  1
  O  O294  1  0.62850440  0.99448040  0.24641381  1
  O  O295  1  0.63013386  0.99909005  0.74381439  1
  O  O296  1  0.36874362  0.00485300  0.25487279  1
  O  O297  1  0.37573475  0.00961202  0.75562169  1
  O  O298  1  0.37129608  0.50490502  0.25464367  1
  O  O299  1  0.36232038  0.50293316  0.74918249  1
  O  O300  1  0.86662827  0.00189386  0.25831204  1
  O  O301  1  0.86727767  0.00170855  0.75737898  1
  O  O302  1  0.87373173  0.51303438  0.24934318  1
  O  O303  1  0.86934436  0.50547574  0.75596705  1
  O  O304  1  0.11837829  0.36739528  0.37247980  1
  O  O305  1  0.11620397  0.36917180  0.87552040  1
  O  O306  1  0.11296364  0.87514038  0.37591215  1
  O  O307  1  0.11547608  0.87689217  0.86615084  1
  O  O308  1  0.62013916  0.36978631  0.37009919  1
  O  O309  1  0.61689728  0.37096922  0.87197726  1
  O  O310  1  0.61856520  0.86955371  0.37120139  1
  O  O311  1  0.61680680  0.86832347  0.87687178  1
  O  O312  1  0.38166734  0.13118907  0.12986087  1
  O  O313  1  0.38080835  0.12510592  0.63458758  1
  O  O314  1  0.37580819  0.63174210  0.13159259  1
  O  O315  1  0.38257807  0.63239682  0.62414262  1
  O  O316  1  0.88184639  0.13190724  0.12584463  1
  O  O317  1  0.87947763  0.13030212  0.62884580  1
  O  O318  1  0.88131561  0.63155346  0.13120715  1
  O  O319  1  0.88721025  0.62385069  0.62278796  1
  O  O320  1  0.25613587  0.25559750  0.12014680  1
  O  O321  1  0.25181513  0.25712331  0.61740939  1
  O  O322  1  0.25633697  0.75564939  0.11970392  1
  O  O323  1  0.25498795  0.75529730  0.61933796  1
  O  O324  1  0.75571892  0.25470504  0.11939181  1
  O  O325  1  0.74842586  0.25945782  0.61840770  1
  O  O326  1  0.75936591  0.74958729  0.12094091  1
  O  O327  1  0.74751882  0.75646653  0.61829399  1
  O  O328  1  0.24359531  0.24858053  0.38032179  1
  O  O329  1  0.24457732  0.25027277  0.88217706  1
  O  O330  1  0.25230567  0.74321506  0.38236475  1
  O  O331  1  0.24825950  0.74203340  0.87937738  1
  O  O332  1  0.74346290  0.24492945  0.38027782  1
  O  O333  1  0.74948592  0.24326664  0.88179301  1
  O  O334  1  0.74377523  0.74477844  0.38130792  1
  O  O335  1  0.74369383  0.74309307  0.88169553  1
  O  O336  1  0.00547037  0.12097419  0.00464237  1
  O  O337  1  0.00677504  0.11811567  0.50064695  1
  O  O338  1  0.00088383  0.62358345  0.01240688  1
  O  O339  1  0.00568319  0.61861457  0.50499467  1
  O  O340  1  0.50450052  0.11981604  0.00579907  1
  O  O341  1  0.50404563  0.12005847  0.50470028  1
  O  O342  1  0.50529383  0.61829591  0.00036681  1
  O  O343  1  0.50620112  0.61980575  0.50475000  1
  O  O344  1  0.49598474  0.38008895  0.49367490  1
  O  O345  1  0.49527991  0.37940568  0.99447601  1
  O  O346  1  0.49424345  0.88048590  0.49560792  1
  O  O347  1  0.49340972  0.88057396  0.99586763  1
  O  O348  1  0.99589054  0.37878342  0.49406894  1
  O  O349  1  0.99497385  0.37421477  0.99043694  1
  O  O350  1  0.99413483  0.88037787  0.49318110  1
  O  O351  1  0.99958955  0.88116108  0.98989972  1
  O  O352  1  0.49587832  0.49464645  0.37984546  1
  O  O353  1  0.49865095  0.49398911  0.88027569  1
  O  O354  1  0.49472514  0.99435712  0.38094577  1
  O  O355  1  0.49473941  0.99472656  0.88196633  1
  O  O356  1  0.99981169  0.49262679  0.37977806  1
  O  O357  1  1.00258002  0.48868981  0.87633036  1
  O  O358  1  0.99391953  0.99271645  0.38115436  1
  O  O359  1  0.99448477  0.99253768  0.87957948  1
  O  O360  1  0.00001469  0.00621261  0.11865115  1
  O  O361  1  0.00611545  -0.00058536  0.61817393  1
  O  O362  1  0.00870071  0.50815861  0.12526092  1
  O  O363  1  0.00632664  0.50591961  0.61801561  1
  O  O364  1  0.50461885  0.00537991  0.12066902  1
  O  O365  1  0.50434742  0.00512912  0.61957241  1
  O  O366  1  0.50718759  0.50042567  0.11751071  1
  O  O367  1  0.50529373  0.50504458  0.61846301  1
  O  O368  1  0.24955293  0.38246572  0.24250313  1
  O  O369  1  0.25072600  0.38397538  0.74375249  1
  O  O370  1  0.25339638  0.88510664  0.24460504  1
  O  O371  1  0.23958691  0.87635494  0.74444907  1
  O  O372  1  0.74391232  0.37473932  0.24304583  1
  O  O373  1  0.74867472  0.37273349  0.73804286  1
  O  O374  1  0.74235517  0.88130007  0.25064535  1
  O  O375  1  0.74712391  0.88170678  0.74439290  1
  O  O376  1  0.25714898  0.11569108  0.24980034  1
  O  O377  1  0.26246688  0.12518986  0.75113098  1
  O  O378  1  0.25707553  0.61963504  0.25524110  1
  O  O379  1  0.24946069  0.61771299  0.75593137  1
  O  O380  1  0.74927804  0.11836645  0.25840158  1
  O  O381  1  0.74970108  0.11858279  0.75725763  1
  O  O382  1  0.75946517  0.62458325  0.25573337  1
  O  O383  1  0.74724541  0.62498858  0.76349662  1
  O  O384  1  0.37424981  0.11790286  0.36775121  1
  O  O385  1  0.37598654  0.11983610  0.86582275  1
  O  O386  1  0.37054158  0.61895741  0.37003924  1
  O  O387  1  0.36128498  0.62239336  0.87157846  1
  O  O388  1  0.86673584  0.11796334  0.37543179  1
  O  O389  1  0.86786150  0.11810624  0.87369827  1
  O  O390  1  0.87105496  0.62609006  0.36531059  1
  O  O391  1  0.86260241  0.62488089  0.87737668  1
  O  O392  1  0.13102794  0.38436655  0.12549317  1
  O  O393  1  0.13369971  0.38284772  0.62427546  1
  O  O394  1  0.13339585  0.87911774  0.12782710  1
  O  O395  1  0.12798748  0.87935399  0.63147233  1
  O  O396  1  0.63079861  0.37911907  0.12979975  1
  O  O397  1  0.63480420  0.38068135  0.62374520  1
  O  O398  1  0.62486746  0.88159649  0.13336519  1
  O  O399  1  0.63066251  0.88290910  0.62618976  1
  O  O400  1  0.11857494  0.25062034  0.25561751  1
  O  O401  1  0.11812514  0.25234733  0.75691491  1
  O  O402  1  0.12224156  0.75529778  0.25540043  1
  O  O403  1  0.12066259  0.76363344  0.75050531  1
  O  O404  1  0.61931827  0.25510376  0.25493802  1
  O  O405  1  0.61084105  0.24954873  0.75057349  1
  O  O406  1  0.61981938  0.75440193  0.25638182  1
  O  O407  1  0.61652600  0.75274248  0.75868362  1
  O  O408  1  0.38080781  0.24553180  0.24455987  1
  O  O409  1  0.38484943  0.24109760  0.74917173  1
  O  O410  1  0.38025188  0.74508729  0.24536246  1
  O  O411  1  0.38094850  0.74951885  0.74281977  1
  O  O412  1  0.88140900  0.24692685  0.24294195  1
  O  O413  1  0.88849180  0.24877249  0.74883806  1
  O  O414  1  0.87606666  0.74026442  0.24167891  1
  O  O415  1  0.87886671  0.74230242  0.74499172  1
  O  O416  1  0.38165529  0.49492018  0.49300598  1
  O  O417  1  0.38124219  0.49305075  0.99904189  1
  O  O418  1  0.37964318  0.99497473  0.49584298  1
  O  O419  1  0.38093608  0.99535812  0.99621562  1
  O  O420  1  0.88304472  0.49184694  0.49598667  1
  O  O421  1  0.87881067  0.49100014  0.99709904  1
  O  O422  1  0.87898404  0.99389974  0.49485251  1
  O  O423  1  0.88167474  0.99772308  0.99334357  1
  O  O424  1  0.11820813  0.00764946  0.00111502  1
  O  O425  1  0.11947769  0.00483594  0.50530430  1
  O  O426  1  0.12450774  0.50354056  0.01326834  1
  O  O427  1  0.12057304  0.50542856  0.50327508  1
  O  O428  1  0.61907754  0.00518191  0.00670375  1
  O  O429  1  0.61799324  0.00585607  0.50519296  1
  O  O430  1  0.61877315  0.50465069  0.00591921  1
  O  O431  1  0.61957074  0.50577896  0.50461743  1
  O  O432  1  0.37043250  0.36939591  0.11925006  1
  O  O433  1  0.36913238  0.37394190  0.61562397  1
  O  O434  1  0.37001418  0.86940916  0.11894117  1
  O  O435  1  0.36955214  0.87043186  0.62016269  1
  O  O436  1  0.87049080  0.36915130  0.11980012  1
  O  O437  1  0.86516319  0.37374335  0.61802645  1
  O  O438  1  0.87529414  0.86233441  0.12631027  1
  O  O439  1  0.86710428  0.87420938  0.61836127  1
  O  O440  1  0.12679395  0.13093634  0.38231536  1
  O  O441  1  0.12674517  0.13223126  0.88247900  1
  O  O442  1  0.13265961  0.62462743  0.38028517  1
  O  O443  1  0.13587739  0.62693607  0.87609619  1
  O  O444  1  0.62844682  0.13058364  0.38086686  1
  O  O445  1  0.63127563  0.12602412  0.88331779  1
  O  O446  1  0.62982260  0.63068563  0.38049450  1
  O  O447  1  0.63132571  0.63086146  0.88196288  1
