# generated using pymatgen
data_V3Zn3O8
_symmetry_space_group_name_H-M   'P 1'
_cell_length_a   17.08885483
_cell_length_b   17.08874421
_cell_length_c   17.09038421
_cell_angle_alpha   89.99930197
_cell_angle_beta   89.99513836
_cell_angle_gamma   90.00152736
_symmetry_Int_Tables_number   1
_chemical_formula_structural   V3Zn3O8
_chemical_formula_sum   'V96 Zn96 O256'
_cell_volume   4990.85479064
_cell_formula_units_Z   32
loop_
 _symmetry_equiv_pos_site_id
 _symmetry_equiv_pos_as_xyz
  1  'x, y, z'
loop_
 _atom_site_type_symbol
 _atom_site_label
 _atom_site_symmetry_multiplicity
 _atom_site_fract_x
 _atom_site_fract_y
 _atom_site_fract_z
 _atom_site_occupancy
  V  V0  1  0.75067600  0.25095833  -0.00008604  1
  V  V1  1  -0.00017107  0.50059199  0.00047437  1
  V  V2  1  0.25047925  0.12433667  0.37605150  1
  V  V3  1  0.87421058  0.12649010  0.74923156  1
  V  V4  1  0.87530627  0.25049622  0.12439344  1
  V  V5  1  0.12501299  0.62564922  -0.00032414  1
  V  V6  1  0.00026228  0.62669951  0.12553216  1
  V  V7  1  -0.00020143  0.12643494  0.62433393  1
  V  V8  1  0.62443030  -0.00028398  0.62376950  1
  V  V9  1  0.00044319  0.25111980  0.75071310  1
  V  V10  1  0.62491366  -0.00079236  0.12364932  1
  V  V11  1  0.37573082  0.24847063  0.12444317  1
  V  V12  1  0.25021094  0.37546928  0.62588550  1
  V  V13  1  0.37446132  0.87340161  0.50102499  1
  V  V14  1  0.12351939  0.75044036  0.87514689  1
  V  V15  1  0.49888210  0.49895256  0.00018088  1
  V  V16  1  0.50009088  0.12495011  0.12501070  1
  V  V17  1  0.12693469  0.49761987  0.12767924  1
  V  V18  1  0.25103060  0.25035484  0.49999116  1
  V  V19  1  -0.00050155  0.50014721  0.50025969  1
  V  V20  1  0.87586354  -0.00175016  0.87618073  1
  V  V21  1  0.74997959  0.49937925  0.24895072  1
  V  V22  1  0.75009506  0.25116942  0.49848026  1
  V  V23  1  0.74913862  0.12583141  0.87328974  1
  V  V24  1  0.12508299  0.74869325  0.37705139  1
  V  V25  1  0.62470315  0.12493189  -0.00142681  1
  V  V26  1  0.87389864  0.75176492  0.62423289  1
  V  V27  1  0.87593171  0.50199281  0.37541988  1
  V  V28  1  0.50171556  0.24919699  0.24957180  1
  V  V29  1  0.87481377  0.25209939  0.62456675  1
  V  V30  1  0.37446593  0.62312901  0.25082362  1
  V  V31  1  0.12513440  0.49999074  0.62645317  1
  V  V32  1  0.12490961  0.12529216  0.49987964  1
  V  V33  1  0.49873970  0.62416517  0.12555009  1
  V  V34  1  0.37627313  0.49964081  0.37481834  1
  V  V35  1  0.62508682  0.12601018  0.49835196  1
  V  V36  1  0.74856877  0.00106173  0.74830111  1
  V  V37  1  0.49872198  0.87375498  0.87423774  1
  V  V38  1  0.75113057  0.00059054  0.24917551  1
  V  V39  1  0.62480274  0.24993871  0.87452284  1
  V  V40  1  0.50011369  -0.00070381  -0.00070819  1
  V  V41  1  0.37425466  -0.00030939  0.37561965  1
  V  V42  1  0.37412398  -0.00133910  0.87451305  1
  V  V43  1  0.87498046  0.37493599  0.00139108  1
  V  V44  1  0.50011651  0.74994201  0.25041097  1
  V  V45  1  0.00001106  0.62557786  0.62588774  1
  V  V46  1  0.37418138  0.74957845  0.62399056  1
  V  V47  1  0.24893278  0.12467934  0.87570993  1
  V  V48  1  0.25089425  -0.00008906  0.25151861  1
  V  V49  1  -0.00082350  0.00085762  0.49943890  1
  V  V50  1  0.74980606  0.49984659  0.74938258  1
  V  V51  1  0.62586064  0.49979560  0.12559093  1
  V  V52  1  0.37488249  0.12448921  0.74952636  1
  V  V53  1  0.49891228  0.12528107  0.62510107  1
  V  V54  1  0.62446597  0.87487461  0.24935717  1
  V  V55  1  0.00096863  0.37472776  0.87532875  1
  V  V56  1  0.49956727  0.24983302  0.74950773  1
  V  V57  1  0.12455470  -0.00005166  0.62634411  1
  V  V58  1  0.00205765  0.37525723  0.37445007  1
  V  V59  1  0.75065723  0.62750053  0.37519549  1
  V  V60  1  0.00067353  0.12394273  0.12483423  1
  V  V61  1  0.37430628  0.87358949  0.00090118  1
  V  V62  1  0.62625174  0.62609148  0.50022908  1
  V  V63  1  0.37340665  0.74933311  0.12569761  1
  V  V64  1  0.00014765  0.75118504  0.75052110  1
  V  V65  1  0.87420437  0.12396051  0.25014570  1
  V  V66  1  -0.00069883  0.87658059  0.37636878  1
  V  V67  1  0.50051333  0.62350018  0.62465538  1
  V  V68  1  0.00061886  0.25089927  0.25043065  1
  V  V69  1  0.49957444  0.00013012  0.49963268  1
  V  V70  1  0.25052354  0.62362357  0.37572667  1
  V  V71  1  0.87509182  0.50078757  0.87607163  1
  V  V72  1  0.12577988  0.62533890  0.50047398  1
  V  V73  1  0.62371968  0.62491434  0.00015593  1
  V  V74  1  0.74986961  0.75142618  0.00009407  1
  V  V75  1  -0.00051507  0.74950533  0.24949657  1
  V  V76  1  0.49906686  0.74842840  0.74973690  1
  V  V77  1  0.37532600  0.37366675  0.00063468  1
  V  V78  1  0.24864163  -0.00096037  0.75003337  1
  V  V79  1  0.50013363  0.87475775  0.37409757  1
  V  V80  1  0.50108979  0.49927029  0.49988563  1
  V  V81  1  0.25024125  0.24882575  0.00062506  1
  V  V82  1  0.62354998  0.87445776  0.74841014  1
  V  V83  1  0.25023813  0.62354195  0.87457381  1
  V  V84  1  0.74952586  0.62501515  0.87550836  1
  V  V85  1  0.12469191  0.24923688  0.87600337  1
  V  V86  1  0.12448987  -0.00016886  0.12479466  1
  V  V87  1  0.37451405  0.62332195  0.75045754  1
  V  V88  1  0.25010431  0.87443648  0.12654505  1
  V  V89  1  0.75062465  0.87391355  0.12285018  1
  V  V90  1  0.74956929  0.87505077  0.62297165  1
  V  V91  1  0.49906221  0.37503490  0.87557368  1
  V  V92  1  0.62414558  0.74947088  0.87463105  1
  V  V93  1  0.50281545  0.37288632  0.37473944  1
  V  V94  1  0.62519674  0.37581233  0.74992326  1
  V  V95  1  0.12409133  0.87564574  0.75089168  1
  Zn  Zn96  1  0.87201267  0.87848032  0.49894242  1
  Zn  Zn97  1  0.25020633  0.49782368  0.75030501  1
  Zn  Zn98  1  0.75032485  0.75358449  0.49781982  1
  Zn  Zn99  1  0.25119593  0.49568761  0.25089992  1
  Zn  Zn100  1  -0.00078946  -0.00142306  -0.00006942  1
  Zn  Zn101  1  0.12662421  0.25031750  0.37226486  1
  Zn  Zn102  1  0.37589170  0.12474332  0.25051766  1
  Zn  Zn103  1  0.24910789  0.87293887  0.62433620  1
  Zn  Zn104  1  0.37353133  0.49829501  0.87440972  1
  Zn  Zn105  1  0.24963874  0.75039394  0.50162790  1
  Zn  Zn106  1  0.87425944  0.62706494  0.24737239  1
  Zn  Zn107  1  0.87388093  0.00159250  0.37588946  1
  Zn  Zn108  1  0.12319140  0.12415340  -0.00008163  1
  Zn  Zn109  1  0.87420942  0.37661484  0.50175435  1
  Zn  Zn110  1  0.37549914  0.25117784  0.62578679  1
  Zn  Zn111  1  0.62568752  0.49915946  0.62562766  1
  Zn  Zn112  1  0.12900191  0.37243028  0.24971126  1
  Zn  Zn113  1  0.37728862  0.37455318  0.50111945  1
  Zn  Zn114  1  0.62628483  0.75182382  0.37431414  1
  Zn  Zn115  1  0.75011054  0.12448979  0.37344683  1
  Zn  Zn116  1  0.87534390  0.62553392  0.75107520  1
  Zn  Zn117  1  0.62740387  0.24834708  0.37194885  1
  Zn  Zn118  1  0.87631013  0.75160396  0.12170641  1
  Zn  Zn119  1  0.62711734  0.37258320  0.24815752  1
  Zn  Zn120  1  0.75045918  0.37754619  0.62309431  1
  Zn  Zn121  1  0.12584944  0.37598906  0.75154253  1
  Zn  Zn122  1  0.12617750  0.87443935  0.25117716  1
  Zn  Zn123  1  0.87652820  0.87454600  -0.00009762  1
  Zn  Zn124  1  0.25088590  0.37267581  0.12780374  1
  Zn  Zn125  1  0.24874238  0.74991654  0.00179278  1
  Zn  Zn126  1  0.74975326  0.37492826  0.12560954  1
  Zn  Zn127  1  -0.00024340  0.87541302  0.87794942  1
  Zn  Zn128  1  0.18812491  0.18653802  0.18895437  1
  Zn  Zn129  1  0.18651864  0.18803616  0.68858029  1
  Zn  Zn130  1  0.18714099  0.68563316  0.19005294  1
  Zn  Zn131  1  0.18820174  0.68826399  0.68838867  1
  Zn  Zn132  1  0.68770469  0.18732575  0.18654905  1
  Zn  Zn133  1  0.68676667  0.18907131  0.68430295  1
  Zn  Zn134  1  0.68651780  0.68844979  0.18657492  1
  Zn  Zn135  1  0.68815901  0.68695100  0.68724396  1
  Zn  Zn136  1  0.31516123  0.31290744  0.31095384  1
  Zn  Zn137  1  0.31253131  0.31103805  0.81278117  1
  Zn  Zn138  1  0.31191370  0.81134610  0.31364580  1
  Zn  Zn139  1  0.31006144  0.81057471  0.81125753  1
  Zn  Zn140  1  0.81586142  0.31338068  0.31402824  1
  Zn  Zn141  1  0.81359141  0.31465474  0.81327492  1
  Zn  Zn142  1  0.81393317  0.81389200  0.30966098  1
  Zn  Zn143  1  0.81084544  0.81340113  0.81036189  1
  Zn  Zn144  1  0.18722267  0.43852492  0.43880271  1
  Zn  Zn145  1  0.18771407  0.43601131  0.94031610  1
  Zn  Zn146  1  0.18708203  0.93618559  0.43981053  1
  Zn  Zn147  1  0.18740364  0.93594005  0.93909266  1
  Zn  Zn148  1  0.68739078  0.43782085  0.43688549  1
  Zn  Zn149  1  0.68719001  0.43708220  0.93758966  1
  Zn  Zn150  1  0.68800184  0.93925730  0.43520718  1
  Zn  Zn151  1  0.68803355  0.93650196  0.93594547  1
  Zn  Zn152  1  0.31194365  0.06257272  0.06263721  1
  Zn  Zn153  1  0.31196773  0.06134745  0.56377759  1
  Zn  Zn154  1  0.31164065  0.56089048  0.06170032  1
  Zn  Zn155  1  0.31324906  0.56151348  0.56083157  1
  Zn  Zn156  1  0.81189733  0.06363219  0.06245483  1
  Zn  Zn157  1  0.81309952  0.06440975  0.56066188  1
  Zn  Zn158  1  0.81398193  0.56600581  0.06333175  1
  Zn  Zn159  1  0.81443230  0.56407425  0.56301437  1
  Zn  Zn160  1  0.43782289  0.43517319  0.18834613  1
  Zn  Zn161  1  0.43607883  0.43879312  0.68758377  1
  Zn  Zn162  1  0.43637489  0.93769777  0.18818215  1
  Zn  Zn163  1  0.43601900  0.93694216  0.68627965  1
  Zn  Zn164  1  0.93731997  0.43814636  0.18891658  1
  Zn  Zn165  1  0.93650240  0.43668267  0.68803036  1
  Zn  Zn166  1  0.93649194  0.93585357  0.18740919  1
  Zn  Zn167  1  0.93788328  0.93732808  0.68857957  1
  Zn  Zn168  1  0.06358674  0.06347175  0.31151954  1
  Zn  Zn169  1  0.06144651  0.06408416  0.81217716  1
  Zn  Zn170  1  0.06352462  0.56328185  0.31184518  1
  Zn  Zn171  1  0.06342123  0.56262444  0.81056977  1
  Zn  Zn172  1  0.56391837  0.06294795  0.31258218  1
  Zn  Zn173  1  0.56137837  0.06204039  0.81145678  1
  Zn  Zn174  1  0.56359012  0.56158399  0.31278329  1
  Zn  Zn175  1  0.56191562  0.56121021  0.81372967  1
  Zn  Zn176  1  0.43628542  0.18778599  0.43708793  1
  Zn  Zn177  1  0.43664772  0.18710863  0.93668396  1
  Zn  Zn178  1  0.43794824  0.68781591  0.43714248  1
  Zn  Zn179  1  0.43534282  0.68704230  0.93852095  1
  Zn  Zn180  1  0.93575829  0.18849507  0.43603820  1
  Zn  Zn181  1  0.93829590  0.18525202  0.93868722  1
  Zn  Zn182  1  0.93741431  0.68841365  0.43932418  1
  Zn  Zn183  1  0.93665650  0.68816116  0.93794286  1
  Zn  Zn184  1  0.06289999  0.31175605  0.06177799  1
  Zn  Zn185  1  0.06438271  0.31374068  0.56117384  1
  Zn  Zn186  1  0.06192112  0.81546248  0.05995516  1
  Zn  Zn187  1  0.06192485  0.81356305  0.56259726  1
  Zn  Zn188  1  0.56363510  0.31366878  0.06363726  1
  Zn  Zn189  1  0.56575864  0.31301325  0.56401410  1
  Zn  Zn190  1  0.56198306  0.81160777  0.06312974  1
  Zn  Zn191  1  0.56133294  0.81090112  0.56135508  1
  O  O192  1  0.11971278  0.11485552  0.12523280  1
  O  O193  1  0.11873968  0.12004029  0.62012623  1
  O  O194  1  0.12014603  0.61730010  0.11971977  1
  O  O195  1  0.11954434  0.62042031  0.62040751  1
  O  O196  1  0.61996330  0.11864765  0.11697300  1
  O  O197  1  0.61863403  0.11866671  0.61951374  1
  O  O198  1  0.61811236  0.61987011  0.11926246  1
  O  O199  1  0.61978155  0.62438435  0.61593951  1
  O  O200  1  0.38790285  0.38008661  0.37697146  1
  O  O201  1  0.38156866  0.37481622  0.88190185  1
  O  O202  1  0.38095160  0.88015026  0.38059560  1
  O  O203  1  0.37965218  0.87868472  0.87952041  1
  O  O204  1  0.88676845  0.38296565  0.37704405  1
  O  O205  1  0.88149526  0.38102716  0.88187870  1
  O  O206  1  0.88812176  0.87561372  0.37650091  1
  O  O207  1  0.87281441  0.88849910  0.87265594  1
  O  O208  1  0.25461413  0.00427473  0.37164277  1
  O  O209  1  0.25534845  0.00440151  0.87012041  1
  O  O210  1  0.25756788  0.50543532  0.37530122  1
  O  O211  1  0.24966554  0.51191480  0.87465165  1
  O  O212  1  0.75328500  0.00210953  0.36484503  1
  O  O213  1  0.75458242  0.00636403  0.86746759  1
  O  O214  1  0.75423961  0.50841934  0.36814747  1
  O  O215  1  0.75448193  0.50531025  0.86876152  1
  O  O216  1  0.23830699  0.49841594  0.12526032  1
  O  O217  1  0.24449464  0.49034006  0.62328305  1
  O  O218  1  0.24416909  0.99540345  0.13111665  1
  O  O219  1  0.24209986  0.99944699  0.63280303  1
  O  O220  1  0.74575399  0.50259783  0.13443654  1
  O  O221  1  0.74995566  0.50104543  0.63781642  1
  O  O222  1  0.74306919  0.99486307  0.12852758  1
  O  O223  1  0.74401415  0.99603901  0.62960032  1
  O  O224  1  0.00030792  0.36986473  0.25954668  1
  O  O225  1  0.00064321  0.36845676  0.75792224  1
  O  O226  1  0.00228685  0.86673834  0.25893825  1
  O  O227  1  0.00671624  0.86903991  0.75288571  1
  O  O228  1  0.50250397  0.36836582  0.25891504  1
  O  O229  1  0.50463612  0.36984157  0.75556531  1
  O  O230  1  0.50477266  0.87013447  0.25428791  1
  O  O231  1  0.50422366  0.86887968  0.75483069  1
  O  O232  1  0.50005429  0.13059283  0.24259986  1
  O  O233  1  0.49506008  0.12949941  0.74505623  1
  O  O234  1  0.49515007  0.62937967  0.24487814  1
  O  O235  1  0.49566252  0.62959479  0.74549466  1
  O  O236  1  0.99404052  0.13059206  0.24437568  1
  O  O237  1  0.99357564  0.13176733  0.74362792  1
  O  O238  1  0.99939862  0.63478490  0.24585306  1
  O  O239  1  0.99814336  0.63249134  0.74318682  1
  O  O240  1  0.37084673  0.25399199  0.00465433  1
  O  O241  1  0.36218267  0.25055465  0.50357558  1
  O  O242  1  0.37398989  0.75622828  0.00792070  1
  O  O243  1  0.37600638  0.75555617  0.50667983  1
  O  O244  1  0.87011161  0.25469267  0.00431912  1
  O  O245  1  0.86565451  0.24998357  0.50615950  1
  O  O246  1  0.86469298  0.75273358  -0.00028384  1
  O  O247  1  0.87404812  0.75271184  0.51357993  1
  O  O248  1  0.13587018  0.24387566  0.49846500  1
  O  O249  1  0.13169241  0.24723967  0.99402184  1
  O  O250  1  0.12439168  0.74257860  0.49461586  1
  O  O251  1  0.12611818  0.74314211  0.99372567  1
  O  O252  1  0.63489723  0.24425000  0.49965934  1
  O  O253  1  0.63001970  0.24440817  0.99382941  1
  O  O254  1  0.62668950  0.73781733  0.49713643  1
  O  O255  1  0.62819829  0.74410978  0.99375850  1
  O  O256  1  0.49629765  0.24387615  0.12900309  1
  O  O257  1  0.49912439  0.24343366  0.63147595  1
  O  O258  1  0.49376865  0.74390011  0.13046181  1
  O  O259  1  0.49491448  0.74316189  0.63105708  1
  O  O260  1  0.99446620  0.24442680  0.12991342  1
  O  O261  1  0.99577857  0.24547111  0.62970361  1
  O  O262  1  1.00294100  0.74596822  0.13488276  1
  O  O263  1  0.99248845  0.74600646  0.63031506  1
  O  O264  1  0.00051484  0.26019755  0.37043206  1
  O  O265  1  0.00415267  0.25440112  0.87075528  1
  O  O266  1  0.00443998  0.75623239  0.36936494  1
  O  O267  1  0.00597563  0.74990661  0.86804591  1
  O  O268  1  0.50050591  0.25796947  0.36977602  1
  O  O269  1  0.50610168  0.25440768  0.86956110  1
  O  O270  1  0.50120946  0.75666486  0.36751286  1
  O  O271  1  0.50452356  0.75418607  0.86963739  1
  O  O272  1  0.24503100  0.13180735  0.49700851  1
  O  O273  1  0.24994609  0.13074911  0.99227828  1
  O  O274  1  0.24314926  0.62597064  0.49353343  1
  O  O275  1  0.24430021  0.62659524  0.99085262  1
  O  O276  1  0.74397096  0.13459710  0.49919049  1
  O  O277  1  0.74360809  0.13119393  0.99319812  1
  O  O278  1  0.74241460  0.62503409  0.49143423  1
  O  O279  1  0.74254845  0.63022825  0.99473843  1
  O  O280  1  0.25756916  0.36655026  0.00210685  1
  O  O281  1  0.25051266  0.36626493  0.50759275  1
  O  O282  1  0.25760186  0.87291215  0.00762143  1
  O  O283  1  0.25850656  0.87200940  0.50305105  1
  O  O284  1  0.75720142  0.36861904  0.00005387  1
  O  O285  1  0.75163399  0.36560187  0.50081108  1
  O  O286  1  0.74808774  0.86848752  0.00543339  1
  O  O287  1  0.75111197  0.87320700  0.50664288  1
  O  O288  1  0.12545348  0.49974335  0.23777236  1
  O  O289  1  0.12823266  0.49669719  0.74164172  1
  O  O290  1  0.13170635  0.99859358  0.24030279  1
  O  O291  1  0.12905813  0.99594866  0.74573258  1
  O  O292  1  0.63480388  0.50031528  0.24459121  1
  O  O293  1  0.63486779  0.49496127  0.75175800  1
  O  O294  1  0.62969395  0.99448892  0.24226469  1
  O  O295  1  0.62858307  0.99451068  0.74388677  1
  O  O296  1  0.36916346  0.00134965  0.25757818  1
  O  O297  1  0.36973264  0.00417121  0.75591017  1
  O  O298  1  0.37621574  0.50653701  0.25676201  1
  O  O299  1  0.37157173  0.50806835  0.75391044  1
  O  O300  1  0.86888486  0.00733764  0.24893806  1
  O  O301  1  0.86819269  0.00693751  0.75570439  1
  O  O302  1  0.86616706  0.50456941  0.25590505  1
  O  O303  1  0.86570046  0.50092700  0.75737906  1
  O  O304  1  0.11222353  0.37577901  0.37392615  1
  O  O305  1  0.11832317  0.36815929  0.87530695  1
  O  O306  1  0.11452271  0.86884107  0.37497181  1
  O  O307  1  0.12460173  0.86860294  0.86899914  1
  O  O308  1  0.61295195  0.37421427  0.37264931  1
  O  O309  1  0.61893045  0.36868868  0.87033087  1
  O  O310  1  0.61797769  0.87442957  0.36754847  1
  O  O311  1  0.61834542  0.86949878  0.86815710  1
  O  O312  1  0.38356316  0.13000200  0.12510067  1
  O  O313  1  0.38149159  0.12486542  0.63223090  1
  O  O314  1  0.37994829  0.62908591  0.13015419  1
  O  O315  1  0.38137422  0.62914326  0.62998941  1
  O  O316  1  0.88034703  0.13060675  0.13048785  1
  O  O317  1  0.88060238  0.13146946  0.63087280  1
  O  O318  1  0.88481708  0.62993881  0.12671251  1
  O  O319  1  0.88104928  0.63518815  0.62732490  1
  O  O320  1  0.25756042  0.24830718  0.11848213  1
  O  O321  1  0.24938777  0.25764295  0.61703690  1
  O  O322  1  0.25591853  0.75537900  0.12591274  1
  O  O323  1  0.25894629  0.75119816  0.62323140  1
  O  O324  1  0.75710818  0.25108748  0.11732985  1
  O  O325  1  0.75585168  0.25137296  0.61549894  1
  O  O326  1  0.74948449  0.75598944  0.11807175  1
  O  O327  1  0.75839543  0.75564969  0.62519745  1
  O  O328  1  0.25012535  0.24503600  0.38483904  1
  O  O329  1  0.24460125  0.24376430  0.87993883  1
  O  O330  1  0.24298126  0.74235014  0.37662731  1
  O  O331  1  0.24337362  0.73902938  0.87616384  1
  O  O332  1  0.74982812  0.24909518  0.38579405  1
  O  O333  1  0.74474866  0.24475530  0.87938232  1
  O  O334  1  0.74942621  0.73967040  0.37503776  1
  O  O335  1  0.74246365  0.74521088  0.87815263  1
  O  O336  1  0.00188541  0.12014349  0.00937595  1
  O  O337  1  0.00531745  0.12160757  0.50490701  1
  O  O338  1  0.00586383  0.61971640  0.00486240  1
  O  O339  1  0.00573699  0.61958613  0.50582506  1
  O  O340  1  0.50573043  0.11858474  0.00341962  1
  O  O341  1  0.50420658  0.11958255  0.50544434  1
  O  O342  1  0.50433889  0.61979639  0.00575226  1
  O  O343  1  0.50883570  0.61994706  0.50339846  1
  O  O344  1  0.50100853  0.37957299  0.49190267  1
  O  O345  1  0.49551551  0.37917963  0.99457445  1
  O  O346  1  0.49556165  0.88091246  0.49429973  1
  O  O347  1  0.49498677  0.87964168  0.99387761  1
  O  O348  1  0.99931535  0.38142480  0.49100267  1
  O  O349  1  0.99391208  0.38063856  0.99459553  1
  O  O350  1  0.99919458  0.88151959  0.49127241  1
  O  O351  1  0.99443558  0.88107931  0.99521862  1
  O  O352  1  0.49674900  0.49232544  0.37944957  1
  O  O353  1  0.49901382  0.49299095  0.88274423  1
  O  O354  1  0.49449282  0.99442935  0.38033724  1
  O  O355  1  0.49443545  0.99338122  0.87928020  1
  O  O356  1  0.99579795  0.49501390  0.37955992  1
  O  O357  1  0.99550980  0.49582694  0.88084982  1
  O  O358  1  1.00130045  0.99080031  0.37942229  1
  O  O359  1  0.98657316  1.00114896  0.87387989  1
  O  O360  1  0.00983261  0.00462076  0.12725829  1
  O  O361  1  0.00460631  0.00719094  0.62060921  1
  O  O362  1  0.00693868  0.50611321  0.12009219  1
  O  O363  1  0.00423638  0.50537606  0.62052629  1
  O  O364  1  0.50526375  0.00398209  0.11839670  1
  O  O365  1  0.50539219  0.00490159  0.61952611  1
  O  O366  1  0.50539944  0.50550124  0.12011705  1
  O  O367  1  0.50222545  0.50661146  0.61849803  1
  O  O368  1  0.24691281  0.37785546  0.24621237  1
  O  O369  1  0.24831715  0.37441435  0.73877777  1
  O  O370  1  0.24865559  0.88146698  0.24479020  1
  O  O371  1  0.24287731  0.88186208  0.74884773  1
  O  O372  1  0.75011258  0.38839927  0.25059191  1
  O  O373  1  0.74436598  0.38565334  0.75241151  1
  O  O374  1  0.74401259  0.87990123  0.24316788  1
  O  O375  1  0.74161402  0.88132938  0.74321416  1
  O  O376  1  0.25274755  0.11822565  0.25858449  1
  O  O377  1  0.25489281  0.11915882  0.75585171  1
  O  O378  1  0.25741915  0.62168978  0.25783969  1
  O  O379  1  0.25529802  0.62378096  0.75942725  1
  O  O380  1  0.75707595  0.11869702  0.24839631  1
  O  O381  1  0.75368137  0.12066546  0.75361695  1
  O  O382  1  0.74931163  0.61783459  0.25893578  1
  O  O383  1  0.74935597  0.61573786  0.75717530  1
  O  O384  1  0.36833571  0.11665497  0.37556618  1
  O  O385  1  0.37016172  0.11772531  0.86928033  1
  O  O386  1  0.37113667  0.61944882  0.37004026  1
  O  O387  1  0.36582103  0.62491471  0.87013809  1
  O  O388  1  0.87395107  0.12342076  0.36360212  1
  O  O389  1  0.86819875  0.11881771  0.86844430  1
  O  O390  1  0.86484753  0.62112761  0.37552034  1
  O  O391  1  0.86729643  0.61826346  0.87384749  1
  O  O392  1  0.12435104  0.38692175  0.12479320  1
  O  O393  1  0.13458753  0.38091639  0.62511910  1
  O  O394  1  0.13149017  0.88392220  0.12735430  1
  O  O395  1  0.12502592  0.88232943  0.63206603  1
  O  O396  1  0.62939250  0.38419203  0.12688929  1
  O  O397  1  0.62935117  0.37914745  0.63459276  1
  O  O398  1  0.62903417  0.88066789  0.12969941  1
  O  O399  1  0.62838746  0.87992962  0.62957487  1
  O  O400  1  0.11610339  0.25146225  0.25237045  1
  O  O401  1  0.11758107  0.25121838  0.75749352  1
  O  O402  1  0.11446202  0.75034610  0.25764949  1
  O  O403  1  0.11930980  0.75578373  0.75496580  1
  O  O404  1  0.61826386  0.25222878  0.25114828  1
  O  O405  1  0.61982429  0.25465499  0.75563812  1
  O  O406  1  0.61751895  0.75675514  0.25041426  1
  O  O407  1  0.61874759  0.75469600  0.75472786  1
  O  O408  1  0.38412918  0.24681020  0.24295223  1
  O  O409  1  0.38202012  0.24188240  0.74928209  1
  O  O410  1  0.38105706  0.74354805  0.24504059  1
  O  O411  1  0.38111249  0.74370406  0.74492710  1
  O  O412  1  0.88032296  0.24460940  0.24368972  1
  O  O413  1  0.87986402  0.24512072  0.74585417  1
  O  O414  1  0.88843361  0.74852503  0.24816029  1
  O  O415  1  0.87973690  0.74967117  0.73993474  1
  O  O416  1  0.38428418  0.49871003  0.49252715  1
  O  O417  1  0.38197587  0.49272368  0.99910947  1
  O  O418  1  0.38083651  0.99420118  0.49568055  1
  O  O419  1  0.38085616  0.99369022  0.99415319  1
  O  O420  1  0.88166850  0.49997713  0.49362403  1
  O  O421  1  0.88014709  0.49545878  0.99551700  1
  O  O422  1  0.88373164  0.99926781  0.49746176  1
  O  O423  1  0.87187900  1.00081240  0.98597503  1
  O  O424  1  0.12567108  0.00175431  0.01376914  1
  O  O425  1  0.11928778  0.00605658  0.50669004  1
  O  O426  1  0.11861213  0.50542698  0.00793795  1
  O  O427  1  0.11852063  0.50639239  0.50650900  1
  O  O428  1  0.61941741  0.00493010  0.00306036  1
  O  O429  1  0.61883496  0.00522407  0.50544218  1
  O  O430  1  0.61949523  0.50586013  0.00509630  1
  O  O431  1  0.62110399  0.51117212  0.50112035  1
  O  O432  1  0.37629532  0.36647358  0.11752281  1
  O  O433  1  0.36386543  0.37314116  0.62219625  1
  O  O434  1  0.37048997  0.86948569  0.12024372  1
  O  O435  1  0.37521770  0.86770825  0.61893068  1
  O  O436  1  0.87429381  0.36896271  0.11856059  1
  O  O437  1  0.87213849  0.36734864  0.62226454  1
  O  O438  1  0.86542906  0.87296397  0.12201454  1
  O  O439  1  0.86873050  0.86739665  0.62518450  1
  O  O440  1  0.13218355  0.12590992  0.38272846  1
  O  O441  1  0.13128351  0.13041571  0.87659628  1
  O  O442  1  0.12993993  0.62882771  0.38139259  1
  O  O443  1  0.13176331  0.62976736  0.87940294  1
  O  O444  1  0.62743530  0.12718520  0.38382177  1
  O  O445  1  0.62942475  0.12976929  0.87878364  1
  O  O446  1  0.63415573  0.62571827  0.38306258  1
  O  O447  1  0.62895889  0.63064278  0.88082109  1
