# generated using pymatgen
data_V3Zn3O8
_symmetry_space_group_name_H-M   'P 1'
_cell_length_a   17.09240263
_cell_length_b   17.09206217
_cell_length_c   17.09210156
_cell_angle_alpha   89.99699301
_cell_angle_beta   90.00433769
_cell_angle_gamma   90.01137409
_symmetry_Int_Tables_number   1
_chemical_formula_structural   V3Zn3O8
_chemical_formula_sum   'V96 Zn96 O256'
_cell_volume   4993.36177781
_cell_formula_units_Z   32
loop_
 _symmetry_equiv_pos_site_id
 _symmetry_equiv_pos_as_xyz
  1  'x, y, z'
loop_
 _atom_site_type_symbol
 _atom_site_label
 _atom_site_symmetry_multiplicity
 _atom_site_fract_x
 _atom_site_fract_y
 _atom_site_fract_z
 _atom_site_occupancy
  V  V0  1  0.74999149  0.00006414  0.75073727  1
  V  V1  1  0.00004574  0.87516943  0.37602208  1
  V  V2  1  0.87522913  0.24992510  0.62501126  1
  V  V3  1  0.24836094  0.37474142  0.12479813  1
  V  V4  1  0.87367497  0.12505990  0.25021410  1
  V  V5  1  0.12479376  0.12415492  0.00115401  1
  V  V6  1  0.87361605  0.24955428  0.12593325  1
  V  V7  1  0.37589105  -0.00134855  0.37524687  1
  V  V8  1  0.50196458  0.75066881  0.75040898  1
  V  V9  1  0.24978113  -0.00017711  0.25080315  1
  V  V10  1  0.37648802  0.37649198  0.49956172  1
  V  V11  1  0.62403145  0.00054200  0.12510706  1
  V  V12  1  0.87509210  0.37522937  0.00020974  1
  V  V13  1  0.12589123  0.37522046  0.75007799  1
  V  V14  1  0.74921924  0.25016931  -0.00028555  1
  V  V15  1  0.12475519  0.37453714  0.24921048  1
  V  V16  1  0.24989521  0.12515299  0.37571186  1
  V  V17  1  0.62503921  0.62337938  0.49928503  1
  V  V18  1  0.49959508  0.25113112  0.25034195  1
  V  V19  1  0.00010144  0.87674870  0.87720487  1
  V  V20  1  0.12434780  0.00044851  0.12442523  1
  V  V21  1  0.00209972  0.62311312  0.12336062  1
  V  V22  1  0.49930897  0.37593670  0.87511207  1
  V  V23  1  0.74917841  0.49990407  0.24924158  1
  V  V24  1  0.87556024  0.87516761  0.50074410  1
  V  V25  1  0.62576548  0.37496372  0.75005269  1
  V  V26  1  0.24994954  0.24978087  -0.00047469  1
  V  V27  1  0.00115807  0.12392078  0.62440743  1
  V  V28  1  0.74838314  0.24900702  0.49989432  1
  V  V29  1  0.50108852  0.12427796  0.62395563  1
  V  V30  1  0.00023606  0.74990594  0.25090322  1
  V  V31  1  0.25063766  0.87489648  0.62462596  1
  V  V32  1  0.37470660  0.74822429  0.12510170  1
  V  V33  1  0.50118191  0.62307220  0.62354697  1
  V  V34  1  -0.00238718  0.24900366  0.24987965  1
  V  V35  1  0.37456456  0.25013353  0.12484633  1
  V  V36  1  0.00008800  0.37515203  0.87560480  1
  V  V37  1  0.37472391  0.49988104  0.37364866  1
  V  V38  1  0.25006919  0.62562142  0.87542765  1
  V  V39  1  0.37551270  0.37560233  -0.00128927  1
  V  V40  1  0.00080017  0.24981358  0.74967755  1
  V  V41  1  0.37554595  0.62580666  0.74903264  1
  V  V42  1  0.25019710  0.00008448  0.74907038  1
  V  V43  1  0.87481562  0.49902158  0.37595004  1
  V  V44  1  0.75057017  0.37399849  0.62572730  1
  V  V45  1  0.25028417  0.37535115  0.62490303  1
  V  V46  1  0.62566344  0.24985815  0.87553678  1
  V  V47  1  0.25067244  0.75079993  0.50103546  1
  V  V48  1  0.75063580  0.87496104  0.62560152  1
  V  V49  1  0.62526026  0.50051169  0.12462148  1
  V  V50  1  0.49937396  0.62473725  0.12448254  1
  V  V51  1  0.62562432  0.62551534  -0.00154921  1
  V  V52  1  0.62505421  0.00028185  0.62466752  1
  V  V53  1  0.25095310  0.12452874  0.87414316  1
  V  V54  1  0.75119755  0.74936258  0.50016470  1
  V  V55  1  0.87492654  0.62515155  0.25097074  1
  V  V56  1  0.37558219  0.87450636  -0.00100779  1
  V  V57  1  0.49929500  -0.00044438  0.00039997  1
  V  V58  1  0.37545874  0.12580691  0.74999932  1
  V  V59  1  0.75019756  0.62465344  0.37492102  1
  V  V60  1  0.12448297  0.50094092  0.62466825  1
  V  V61  1  0.24982164  0.62477666  0.37465421  1
  V  V62  1  0.25036173  0.87350240  0.12526536  1
  V  V63  1  0.24915864  0.24883427  0.49900776  1
  V  V64  1  0.49950736  0.87486307  0.37634950  1
  V  V65  1  0.12490005  0.74939683  0.37577108  1
  V  V66  1  0.00028282  0.00111152  0.50153945  1
  V  V67  1  0.74992491  0.87571789  0.12563303  1
  V  V68  1  0.74983069  0.12585653  0.87564853  1
  V  V69  1  0.87574710  0.37420343  0.49965106  1
  V  V70  1  -0.00092501  0.75015357  0.75058974  1
  V  V71  1  0.12485989  0.62415061  0.50070750  1
  V  V72  1  0.12566510  0.75019178  0.87553485  1
  V  V73  1  0.75077012  0.50083849  0.74955395  1
  V  V74  1  0.37420463  0.62410691  0.24871037  1
  V  V75  1  0.62482849  0.87499925  0.25079815  1
  V  V76  1  0.74878896  0.37580971  0.12540879  1
  V  V77  1  0.37437051  0.12514801  0.24992746  1
  V  V78  1  0.12579714  0.25025799  0.87494157  1
  V  V79  1  0.12514846  0.87489420  0.25032899  1
  V  V80  1  0.49929110  0.12465007  0.12441619  1
  V  V81  1  -0.00094510  0.37391422  0.37486260  1
  V  V82  1  0.75004902  0.75162414  -0.00049106  1
  V  V83  1  0.62543165  0.74987932  0.37399839  1
  V  V84  1  0.87462937  0.75129532  0.12584934  1
  V  V85  1  0.62383599  0.25024431  0.37503448  1
  V  V86  1  0.74999400  0.00069649  0.25053442  1
  V  V87  1  0.87549623  0.12566025  0.75071736  1
  V  V88  1  0.87614221  0.74933844  0.62598908  1
  V  V89  1  0.50027743  0.25003763  0.74979379  1
  V  V90  1  0.87543339  0.50158494  0.87533528  1
  V  V91  1  0.25053500  0.50092424  0.75018547  1
  V  V92  1  0.62475231  0.87417035  0.75012991  1
  V  V93  1  0.87361358  0.00035403  0.37474092  1
  V  V94  1  0.87601020  0.00049589  0.87639975  1
  V  V95  1  0.00023553  0.62541225  0.62528035  1
  Zn  Zn96  1  0.62392468  0.12468015  -0.00020937  1
  Zn  Zn97  1  0.37617014  0.25085876  0.62508004  1
  Zn  Zn98  1  0.75087597  0.62805973  0.87265885  1
  Zn  Zn99  1  0.12575017  0.62250577  0.00089247  1
  Zn  Zn100  1  0.24999978  0.74863024  0.00046155  1
  Zn  Zn101  1  0.12521362  0.49949452  0.12174566  1
  Zn  Zn102  1  0.62541888  0.12282524  0.49905012  1
  Zn  Zn103  1  0.12579840  0.00204685  0.62325313  1
  Zn  Zn104  1  0.12424174  0.12440768  0.49908296  1
  Zn  Zn105  1  0.87509132  0.87827512  0.00206897  1
  Zn  Zn106  1  -0.00115367  0.12344630  0.12421510  1
  Zn  Zn107  1  0.62688342  0.75140330  0.87416164  1
  Zn  Zn108  1  0.50244137  0.49933505  0.49867336  1
  Zn  Zn109  1  0.62594139  0.49809281  0.62188408  1
  Zn  Zn110  1  0.37567567  0.75083481  0.62250700  1
  Zn  Zn111  1  0.00054135  0.49856917  0.50031535  1
  Zn  Zn112  1  0.87471669  0.62598139  0.75039970  1
  Zn  Zn113  1  0.50054978  -0.00024173  0.49987410  1
  Zn  Zn114  1  0.37525516  0.87490599  0.49953133  1
  Zn  Zn115  1  0.50106053  0.87631091  0.87412882  1
  Zn  Zn116  1  -0.00122693  0.00202243  0.00222376  1
  Zn  Zn117  1  0.50020534  0.37613439  0.37315688  1
  Zn  Zn118  1  0.74783890  0.12389679  0.37675834  1
  Zn  Zn119  1  0.12537079  0.87758816  0.74999382  1
  Zn  Zn120  1  0.49983311  0.74884514  0.25014966  1
  Zn  Zn121  1  0.00156690  0.50039957  0.00026398  1
  Zn  Zn122  1  0.12297597  0.24799560  0.37491235  1
  Zn  Zn123  1  0.49898922  0.50026435  -0.00179385  1
  Zn  Zn124  1  0.62235147  0.37604534  0.24943504  1
  Zn  Zn125  1  0.24804826  0.49988244  0.24697246  1
  Zn  Zn126  1  0.37668359  -0.00082394  0.87514612  1
  Zn  Zn127  1  0.37704922  0.50081699  0.87572623  1
  Zn  Zn128  1  0.18626486  0.18779185  0.18754493  1
  Zn  Zn129  1  0.18742480  0.18727525  0.68482756  1
  Zn  Zn130  1  0.18831240  0.68766905  0.18861340  1
  Zn  Zn131  1  0.18620411  0.68940449  0.68863551  1
  Zn  Zn132  1  0.68647985  0.18689787  0.18849906  1
  Zn  Zn133  1  0.68697565  0.18718282  0.68835335  1
  Zn  Zn134  1  0.68682953  0.68776334  0.18683605  1
  Zn  Zn135  1  0.68729108  0.68610305  0.68586039  1
  Zn  Zn136  1  0.31158632  0.31240781  0.31252852  1
  Zn  Zn137  1  0.31417901  0.31204575  0.81265299  1
  Zn  Zn138  1  0.31321099  0.81049451  0.31185603  1
  Zn  Zn139  1  0.31497523  0.81191877  0.81104385  1
  Zn  Zn140  1  0.80960621  0.31256192  0.31257037  1
  Zn  Zn141  1  0.81334745  0.31313072  0.81314781  1
  Zn  Zn142  1  0.81245836  0.81309198  0.31244395  1
  Zn  Zn143  1  0.81403450  0.81413730  0.81347368  1
  Zn  Zn144  1  0.18711888  0.43714191  0.43609728  1
  Zn  Zn145  1  0.18649191  0.44013855  0.93934145  1
  Zn  Zn146  1  0.18648507  0.93890246  0.43909801  1
  Zn  Zn147  1  0.18846703  0.93826605  0.93807004  1
  Zn  Zn148  1  0.68747283  0.43590388  0.43721717  1
  Zn  Zn149  1  0.68754548  0.43769399  0.93731086  1
  Zn  Zn150  1  0.68654424  0.93774316  0.43896711  1
  Zn  Zn151  1  0.68482646  0.93740294  0.93664352  1
  Zn  Zn152  1  0.31158554  0.06131350  0.06302435  1
  Zn  Zn153  1  0.31639033  0.06121385  0.56142694  1
  Zn  Zn154  1  0.31175243  0.55931503  0.06114527  1
  Zn  Zn155  1  0.31288002  0.56327829  0.56255464  1
  Zn  Zn156  1  0.81233320  0.06353776  0.06203156  1
  Zn  Zn157  1  0.81235948  0.06375245  0.56214795  1
  Zn  Zn158  1  0.81301692  0.56366632  0.06266655  1
  Zn  Zn159  1  0.81423862  0.56180116  0.56243755  1
  Zn  Zn160  1  0.43806818  0.43751206  0.18616761  1
  Zn  Zn161  1  0.43699723  0.43913033  0.68871740  1
  Zn  Zn162  1  0.43756458  0.93669811  0.18821952  1
  Zn  Zn163  1  0.43577328  0.93788950  0.68631333  1
  Zn  Zn164  1  0.93649876  0.43734706  0.18851052  1
  Zn  Zn165  1  0.93847250  0.43729766  0.68723522  1
  Zn  Zn166  1  0.93806120  0.93851061  0.18760036  1
  Zn  Zn167  1  0.93764206  0.93777981  0.68923421  1
  Zn  Zn168  1  0.06218816  0.06371283  0.31318685  1
  Zn  Zn169  1  0.06427294  0.06278061  0.81268371  1
  Zn  Zn170  1  0.06196336  0.55981120  0.31238529  1
  Zn  Zn171  1  0.06233541  0.56331577  0.81094069  1
  Zn  Zn172  1  0.56192179  0.06355914  0.31205058  1
  Zn  Zn173  1  0.56234988  0.06128700  0.81363796  1
  Zn  Zn174  1  0.56093300  0.56284076  0.31094143  1
  Zn  Zn175  1  0.56395084  0.56202666  0.81343663  1
  Zn  Zn176  1  0.43759658  0.18740280  0.43772007  1
  Zn  Zn177  1  0.43737251  0.18724685  0.93708424  1
  Zn  Zn178  1  0.43666957  0.68875330  0.43779835  1
  Zn  Zn179  1  0.43795081  0.68857542  0.93659669  1
  Zn  Zn180  1  0.93601035  0.18656159  0.43664023  1
  Zn  Zn181  1  0.93826762  0.18759461  0.93897729  1
  Zn  Zn182  1  0.93838602  0.68641466  0.43926324  1
  Zn  Zn183  1  0.93629253  0.68835989  0.93860631  1
  Zn  Zn184  1  0.06049422  0.31069027  0.06301810  1
  Zn  Zn185  1  0.06322663  0.31229182  0.56221118  1
  Zn  Zn186  1  0.06337642  0.81136263  0.06121719  1
  Zn  Zn187  1  0.06499107  0.81368638  0.56364980  1
  Zn  Zn188  1  0.56217764  0.31283708  0.06171344  1
  Zn  Zn189  1  0.56299387  0.31201704  0.56247370  1
  Zn  Zn190  1  0.56127754  0.81201664  0.06455355  1
  Zn  Zn191  1  0.56467428  0.81117522  0.56217003  1
  O  O192  1  0.12483883  0.11853466  0.11926084  1
  O  O193  1  0.11614021  0.12380382  0.62151081  1
  O  O194  1  0.11335456  0.62528586  0.12622079  1
  O  O195  1  0.12040758  0.62061135  0.62046366  1
  O  O196  1  0.61717771  0.11832977  0.12413410  1
  O  O197  1  0.61558556  0.11934064  0.62726480  1
  O  O198  1  0.62066521  0.62096472  0.11692288  1
  O  O199  1  0.61701576  0.62303707  0.61809387  1
  O  O200  1  0.37346005  0.38330276  0.38309611  1
  O  O201  1  0.38129764  0.37523804  0.88081291  1
  O  O202  1  0.38459052  0.87950670  0.37289615  1
  O  O203  1  0.37687660  0.87504247  0.88724346  1
  O  O204  1  0.87872066  0.37961133  0.37986360  1
  O  O205  1  0.88011875  0.38232858  0.87985538  1
  O  O206  1  0.88067231  0.87950863  0.38070264  1
  O  O207  1  0.88476292  0.88138492  0.87646736  1
  O  O208  1  0.25549125  0.00434901  0.36934229  1
  O  O209  1  0.25206099  0.00565137  0.86538491  1
  O  O210  1  0.25985060  0.50559021  0.37357881  1
  O  O211  1  0.24901188  0.51091916  0.86784592  1
  O  O212  1  0.75562952  -0.00059962  0.36871070  1
  O  O213  1  0.75507449  0.00524941  0.86969420  1
  O  O214  1  0.75532604  0.50554682  0.36947882  1
  O  O215  1  0.75965771  0.49866948  0.86606934  1
  O  O216  1  0.24659119  0.49045193  0.12740971  1
  O  O217  1  0.24403536  0.49577323  0.63057647  1
  O  O218  1  0.24484919  0.99344724  0.13232711  1
  O  O219  1  0.25077147  0.99335691  0.63259273  1
  O  O220  1  0.74585844  0.49604211  0.13002889  1
  O  O221  1  0.75200885  0.49324619  0.63499535  1
  O  O222  1  0.74445049  0.99467091  0.13023344  1
  O  O223  1  0.74655026  0.99448452  0.63154141  1
  O  O224  1  0.00549571  0.36900969  0.25447470  1
  O  O225  1  0.00622555  0.36888509  0.75511318  1
  O  O226  1  0.00528348  0.86920952  0.25651286  1
  O  O227  1  0.00176790  0.86998265  0.76114121  1
  O  O228  1  0.50113910  0.36646946  0.25175097  1
  O  O229  1  0.50578059  0.36994067  0.75370040  1
  O  O230  1  0.50604389  0.87328833  0.26010587  1
  O  O231  1  0.50483886  0.86531757  0.74654041  1
  O  O232  1  0.49273223  0.13052010  0.24401662  1
  O  O233  1  0.49588502  0.12972169  0.74295149  1
  O  O234  1  0.49220044  0.62634869  0.24265834  1
  O  O235  1  0.49824327  0.63166559  0.74243249  1
  O  O236  1  0.99192788  0.13126904  0.24915128  1
  O  O237  1  0.99486253  0.13080467  0.74598887  1
  O  O238  1  0.99466799  0.63063864  0.24400209  1
  O  O239  1  0.99813944  0.63211387  0.74296833  1
  O  O240  1  0.36888163  0.25476446  0.00553245  1
  O  O241  1  0.36637310  0.26002088  0.50022023  1
  O  O242  1  0.37469057  0.75910924  0.00581207  1
  O  O243  1  0.36590588  0.75312332  0.50175948  1
  O  O244  1  0.86871468  0.25577185  0.00486510  1
  O  O245  1  0.86888260  0.25517235  0.50584837  1
  O  O246  1  0.86424143  0.75159118  0.00661237  1
  O  O247  1  0.87028315  0.75586790  0.50528836  1
  O  O248  1  0.13845807  0.25042787  0.49764900  1
  O  O249  1  0.13092073  0.24523883  0.99419851  1
  O  O250  1  0.13014867  0.74402930  0.49437251  1
  O  O251  1  0.12736018  0.74714862  0.98668442  1
  O  O252  1  0.62980586  0.24953822  0.49123752  1
  O  O253  1  0.63173774  0.24873435  0.99313714  1
  O  O254  1  0.63273423  0.74390520  0.49393073  1
  O  O255  1  0.63359037  0.74242254  1.00178635  1
  O  O256  1  0.49384634  0.24454184  0.12968354  1
  O  O257  1  0.50002481  0.24084457  0.63145504  1
  O  O258  1  0.49313291  0.74265957  0.12775083  1
  O  O259  1  0.50094727  0.74022235  0.63307676  1
  O  O260  1  0.99053610  0.24865235  0.13217306  1
  O  O261  1  0.99459327  0.24554807  0.63072707  1
  O  O262  1  0.99506217  0.74368804  0.13127372  1
  O  O263  1  0.99588179  0.74642867  0.63048171  1
  O  O264  1  -0.00035641  0.25647976  0.36801548  1
  O  O265  1  0.00575873  0.25537669  0.86873614  1
  O  O266  1  0.00514957  0.75504842  0.37072026  1
  O  O267  1  0.00596400  0.75669173  0.87123663  1
  O  O268  1  0.50700959  0.25102561  0.36945058  1
  O  O269  1  0.50613077  0.25490746  0.86895923  1
  O  O270  1  0.50654316  0.75790416  0.37320566  1
  O  O271  1  0.50297864  0.75040858  0.86075971  1
  O  O272  1  0.25271671  0.13478367  0.49549727  1
  O  O273  1  0.24561011  0.13044693  0.99456286  1
  O  O274  1  0.24411808  0.63063046  0.49500201  1
  O  O275  1  0.24944933  0.62732061  0.98702924  1
  O  O276  1  0.74699929  0.13356005  0.49865781  1
  O  O277  1  0.74829476  0.13253682  0.99298111  1
  O  O278  1  0.74602811  0.63009476  0.49455421  1
  O  O279  1  0.74198702  0.63517862  1.00196145  1
  O  O280  1  0.25428816  0.36799323  0.00405628  1
  O  O281  1  0.25759898  0.36854017  0.50389537  1
  O  O282  1  0.25980487  0.87375383  0.00617967  1
  O  O283  1  0.24931222  0.86974529  0.50870810  1
  O  O284  1  0.75569541  0.36968060  0.00517713  1
  O  O285  1  0.75610667  0.36915149  0.50645232  1
  O  O286  1  0.74862527  0.86585621  0.00677590  1
  O  O287  1  0.75593225  0.86898945  0.50576978  1
  O  O288  1  0.12504704  0.48586318  0.24765805  1
  O  O289  1  0.13060764  0.49438298  0.74455495  1
  O  O290  1  0.13055593  0.99371420  0.24580189  1
  O  O291  1  0.13918410  1.00002222  0.74805749  1
  O  O292  1  0.63184062  0.50025671  0.24333979  1
  O  O293  1  0.63699367  0.49407774  0.75001808  1
  O  O294  1  0.63008059  0.99468885  0.24493302  1
  O  O295  1  0.63134947  0.99426883  0.74460189  1
  O  O296  1  0.36891218  0.00540438  0.25458232  1
  O  O297  1  0.36484261  0.00605282  0.75125530  1
  O  O298  1  0.37246806  0.50430308  0.25868919  1
  O  O299  1  0.36777472  0.50766873  0.75217791  1
  O  O300  1  0.86923038  0.00421367  0.25544282  1
  O  O301  1  0.86899123  0.00617432  0.75604751  1
  O  O302  1  0.86866904  0.50594985  0.25617195  1
  O  O303  1  0.86691538  0.49830192  0.75860286  1
  O  O304  1  0.11923605  0.37297682  0.36547583  1
  O  O305  1  0.12054786  0.36962780  0.86928327  1
  O  O306  1  0.11952026  0.86935466  0.36997158  1
  O  O307  1  0.11821224  0.86724955  0.87418459  1
  O  O308  1  0.62200004  0.36372424  0.37312159  1
  O  O309  1  0.62034481  0.36926166  0.86963800  1
  O  O310  1  0.61837960  0.87004334  0.37045184  1
  O  O311  1  0.62165997  0.87202752  0.86584446  1
  O  O312  1  0.37887876  0.13057543  0.13070491  1
  O  O313  1  0.38578356  0.12598498  0.63113934  1
  O  O314  1  0.37881510  0.62857597  0.12842322  1
  O  O315  1  0.38472451  0.62673058  0.62990491  1
  O  O316  1  0.87475502  0.13191005  0.13210980  1
  O  O317  1  0.88026557  0.13096026  0.63194962  1
  O  O318  1  0.88180168  0.63124362  0.13167400  1
  O  O319  1  0.88193646  0.63200715  0.62537279  1
  O  O320  1  0.25560008  0.25435350  0.11897664  1
  O  O321  1  0.25279771  0.25639184  0.61569930  1
  O  O322  1  0.25583001  0.75576118  0.12296722  1
  O  O323  1  0.25039808  0.75863006  0.62097335  1
  O  O324  1  0.75410167  0.25568288  0.12001159  1
  O  O325  1  0.75577375  0.25500961  0.62169656  1
  O  O326  1  0.75462388  0.75554883  0.11876353  1
  O  O327  1  0.75574124  0.75518822  0.61954313  1
  O  O328  1  0.25064675  0.24428436  0.38435482  1
  O  O329  1  0.24439416  0.24483112  0.87953657  1
  O  O330  1  0.24360858  0.74473688  0.38002789  1
  O  O331  1  0.24199627  0.74242257  0.87262521  1
  O  O332  1  0.73998017  0.24931166  0.38050966  1
  O  O333  1  0.74578275  0.24580292  0.87951754  1
  O  O334  1  0.74596604  0.74450263  0.38045996  1
  O  O335  1  0.74956537  0.74918804  0.88623385  1
  O  O336  1  0.00934017  0.12397137  0.00204057  1
  O  O337  1  -0.00154256  0.11920272  0.50664086  1
  O  O338  1  -0.00045959  0.62592038  0.01284902  1
  O  O339  1  0.00745929  0.62333100  0.50691413  1
  O  O340  1  0.49958434  0.11836442  0.00721913  1
  O  O341  1  0.50110270  0.12457592  0.51288107  1
  O  O342  1  0.51076564  0.62619263  0.00460954  1
  O  O343  1  0.50515061  0.62555465  0.50880924  1
  O  O344  1  0.48708508  0.37662896  0.49942153  1
  O  O345  1  0.49342380  0.37494434  0.99298651  1
  O  O346  1  0.50017523  0.87458334  0.48743314  1
  O  O347  1  0.49043668  0.87992129  1.00131659  1
  O  O348  1  0.99342998  0.37474873  0.49363089  1
  O  O349  1  0.99252820  0.37496956  0.99300928  1
  O  O350  1  0.99451623  0.87949562  0.49550628  1
  O  O351  1  0.99841894  0.87526228  0.98763730  1
  O  O352  1  0.48678651  0.49909061  0.37668776  1
  O  O353  1  0.49870314  0.49188693  0.87650874  1
  O  O354  1  0.49543223  0.99053205  0.37440726  1
  O  O355  1  0.49634747  0.99719266  0.88301937  1
  O  O356  1  0.99197720  0.49266866  0.37632929  1
  O  O357  1  0.98983055  0.49435571  0.87305295  1
  O  O358  1  0.99347088  0.99373382  0.38007342  1
  O  O359  1  0.99609608  0.99141838  0.87463456  1
  O  O360  1  0.00865989  0.00132534  0.12321012  1
  O  O361  1  -0.00018069  0.00559971  0.62007444  1
  O  O362  1  -0.00216764  0.51244183  0.12514750  1
  O  O363  1  0.00694637  0.50606241  0.62438619  1
  O  O364  1  0.50442161  0.00511125  0.12112081  1
  O  O365  1  0.50585921  0.00875895  0.62605774  1
  O  O366  1  0.50693541  0.50707705  0.12154997  1
  O  O367  1  0.50263452  0.51252343  0.62479865  1
  O  O368  1  0.24012616  0.37322904  0.24424559  1
  O  O369  1  0.24530093  0.37989343  0.74504960  1
  O  O370  1  0.24435261  0.87967126  0.24564334  1
  O  O371  1  0.25139531  0.88341685  0.74290872  1
  O  O372  1  0.74837111  0.38267318  0.24277265  1
  O  O373  1  0.74606204  0.38137652  0.74546790  1
  O  O374  1  0.74478443  0.88055033  0.24509459  1
  O  O375  1  0.74583905  0.88032088  0.74436516  1
  O  O376  1  0.25566680  0.11992290  0.25490676  1
  O  O377  1  0.25499877  0.11883947  0.75312860  1
  O  O378  1  0.25559791  0.62241180  0.25721959  1
  O  O379  1  0.25449919  0.62167517  0.75669248  1
  O  O380  1  0.75566106  0.11767502  0.25182718  1
  O  O381  1  0.75629319  0.12009338  0.75548264  1
  O  O382  1  0.75570425  0.62070897  0.25520745  1
  O  O383  1  0.75203147  0.61397007  0.75092836  1
  O  O384  1  0.37027843  0.11929705  0.36877631  1
  O  O385  1  0.36779211  0.12400265  0.86823356  1
  O  O386  1  0.36984464  0.61778977  0.37041610  1
  O  O387  1  0.36535515  0.62623231  0.86851574  1
  O  O388  1  0.87162530  0.11745134  0.36839093  1
  O  O389  1  0.86991409  0.12124763  0.86915677  1
  O  O390  1  0.86984621  0.62027516  0.37056812  1
  O  O391  1  0.87341606  0.61389087  0.87358571  1
  O  O392  1  0.12888144  0.37304713  0.13411411  1
  O  O393  1  0.13053165  0.38047977  0.63072478  1
  O  O394  1  0.13033795  0.87828879  0.13087567  1
  O  O395  1  0.13775484  0.87777754  0.62897673  1
  O  O396  1  0.63154884  0.38234928  0.12480868  1
  O  O397  1  0.63202086  0.37616331  0.63176394  1
  O  O398  1  0.62972331  0.88053748  0.13164357  1
  O  O399  1  0.63195043  0.87963333  0.63010231  1
  O  O400  1  0.11814343  0.25947676  0.25082219  1
  O  O401  1  0.12085233  0.25564571  0.75518296  1
  O  O402  1  0.11975795  0.75574094  0.25673586  1
  O  O403  1  0.11865051  0.75264515  0.76129322  1
  O  O404  1  0.61890729  0.25110383  0.25869615  1
  O  O405  1  0.62076496  0.25606083  0.75616875  1
  O  O406  1  0.62494585  0.75662073  0.25658796  1
  O  O407  1  0.61774140  0.75494507  0.74898289  1
  O  O408  1  0.37883385  0.24450002  0.24466568  1
  O  O409  1  0.38221443  0.24417154  0.74722960  1
  O  O410  1  0.37587452  0.74179401  0.24310710  1
  O  O411  1  0.38587361  0.74441084  0.74639508  1
  O  O412  1  0.87745758  0.24526911  0.24515442  1
  O  O413  1  0.88087151  0.24552329  0.74519925  1
  O  O414  1  0.88035863  0.74486760  0.24610547  1
  O  O415  1  0.88052834  0.74895628  0.74365025  1
  O  O416  1  0.37398222  0.49217058  0.49111016  1
  O  O417  1  0.37771566  0.49111577  0.99593711  1
  O  O418  1  0.37943017  0.99581145  0.49049306  1
  O  O419  1  0.37986220  0.98947973  1.00152674  1
  O  O420  1  0.87593183  0.49198388  0.49364609  1
  O  O421  1  0.87456240  0.49458784  0.99008998  1
  O  O422  1  0.87931019  0.99357101  0.49521311  1
  O  O423  1  0.87741617  0.99821860  0.99218446  1
  O  O424  1  0.12543797  0.00633033  0.00663929  1
  O  O425  1  0.11570360  0.00314296  0.50218990  1
  O  O426  1  0.11841956  0.50474699  0.00335261  1
  O  O427  1  0.12472775  0.50596411  0.50653795  1
  O  O428  1  0.61799926  0.00095287  0.00767315  1
  O  O429  1  0.62218300  0.00216919  0.50893221  1
  O  O430  1  0.62720760  0.51120769  0.00549785  1
  O  O431  1  0.62265913  0.50675886  0.50115825  1
  O  O432  1  0.36888960  0.36834578  0.11944001  1
  O  O433  1  0.36897430  0.37633279  0.61539467  1
  O  O434  1  0.37011341  0.86924913  0.11876684  1
  O  O435  1  0.36291639  0.87329884  0.62229553  1
  O  O436  1  0.86855386  0.37012216  0.11995112  1
  O  O437  1  0.87094026  0.36837585  0.62037158  1
  O  O438  1  0.86861174  0.86894544  0.12462763  1
  O  O439  1  0.86999415  0.86951682  0.62029548  1
  O  O440  1  0.13391141  0.12810740  0.37728215  1
  O  O441  1  0.13165109  0.13141126  0.87973279  1
  O  O442  1  0.12939495  0.62950710  0.37964610  1
  O  O443  1  0.13283955  0.63405051  0.87318559  1
  O  O444  1  0.62508436  0.13685544  0.37675470  1
  O  O445  1  0.63221590  0.13187324  0.87525377  1
  O  O446  1  0.63085246  0.63004316  0.37906181  1
  O  O447  1  0.62872412  0.62732606  0.88678824  1
