# generated using pymatgen
data_V3Zn3O8
_symmetry_space_group_name_H-M   'P 1'
_cell_length_a   17.09122006
_cell_length_b   17.09105970
_cell_length_c   17.09050877
_cell_angle_alpha   90.00576619
_cell_angle_beta   90.00524392
_cell_angle_gamma   90.00341505
_symmetry_Int_Tables_number   1
_chemical_formula_structural   V3Zn3O8
_chemical_formula_sum   'V96 Zn96 O256'
_cell_volume   4992.25825481
_cell_formula_units_Z   32
loop_
 _symmetry_equiv_pos_site_id
 _symmetry_equiv_pos_as_xyz
  1  'x, y, z'
loop_
 _atom_site_type_symbol
 _atom_site_label
 _atom_site_symmetry_multiplicity
 _atom_site_fract_x
 _atom_site_fract_y
 _atom_site_fract_z
 _atom_site_occupancy
  V  V0  1  0.87566073  0.24968986  0.62571018  1
  V  V1  1  0.62507906  0.12608587  -0.00034417  1
  V  V2  1  0.12478274  0.62566319  0.00054039  1
  V  V3  1  0.37659482  0.87666204  0.49851412  1
  V  V4  1  0.62497110  0.25190440  0.87296880  1
  V  V5  1  0.87564471  0.87539137  -0.00125632  1
  V  V6  1  0.74964805  0.24952629  0.50035770  1
  V  V7  1  0.49963748  0.12431674  0.62524117  1
  V  V8  1  0.75052070  0.74961837  -0.00063177  1
  V  V9  1  0.62472299  0.49949251  0.12549038  1
  V  V10  1  0.74978318  0.87586688  0.62300052  1
  V  V11  1  0.62484372  0.75110147  0.87402326  1
  V  V12  1  0.50194252  0.00117495  -0.00032176  1
  V  V13  1  0.49800182  0.37494120  0.37520066  1
  V  V14  1  0.12337718  0.25078831  0.37396496  1
  V  V15  1  0.00073996  -0.00099943  0.49999648  1
  V  V16  1  0.24804578  0.49891974  0.25010051  1
  V  V17  1  0.37610444  0.12383665  0.25030403  1
  V  V18  1  -0.00029942  0.50027349  0.00056796  1
  V  V19  1  -0.00002426  0.12490943  0.12600401  1
  V  V20  1  0.87632211  0.87575346  0.49860725  1
  V  V21  1  0.87479511  0.37533120  0.49900055  1
  V  V22  1  0.12591507  0.12394779  0.50090000  1
  V  V23  1  0.12680558  0.12616506  -0.00060658  1
  V  V24  1  0.87556542  0.75011301  0.12470790  1
  V  V25  1  0.25198243  -0.00046010  0.25056157  1
  V  V26  1  0.37483096  0.50068673  0.87486303  1
  V  V27  1  0.00011543  0.75055299  0.75011967  1
  V  V28  1  0.12394947  0.62411918  0.50014608  1
  V  V29  1  0.00008118  0.12549290  0.62592996  1
  V  V30  1  0.12523498  -0.00028110  0.62610335  1
  V  V31  1  0.37576471  0.00065368  0.87497899  1
  V  V32  1  0.50178410  0.87459528  0.87442979  1
  V  V33  1  0.25059138  0.24842765  0.50129084  1
  V  V34  1  0.12448215  0.75081583  0.87462656  1
  V  V35  1  0.75049751  0.25052094  -0.00064375  1
  V  V36  1  0.24888389  0.62350311  0.37513560  1
  V  V37  1  0.87435646  0.75052198  0.62418578  1
  V  V38  1  0.74711490  0.37669898  0.62596564  1
  V  V39  1  0.50010339  0.37525651  0.87480596  1
  V  V40  1  0.12413318  0.74904990  0.37539076  1
  V  V41  1  0.12432965  0.37591871  0.75035144  1
  V  V42  1  0.37403683  0.25080457  0.12457581  1
  V  V43  1  0.62518663  0.00040728  0.62460581  1
  V  V44  1  0.24956222  0.87503806  0.62612218  1
  V  V45  1  0.24992718  0.75052867  0.00011753  1
  V  V46  1  0.37751938  0.74834467  0.62679267  1
  V  V47  1  0.12525167  -0.00002481  0.12483996  1
  V  V48  1  0.74886748  0.49987645  0.74901762  1
  V  V49  1  0.50097677  0.12523838  0.12461623  1
  V  V50  1  0.87248117  0.50024599  0.37369490  1
  V  V51  1  0.49914439  0.62562436  0.12584787  1
  V  V52  1  0.62563238  0.12509685  0.49987813  1
  V  V53  1  0.24893867  0.74945668  0.50087017  1
  V  V54  1  0.37514525  0.37440373  0.49976942  1
  V  V55  1  0.00051096  0.87602842  0.37519752  1
  V  V56  1  0.74954154  0.87805824  0.12529988  1
  V  V57  1  0.12489225  0.49953608  0.62551311  1
  V  V58  1  0.37538416  0.74922455  0.12560134  1
  V  V59  1  0.37543343  0.62631853  0.74970285  1
  V  V60  1  0.25058693  0.87467158  0.12529452  1
  V  V61  1  0.37616975  0.87538285  0.00039340  1
  V  V62  1  0.00046239  0.25053549  0.75021909  1
  V  V63  1  0.62508743  0.37572633  0.24963769  1
  V  V64  1  0.12503859  0.49897148  0.12597830  1
  V  V65  1  -0.00026897  0.62476511  0.12520830  1
  V  V66  1  -0.00081090  0.62484838  0.62497875  1
  V  V67  1  0.25169345  0.12328992  0.37486113  1
  V  V68  1  0.25059502  0.12499371  0.87612087  1
  V  V69  1  0.12445816  0.87434844  0.75092095  1
  V  V70  1  0.37432405  0.37569757  0.00086806  1
  V  V71  1  0.87530711  0.37477043  0.00060244  1
  V  V72  1  0.24983944  0.37524535  0.12524365  1
  V  V73  1  0.37367859  0.49882629  0.37656203  1
  V  V74  1  0.62516576  0.62459501  0.00004458  1
  V  V75  1  0.25046931  0.00058979  0.75167867  1
  V  V76  1  0.87596747  0.00045030  0.87430078  1
  V  V77  1  0.37489343  0.24982459  0.62688166  1
  V  V78  1  0.37436190  0.62500531  0.24985773  1
  V  V79  1  0.87400170  0.62395372  0.25044172  1
  V  V80  1  -0.00002559  0.75029129  0.24979409  1
  V  V81  1  0.49948561  0.24957379  0.25009974  1
  V  V82  1  0.87501385  0.50067266  0.87557048  1
  V  V83  1  0.25002102  0.62549069  0.87558740  1
  V  V84  1  0.74689586  0.74758759  0.49596576  1
  V  V85  1  0.75026965  0.00083648  0.74909997  1
  V  V86  1  0.62495230  0.87356036  0.25094581  1
  V  V87  1  0.24874687  0.50002052  0.75026130  1
  V  V88  1  0.12566441  0.87453409  0.24973933  1
  V  V89  1  -0.00128613  0.49923462  0.49958753  1
  V  V90  1  0.87455027  0.62575688  0.74996557  1
  V  V91  1  0.87555966  0.24957571  0.12604209  1
  V  V92  1  0.75116739  0.12371776  0.37358285  1
  V  V93  1  0.74992088  0.62530096  0.87471377  1
  V  V94  1  0.00045053  0.37463428  0.87460036  1
  V  V95  1  0.49980590  0.50090931  -0.00043915  1
  Zn  Zn96  1  0.50310248  0.74941162  0.75012807  1
  Zn  Zn97  1  0.62429612  0.24938739  0.37470781  1
  Zn  Zn98  1  0.62162820  0.37790671  0.74865201  1
  Zn  Zn99  1  0.50107260  0.50235750  0.50216739  1
  Zn  Zn100  1  0.00059275  -0.00164378  -0.00176588  1
  Zn  Zn101  1  0.12322322  0.37317357  0.24985028  1
  Zn  Zn102  1  0.50016500  0.75015160  0.25230655  1
  Zn  Zn103  1  0.62632516  0.00216460  0.12564813  1
  Zn  Zn104  1  0.24978534  0.37458856  0.62603939  1
  Zn  Zn105  1  0.74941259  0.50094832  0.24865214  1
  Zn  Zn106  1  0.50119981  -0.00130064  0.49692247  1
  Zn  Zn107  1  0.50308500  0.62155335  0.62433392  1
  Zn  Zn108  1  0.75093647  0.37609475  0.12614455  1
  Zn  Zn109  1  0.61919405  0.62194344  0.49743571  1
  Zn  Zn110  1  0.61934401  0.74718769  0.37475863  1
  Zn  Zn111  1  0.74434411  0.62547734  0.37216683  1
  Zn  Zn112  1  0.49974802  0.25133593  0.75046583  1
  Zn  Zn113  1  0.50079401  0.87565586  0.37287710  1
  Zn  Zn114  1  0.75065047  0.12652254  0.87372400  1
  Zn  Zn115  1  0.62122729  0.50367592  0.62304347  1
  Zn  Zn116  1  0.37565869  0.12586244  0.75222019  1
  Zn  Zn117  1  -0.00095661  0.25099418  0.25205166  1
  Zn  Zn118  1  0.62321888  0.87354083  0.74858260  1
  Zn  Zn119  1  0.12680844  0.25075340  0.87464343  1
  Zn  Zn120  1  0.87712643  0.00156076  0.37166365  1
  Zn  Zn121  1  -0.00058935  0.37312207  0.37299997  1
  Zn  Zn122  1  0.00031891  0.87524649  0.87584371  1
  Zn  Zn123  1  0.87597104  0.12626123  0.75107075  1
  Zn  Zn124  1  0.37843791  -0.00052273  0.37503826  1
  Zn  Zn125  1  0.87455695  0.12365900  0.25077089  1
  Zn  Zn126  1  0.75170300  0.00169247  0.25025245  1
  Zn  Zn127  1  0.25031195  0.25180806  -0.00157358  1
  Zn  Zn128  1  0.18954759  0.18770898  0.18799344  1
  Zn  Zn129  1  0.18731373  0.18725504  0.69008813  1
  Zn  Zn130  1  0.18783525  0.68678388  0.18766208  1
  Zn  Zn131  1  0.18832762  0.68678916  0.68766477  1
  Zn  Zn132  1  0.68761580  0.18932664  0.18751376  1
  Zn  Zn133  1  0.68782777  0.18741685  0.68793530  1
  Zn  Zn134  1  0.68801630  0.68810975  0.18844078  1
  Zn  Zn135  1  0.68529511  0.68700288  0.68484482  1
  Zn  Zn136  1  0.31060968  0.31145490  0.31195069  1
  Zn  Zn137  1  0.31101110  0.31227642  0.81286310  1
  Zn  Zn138  1  0.31252052  0.81036183  0.31363581  1
  Zn  Zn139  1  0.31305970  0.81379618  0.81308161  1
  Zn  Zn140  1  0.81075908  0.31131007  0.31246297  1
  Zn  Zn141  1  0.81292957  0.31351867  0.81177236  1
  Zn  Zn142  1  0.81297566  0.81339722  0.31261822  1
  Zn  Zn143  1  0.81139600  0.81443002  0.81147185  1
  Zn  Zn144  1  0.18866319  0.43475068  0.43976933  1
  Zn  Zn145  1  0.18725035  0.43775037  0.93790099  1
  Zn  Zn146  1  0.18916668  0.93725556  0.43737851  1
  Zn  Zn147  1  0.18784444  0.93831050  0.93761022  1
  Zn  Zn148  1  0.68502928  0.43823520  0.43777547  1
  Zn  Zn149  1  0.68853423  0.43679209  0.93822424  1
  Zn  Zn150  1  0.68753082  0.93820116  0.43657660  1
  Zn  Zn151  1  0.68765304  0.93820042  0.93684520  1
  Zn  Zn152  1  0.31348772  0.06237840  0.06290862  1
  Zn  Zn153  1  0.31272496  0.06177797  0.56340726  1
  Zn  Zn154  1  0.31194939  0.56196615  0.06300063  1
  Zn  Zn155  1  0.31296328  0.56160325  0.56266146  1
  Zn  Zn156  1  0.81247458  0.06379831  0.05842260  1
  Zn  Zn157  1  0.81438190  0.06278971  0.56087573  1
  Zn  Zn158  1  0.81096364  0.56128287  0.06433600  1
  Zn  Zn159  1  0.81023824  0.56326265  0.56138551  1
  Zn  Zn160  1  0.43721266  0.43872243  0.18866985  1
  Zn  Zn161  1  0.43839302  0.43729004  0.68834203  1
  Zn  Zn162  1  0.43998770  0.93874042  0.18650437  1
  Zn  Zn163  1  0.43826148  0.93709899  0.68860662  1
  Zn  Zn164  1  0.94062512  0.43441559  0.19065275  1
  Zn  Zn165  1  0.93614212  0.43722148  0.68736113  1
  Zn  Zn166  1  0.93611680  0.94045627  0.18870017  1
  Zn  Zn167  1  0.93731700  0.93691151  0.68737892  1
  Zn  Zn168  1  0.06428517  0.06313983  0.31195521  1
  Zn  Zn169  1  0.06230102  0.06294550  0.81252104  1
  Zn  Zn170  1  0.06027085  0.56102135  0.31254946  1
  Zn  Zn171  1  0.06205832  0.56317805  0.81278185  1
  Zn  Zn172  1  0.56465069  0.05710940  0.31312008  1
  Zn  Zn173  1  0.56337056  0.06368167  0.81163926  1
  Zn  Zn174  1  0.56093430  0.56296055  0.31577083  1
  Zn  Zn175  1  0.56221731  0.56355855  0.80878356  1
  Zn  Zn176  1  0.43850751  0.18773339  0.43752354  1
  Zn  Zn177  1  0.43771993  0.18853526  0.93853183  1
  Zn  Zn178  1  0.44080459  0.68863488  0.43628743  1
  Zn  Zn179  1  0.43856536  0.68839281  0.93740906  1
  Zn  Zn180  1  0.93690065  0.18643443  0.43985861  1
  Zn  Zn181  1  0.93879066  0.18649243  0.93737926  1
  Zn  Zn182  1  0.93511781  0.68703045  0.43693045  1
  Zn  Zn183  1  0.93777361  0.68835221  0.93711802  1
  Zn  Zn184  1  0.06264262  0.31207321  0.06218329  1
  Zn  Zn185  1  0.06212697  0.31331302  0.56208291  1
  Zn  Zn186  1  0.06128326  0.81361105  0.06172825  1
  Zn  Zn187  1  0.06213417  0.81233802  0.56333618  1
  Zn  Zn188  1  0.56151774  0.31247337  0.06213393  1
  Zn  Zn189  1  0.56191586  0.31242606  0.56020365  1
  Zn  Zn190  1  0.56306447  0.81191196  0.06305975  1
  Zn  Zn191  1  0.56271382  0.81261034  0.56255901  1
  O  O192  1  0.11971061  0.12082243  0.11829676  1
  O  O193  1  0.12040304  0.11916164  0.62012910  1
  O  O194  1  0.11950364  0.62008093  0.11952333  1
  O  O195  1  0.11894563  0.61999991  0.61979319  1
  O  O196  1  0.61872990  0.12615235  0.11776240  1
  O  O197  1  0.61771736  0.12157363  0.62029411  1
  O  O198  1  0.61960484  0.62009164  0.11925285  1
  O  O199  1  0.62215909  0.62307834  0.61887233  1
  O  O200  1  0.37782780  0.37854311  0.37950180  1
  O  O201  1  0.37934796  0.38142569  0.88075137  1
  O  O202  1  0.37076246  0.87509097  0.38836734  1
  O  O203  1  0.38014807  0.88043660  0.88198838  1
  O  O204  1  0.87513790  0.38276629  0.38058009  1
  O  O205  1  0.88086729  0.38151657  0.88070372  1
  O  O206  1  0.88414767  0.87648305  0.38063180  1
  O  O207  1  0.87500408  0.88385159  0.87981264  1
  O  O208  1  0.25079092  0.00620069  0.36790608  1
  O  O209  1  0.25643320  0.00461023  0.87095334  1
  O  O210  1  0.25289744  0.50482659  0.37018069  1
  O  O211  1  0.25490942  0.50658917  0.87085232  1
  O  O212  1  0.75311247  0.01321007  0.37656197  1
  O  O213  1  0.75823979  0.00017750  0.86574685  1
  O  O214  1  0.76365681  0.50064618  0.37372754  1
  O  O215  1  0.75632152  0.50573869  0.87078868  1
  O  O216  1  0.24433833  0.49558678  0.13028426  1
  O  O217  1  0.24251060  0.49955103  0.63249597  1
  O  O218  1  0.24522446  0.99382052  0.13056088  1
  O  O219  1  0.24399622  0.99502560  0.63145379  1
  O  O220  1  0.74128676  0.49600433  0.12736077  1
  O  O221  1  0.75339975  0.48935864  0.63036151  1
  O  O222  1  0.75074352  0.98714966  0.12221800  1
  O  O223  1  0.74648233  0.99631787  0.63124038  1
  O  O224  1  0.00634037  0.36841900  0.25525766  1
  O  O225  1  0.00441978  0.37116235  0.75529647  1
  O  O226  1  0.00656362  0.86964737  0.25404790  1
  O  O227  1  0.00691720  0.86755226  0.75012786  1
  O  O228  1  0.50574643  0.36975040  0.25443855  1
  O  O229  1  0.50228535  0.37177631  0.75963852  1
  O  O230  1  0.51266960  0.87353446  0.24579180  1
  O  O231  1  0.50219601  0.87223634  0.75892575  1
  O  O232  1  0.49613183  0.12954545  0.24450436  1
  O  O233  1  0.49880160  0.12772894  0.73714112  1
  O  O234  1  0.49126165  0.62482020  0.24238791  1
  O  O235  1  0.48928299  0.62963047  0.74832018  1
  O  O236  1  1.00136318  0.12762834  0.23610908  1
  O  O237  1  1.00010588  0.13183239  0.74292041  1
  O  O238  1  0.99496378  0.63106053  0.24398995  1
  O  O239  1  0.99425484  0.63044142  0.74454441  1
  O  O240  1  0.37454632  0.25807178  0.00725140  1
  O  O241  1  0.36990586  0.25332829  0.50843131  1
  O  O242  1  0.36871552  0.75539159  0.00515283  1
  O  O243  1  0.36702243  0.75723582  0.50894326  1
  O  O244  1  0.87152684  0.25481350  0.00674508  1
  O  O245  1  0.86982080  0.25585172  0.50659239  1
  O  O246  1  0.86984420  0.75437589  0.00505157  1
  O  O247  1  0.86971666  0.75618577  0.50554593  1
  O  O248  1  0.13027188  0.24333289  0.49451463  1
  O  O249  1  0.12683376  0.23721272  0.99900735  1
  O  O250  1  0.12894480  0.74397630  0.49541464  1
  O  O251  1  0.13035489  0.74500356  0.99546717  1
  O  O252  1  0.63241344  0.24307431  0.49857708  1
  O  O253  1  0.62953650  0.24682496  0.99189313  1
  O  O254  1  0.63826363  0.75349548  0.49879712  1
  O  O255  1  0.63148922  0.74347506  0.99495349  1
  O  O256  1  0.49336655  0.24480943  0.13008243  1
  O  O257  1  0.49162764  0.24201468  0.62520590  1
  O  O258  1  0.49221062  0.74260060  0.12439130  1
  O  O259  1  0.48488931  0.75163242  0.62700285  1
  O  O260  1  0.99194581  0.24095891  0.12315742  1
  O  O261  1  0.99526722  0.24528883  0.62984579  1
  O  O262  1  0.99549533  0.74455099  0.13021018  1
  O  O263  1  0.99462590  0.74402713  0.63003294  1
  O  O264  1  0.01203363  0.24733354  0.37614488  1
  O  O265  1  0.00153072  0.25693396  0.86898007  1
  O  O266  1  0.00534442  0.75510671  0.36961318  1
  O  O267  1  0.00656873  0.75044578  0.86785765  1
  O  O268  1  0.50093899  0.25607192  0.36722506  1
  O  O269  1  0.50907381  0.25595610  0.87563243  1
  O  O270  1  0.50066996  0.75846712  0.36945949  1
  O  O271  1  0.50677677  0.75693826  0.87604238  1
  O  O272  1  0.24478791  0.12870866  0.49540636  1
  O  O273  1  0.24120593  0.12481059  0.99593162  1
  O  O274  1  0.24304610  0.62971625  0.49462714  1
  O  O275  1  0.24432529  0.63053710  0.99534165  1
  O  O276  1  0.74563554  0.13036243  0.49424105  1
  O  O277  1  0.74304279  0.13292741  0.99702341  1
  O  O278  1  0.75282061  0.63893087  0.49790094  1
  O  O279  1  0.74525784  0.62984924  0.99453464  1
  O  O280  1  0.25677724  0.37578128  0.00672201  1
  O  O281  1  0.25671196  0.36592780  0.50384009  1
  O  O282  1  0.25567754  0.87015057  0.00578367  1
  O  O283  1  0.25520259  0.86901569  0.50686171  1
  O  O284  1  0.75802747  0.36878271  0.00222500  1
  O  O285  1  0.75544792  0.36956490  0.50781943  1
  O  O286  1  0.75501591  0.86907563  0.00705444  1
  O  O287  1  0.75696724  0.86891563  0.50446780  1
  O  O288  1  0.13059800  0.50001503  0.24349319  1
  O  O289  1  0.12870733  0.49630655  0.74513090  1
  O  O290  1  0.13158458  0.99377555  0.24419642  1
  O  O291  1  0.13019760  0.99407370  0.74524037  1
  O  O292  1  0.62310750  0.48992081  0.24444078  1
  O  O293  1  0.63511611  0.49736652  0.74847500  1
  O  O294  1  0.63128691  0.98869256  0.24436815  1
  O  O295  1  0.63566119  0.99943810  0.74455249  1
  O  O296  1  0.36867394  0.00585862  0.24969706  1
  O  O297  1  0.36787827  0.00115059  0.75683564  1
  O  O298  1  0.36717425  0.50537642  0.25561275  1
  O  O299  1  0.36778472  0.50567031  0.75667133  1
  O  O300  1  0.87017934  0.00554236  0.25347792  1
  O  O301  1  0.86706318  0.00000888  0.75670446  1
  O  O302  1  0.87583087  0.50443819  0.25825553  1
  O  O303  1  0.87041567  0.50638777  0.75633395  1
  O  O304  1  0.12497984  0.36154205  0.37673076  1
  O  O305  1  0.11768924  0.37552056  0.86932434  1
  O  O306  1  0.12090722  0.86832794  0.36967541  1
  O  O307  1  0.12455448  0.86861069  0.86917001  1
  O  O308  1  0.61825064  0.37356292  0.36429700  1
  O  O309  1  0.61932662  0.36614446  0.87672843  1
  O  O310  1  0.62768295  0.87356739  0.36170380  1
  O  O311  1  0.61967774  0.86857491  0.87501095  1
  O  O312  1  0.38066847  0.13056061  0.13026619  1
  O  O313  1  0.38305646  0.13293650  0.62451259  1
  O  O314  1  0.37881616  0.62937376  0.12951868  1
  O  O315  1  0.36954277  0.63631864  0.63134993  1
  O  O316  1  0.88425987  0.13318782  0.12107191  1
  O  O317  1  0.88273343  0.13185358  0.62538822  1
  O  O318  1  0.88098697  0.63023568  0.12925339  1
  O  O319  1  0.88022935  0.63020234  0.63068550  1
  O  O320  1  0.25681625  0.25671217  0.12335809  1
  O  O321  1  0.25968161  0.24759490  0.62015755  1
  O  O322  1  0.25447382  0.75502866  0.11911140  1
  O  O323  1  0.25620014  0.75527454  0.62055119  1
  O  O324  1  0.76079649  0.25103312  0.11834051  1
  O  O325  1  0.75570778  0.25743629  0.62126724  1
  O  O326  1  0.75643900  0.75801463  0.11844376  1
  O  O327  1  0.75657602  0.75655125  0.61733528  1
  O  O328  1  0.24297002  0.24282892  0.38116926  1
  O  O329  1  0.24720104  0.24175842  0.87829175  1
  O  O330  1  0.24267333  0.74309832  0.38071603  1
  O  O331  1  0.24470675  0.74518275  0.88103262  1
  O  O332  1  0.74831289  0.24115759  0.38208825  1
  O  O333  1  0.74178054  0.25042950  0.88012795  1
  O  O334  1  0.75190763  0.75011819  0.38641601  1
  O  O335  1  0.74624432  0.74462885  0.88028690  1
  O  O336  1  0.00944946  0.12276924  0.00897815  1
  O  O337  1  0.00695216  0.11875622  0.50662018  1
  O  O338  1  0.00503371  0.62033870  0.00550984  1
  O  O339  1  0.00458971  0.62006905  0.50575001  1
  O  O340  1  0.50530620  0.12067967  0.00536649  1
  O  O341  1  0.50547226  0.12481294  0.51090775  1
  O  O342  1  0.50543305  0.61957006  0.00504512  1
  O  O343  1  0.49844183  0.62193375  0.50494478  1
  O  O344  1  0.49132727  0.37292890  0.49169309  1
  O  O345  1  0.49383100  0.38222254  0.99514795  1
  O  O346  1  0.48636686  0.87554240  0.50193018  1
  O  O347  1  0.49501206  0.88088239  0.99551157  1
  O  O348  1  0.99248924  0.38187657  0.49876365  1
  O  O349  1  0.99529236  0.38128931  0.99467931  1
  O  O350  1  0.99688597  0.87931146  0.49490566  1
  O  O351  1  0.99212488  0.87784966  0.99746210  1
  O  O352  1  0.48898636  0.49130289  0.37459485  1
  O  O353  1  0.49417999  0.49623786  0.88052568  1
  O  O354  1  0.49572179  0.99387304  0.37942699  1
  O  O355  1  0.49555007  0.99563563  0.88026218  1
  O  O356  1  0.98948990  0.49907913  0.38160060  1
  O  O357  1  0.99415661  0.49612871  0.88096060  1
  O  O358  1  1.00290780  0.99390233  0.38215371  1
  O  O359  1  0.98825497  0.99760704  0.87434429  1
  O  O360  1  0.00632753  0.00919709  0.12302142  1
  O  O361  1  0.00653186  0.00453549  0.62039682  1
  O  O362  1  0.00471327  0.50562598  0.11953270  1
  O  O363  1  0.00412572  0.50608138  0.61989134  1
  O  O364  1  0.50183039  0.00797677  0.11648274  1
  O  O365  1  0.50521850  0.00957504  0.62412067  1
  O  O366  1  0.50415187  0.50608648  0.11856209  1
  O  O367  1  0.50116282  0.50118949  0.62208531  1
  O  O368  1  0.24756587  0.38168937  0.24324305  1
  O  O369  1  0.24283692  0.38273859  0.74939844  1
  O  O370  1  0.24468593  0.87862840  0.24452197  1
  O  O371  1  0.24401095  0.88061610  0.74566286  1
  O  O372  1  0.73674965  0.37555349  0.24820693  1
  O  O373  1  0.75117888  0.38106839  0.74039900  1
  O  O374  1  0.74494973  0.87366803  0.23881079  1
  O  O375  1  0.74985341  0.88609030  0.74227357  1
  O  O376  1  0.25640300  0.11865764  0.25432466  1
  O  O377  1  0.25035709  0.11729299  0.75775666  1
  O  O378  1  0.25387229  0.61904895  0.25553870  1
  O  O379  1  0.25404529  0.61979896  0.75734361  1
  O  O380  1  0.74931123  0.12584587  0.26114791  1
  O  O381  1  0.75325243  0.11264963  0.75019049  1
  O  O382  1  0.75932506  0.62249609  0.25088384  1
  O  O383  1  0.75677309  0.62041330  0.75561932  1
  O  O384  1  0.36875057  0.12446813  0.36853592  1
  O  O385  1  0.36985147  0.11825581  0.87526546  1
  O  O386  1  0.36658822  0.61962051  0.36954359  1
  O  O387  1  0.36866343  0.62051764  0.87133372  1
  O  O388  1  0.86470098  0.12549641  0.37456919  1
  O  O389  1  0.87280157  0.11402630  0.87346932  1
  O  O390  1  0.87530192  0.61530743  0.36854525  1
  O  O391  1  0.86971633  0.62037389  0.87012086  1
  O  O392  1  0.13127814  0.38171811  0.12428694  1
  O  O393  1  0.12576465  0.38224411  0.63162212  1
  O  O394  1  0.13074548  0.87922663  0.13008374  1
  O  O395  1  0.13032941  0.87964014  0.63071882  1
  O  O396  1  0.62284973  0.38047239  0.13398009  1
  O  O397  1  0.63889224  0.37262053  0.62607903  1
  O  O398  1  0.63605340  0.87465082  0.12954335  1
  O  O399  1  0.63188345  0.88256889  0.62609774  1
  O  O400  1  0.12625957  0.24837825  0.26322850  1
  O  O401  1  0.11821180  0.25767643  0.75102412  1
  O  O402  1  0.11989908  0.75454410  0.25520236  1
  O  O403  1  0.12049133  0.75428721  0.75492157  1
  O  O404  1  0.61752333  0.26044030  0.24912116  1
  O  O405  1  0.62516074  0.25227650  0.76240853  1
  O  O406  1  0.62423630  0.76133801  0.24892970  1
  O  O407  1  0.62491847  0.75275780  0.75881350  1
  O  O408  1  0.37971802  0.24383175  0.24406412  1
  O  O409  1  0.37575499  0.24746455  0.73894012  1
  O  O410  1  0.37276115  0.74259072  0.24199457  1
  O  O411  1  0.37195353  0.74553004  0.74097874  1
  O  O412  1  0.87576168  0.24713156  0.23715254  1
  O  O413  1  0.88205316  0.24917888  0.74375792  1
  O  O414  1  0.88171152  0.74542837  0.24392443  1
  O  O415  1  0.87928427  0.74517690  0.74434661  1
  O  O416  1  0.37113882  0.49097087  0.49261323  1
  O  O417  1  0.38019310  0.49618478  0.99436597  1
  O  O418  1  0.37402682  0.98759940  0.50108054  1
  O  O419  1  0.38114896  0.99432704  0.99501729  1
  O  O420  1  0.87921976  0.49593628  0.49248450  1
  O  O421  1  0.88057216  0.49574449  0.99534804  1
  O  O422  1  0.88394402  0.99299879  0.49899268  1
  O  O423  1  0.87472992  0.99443853  0.98899424  1
  O  O424  1  0.12464471  0.00935851  0.00622673  1
  O  O425  1  0.12124850  0.00406541  0.50682623  1
  O  O426  1  0.11917086  0.50673886  0.00552238  1
  O  O427  1  0.11957198  0.50513415  0.50498448  1
  O  O428  1  0.61946685  0.00789343  0.00010838  1
  O  O429  1  0.62465664  0.00691858  0.50828077  1
  O  O430  1  0.61931120  0.50553000  0.00436866  1
  O  O431  1  0.62118292  0.50134084  0.50350744  1
  O  O432  1  0.37010495  0.37124570  0.12024365  1
  O  O433  1  0.37373604  0.36301973  0.62026048  1
  O  O434  1  0.36955043  0.86989390  0.11941916  1
  O  O435  1  0.36831481  0.86758862  0.61968197  1
  O  O436  1  0.87688484  0.36494215  0.11899167  1
  O  O437  1  0.86657367  0.37009422  0.61956313  1
  O  O438  1  0.86824229  0.86946592  0.12012532  1
  O  O439  1  0.87049951  0.86969806  0.61849871  1
  O  O440  1  0.13142985  0.13136420  0.38142082  1
  O  O441  1  0.13021711  0.12362391  0.88529719  1
  O  O442  1  0.12851909  0.62964412  0.38063524  1
  O  O443  1  0.13016970  0.63049232  0.88099157  1
  O  O444  1  0.63376838  0.12633139  0.38122168  1
  O  O445  1  0.62534281  0.13613655  0.88065519  1
  O  O446  1  0.62838983  0.62948214  0.37773291  1
  O  O447  1  0.63100081  0.62992642  0.88105168  1
