# generated using pymatgen
data_V3Zn3O8
_symmetry_space_group_name_H-M   'P 1'
_cell_length_a   17.09031147
_cell_length_b   17.08914630
_cell_length_c   17.09046260
_cell_angle_alpha   89.99019239
_cell_angle_beta   89.99242896
_cell_angle_gamma   89.99812363
_symmetry_Int_Tables_number   1
_chemical_formula_structural   V3Zn3O8
_chemical_formula_sum   'V96 Zn96 O256'
_cell_volume   4991.42044377
_cell_formula_units_Z   32
loop_
 _symmetry_equiv_pos_site_id
 _symmetry_equiv_pos_as_xyz
  1  'x, y, z'
loop_
 _atom_site_type_symbol
 _atom_site_label
 _atom_site_symmetry_multiplicity
 _atom_site_fract_x
 _atom_site_fract_y
 _atom_site_fract_z
 _atom_site_occupancy
  V  V0  1  0.49983493  0.87584149  0.37515103  1
  V  V1  1  0.37394336  0.75175595  0.12611000  1
  V  V2  1  0.62438532  -0.00004487  0.62336350  1
  V  V3  1  0.12471761  0.74939021  0.37645816  1
  V  V4  1  -0.00056058  0.37401783  0.87595441  1
  V  V5  1  0.24996331  0.87463876  0.62511118  1
  V  V6  1  0.87480140  0.87466927  0.49942202  1
  V  V7  1  0.74924780  0.87482778  0.62390145  1
  V  V8  1  0.37531317  0.12563478  0.75009712  1
  V  V9  1  0.49937267  0.75100625  0.25033402  1
  V  V10  1  0.12350130  0.74960754  0.87492676  1
  V  V11  1  0.75057003  0.37484654  0.62587140  1
  V  V12  1  0.87480255  0.62433956  0.74939465  1
  V  V13  1  0.24933763  0.87530984  0.12564500  1
  V  V14  1  0.50043067  0.25027185  0.75072286  1
  V  V15  1  0.62343010  0.87442882  0.74870655  1
  V  V16  1  0.12396791  0.37482971  0.25092916  1
  V  V17  1  0.37455721  0.00131965  0.37469246  1
  V  V18  1  0.12647894  0.12506943  0.49874923  1
  V  V19  1  0.37339432  -0.00081425  0.87499990  1
  V  V20  1  0.12568745  0.62441056  0.50068653  1
  V  V21  1  0.87521280  0.00000015  0.37369650  1
  V  V22  1  0.87470529  0.74827005  0.62500244  1
  V  V23  1  0.25035753  0.49903861  0.75113761  1
  V  V24  1  0.50145488  0.00296379  0.00087055  1
  V  V25  1  0.87541036  0.50071172  0.37555947  1
  V  V26  1  0.87673893  0.24889846  0.62458630  1
  V  V27  1  0.74942843  0.75027860  0.49926478  1
  V  V28  1  0.62580596  0.49931527  0.62592269  1
  V  V29  1  0.62631237  0.62900469  0.00030479  1
  V  V30  1  0.00027770  0.12456303  0.62467222  1
  V  V31  1  0.62565538  0.12708036  0.49906083  1
  V  V32  1  0.37475976  0.74959042  0.62463205  1
  V  V33  1  0.74940517  -0.00019972  0.24737820  1
  V  V34  1  0.87613858  0.37508887  0.49920672  1
  V  V35  1  0.74944284  0.62532760  0.87561530  1
  V  V36  1  0.00003510  0.62484690  0.12477141  1
  V  V37  1  0.49992659  0.62429526  0.62533876  1
  V  V38  1  0.50141417  0.37599054  0.87549930  1
  V  V39  1  0.00015431  0.12524117  0.12447887  1
  V  V40  1  0.24977314  0.62440458  0.87693148  1
  V  V41  1  0.25048966  0.24930118  0.49801913  1
  V  V42  1  0.12491339  0.12513711  0.00101561  1
  V  V43  1  0.24977859  -0.00004100  0.75013757  1
  V  V44  1  0.37320329  0.87427533  0.00045016  1
  V  V45  1  0.49868275  0.87444436  0.87338659  1
  V  V46  1  0.37574479  0.25084429  0.12497959  1
  V  V47  1  0.49879438  0.50068835  0.00077891  1
  V  V48  1  0.75085006  0.24978723  0.49978174  1
  V  V49  1  0.62462321  0.37545138  0.25003771  1
  V  V50  1  0.50023669  0.00149946  0.50042344  1
  V  V51  1  0.24928924  0.74899550  0.50031474  1
  V  V52  1  0.75031097  0.62488322  0.37477209  1
  V  V53  1  0.87288479  0.75361756  0.12159592  1
  V  V54  1  0.49986185  0.75009831  0.75008779  1
  V  V55  1  0.75072436  0.37396905  0.12346235  1
  V  V56  1  0.75082753  -0.00004991  0.74857352  1
  V  V57  1  0.25015364  0.50105617  0.25087144  1
  V  V58  1  0.50096160  0.37564280  0.37550231  1
  V  V59  1  0.37537979  0.12522046  0.25023991  1
  V  V60  1  0.12476864  0.24969281  0.87582239  1
  V  V61  1  0.00054575  0.25054108  0.24968229  1
  V  V62  1  0.12503226  0.49910821  0.62530476  1
  V  V63  1  0.12549096  0.87546751  0.25004183  1
  V  V64  1  0.74941790  0.12333797  0.87449848  1
  V  V65  1  0.12524579  -0.00102357  0.62455082  1
  V  V66  1  -0.00199214  -0.00403050  -0.00265005  1
  V  V67  1  0.37484497  0.62406520  0.75050674  1
  V  V68  1  0.49947198  0.49900686  0.50029004  1
  V  V69  1  0.00058202  -0.00028928  0.49976700  1
  V  V70  1  0.62630291  0.50082226  0.12610849  1
  V  V71  1  0.25101584  0.37521879  0.12543818  1
  V  V72  1  0.00025421  0.87447149  0.37517394  1
  V  V73  1  0.37499159  0.87545059  0.49969444  1
  V  V74  1  0.12567674  -0.00039121  0.12596004  1
  V  V75  1  0.37509783  0.62553551  0.25100631  1
  V  V76  1  -0.00051733  0.62418530  0.62635846  1
  V  V77  1  -0.00019136  0.75001511  0.24986151  1
  V  V78  1  0.00072440  0.24818127  0.74957483  1
  V  V79  1  0.37556702  0.37516064  0.50014704  1
  V  V80  1  0.00000394  0.50017487  0.00137358  1
  V  V81  1  0.25066792  0.37428381  0.62503439  1
  V  V82  1  0.74960497  0.49860375  0.75005781  1
  V  V83  1  0.87389860  0.25039493  0.12390966  1
  V  V84  1  0.00027441  0.49865499  0.49988018  1
  V  V85  1  0.87452718  0.62548535  0.25094849  1
  V  V86  1  0.62522535  0.87689257  0.24915150  1
  V  V87  1  0.12600730  0.37397544  0.75063317  1
  V  V88  1  0.25060704  0.25122723  0.00108289  1
  V  V89  1  0.62444401  0.62504112  0.49988782  1
  V  V90  1  0.62486257  0.75065009  0.37463631  1
  V  V91  1  0.50055717  0.25199289  0.24967312  1
  V  V92  1  0.87512658  0.49900205  0.87499211  1
  V  V93  1  0.24936345  0.12520430  0.87543080  1
  V  V94  1  0.87514384  0.12471183  0.24976040  1
  V  V95  1  0.12424572  0.87362184  0.75040892  1
  Zn  Zn96  1  0.87574996  0.12235189  0.74960593  1
  Zn  Zn97  1  0.62580141  0.75123586  0.87471538  1
  Zn  Zn98  1  0.74874555  0.24722593  -0.00277815  1
  Zn  Zn99  1  0.74662783  0.87568032  0.12021940  1
  Zn  Zn100  1  0.87354182  0.37178903  -0.00127351  1
  Zn  Zn101  1  0.37474147  0.37622021  0.00087043  1
  Zn  Zn102  1  0.50291927  0.12704975  0.12329797  1
  Zn  Zn103  1  0.37450051  0.50018815  0.87652801  1
  Zn  Zn104  1  0.62738427  0.25133550  0.37395389  1
  Zn  Zn105  1  -0.00028041  0.37385170  0.37499776  1
  Zn  Zn106  1  -0.00183158  0.75067538  0.75055470  1
  Zn  Zn107  1  0.50152884  0.62697987  0.12560066  1
  Zn  Zn108  1  0.49874531  0.12697429  0.62554496  1
  Zn  Zn109  1  0.24973509  0.62449166  0.37648256  1
  Zn  Zn110  1  0.62582427  0.12749474  0.00197665  1
  Zn  Zn111  1  0.75022817  0.50033272  0.25059196  1
  Zn  Zn112  1  0.12475041  0.50290602  0.12494959  1
  Zn  Zn113  1  0.75075331  0.12792434  0.37322735  1
  Zn  Zn114  1  0.24946213  0.00145963  0.25149485  1
  Zn  Zn115  1  0.86977490  0.87546572  -0.00530665  1
  Zn  Zn116  1  0.12349490  0.24810876  0.37435500  1
  Zn  Zn117  1  0.12620169  0.62581351  0.00291389  1
  Zn  Zn118  1  0.24906933  0.74892635  0.00168920  1
  Zn  Zn119  1  0.62620636  0.37344423  0.75078022  1
  Zn  Zn120  1  0.62392074  0.00138431  0.12404644  1
  Zn  Zn121  1  0.24882736  0.12401168  0.37438666  1
  Zn  Zn122  1  0.74939315  0.75505190  -0.00268577  1
  Zn  Zn123  1  0.87600671  -0.00372661  0.87047294  1
  Zn  Zn124  1  0.37596432  0.24896960  0.62510968  1
  Zn  Zn125  1  0.62735778  0.24898093  0.87643261  1
  Zn  Zn126  1  -0.00324617  0.87281771  0.87315915  1
  Zn  Zn127  1  0.37530664  0.50099753  0.37612921  1
  Zn  Zn128  1  0.18860452  0.18822352  0.18714621  1
  Zn  Zn129  1  0.18781186  0.18712993  0.68594347  1
  Zn  Zn130  1  0.18690204  0.68801807  0.18761597  1
  Zn  Zn131  1  0.18716774  0.68663287  0.68914731  1
  Zn  Zn132  1  0.68519848  0.18640965  0.18480783  1
  Zn  Zn133  1  0.68654689  0.18734824  0.68856707  1
  Zn  Zn134  1  0.68881523  0.68857176  0.18731139  1
  Zn  Zn135  1  0.68774081  0.68710826  0.68843424  1
  Zn  Zn136  1  0.31431403  0.31336957  0.31420613  1
  Zn  Zn137  1  0.31595048  0.31316889  0.81521214  1
  Zn  Zn138  1  0.31056823  0.81332182  0.31332027  1
  Zn  Zn139  1  0.31141817  0.81116647  0.81259168  1
  Zn  Zn140  1  0.81238385  0.31300045  0.31208815  1
  Zn  Zn141  1  0.81424435  0.31000373  0.81151670  1
  Zn  Zn142  1  0.81196448  0.81331738  0.31039452  1
  Zn  Zn143  1  0.81180630  0.81217285  0.81357260  1
  Zn  Zn144  1  0.18824542  0.43665257  0.43582502  1
  Zn  Zn145  1  0.18552630  0.43754882  0.93896141  1
  Zn  Zn146  1  0.18916955  0.93775113  0.43629958  1
  Zn  Zn147  1  0.18589700  0.93600222  0.93871813  1
  Zn  Zn148  1  0.68813426  0.43721867  0.43771197  1
  Zn  Zn149  1  0.68563128  0.43898644  0.93884059  1
  Zn  Zn150  1  0.68785940  0.93950101  0.43481506  1
  Zn  Zn151  1  0.68688516  0.93773061  0.93499546  1
  Zn  Zn152  1  0.31354381  0.06260906  0.06418154  1
  Zn  Zn153  1  0.31379581  0.06415394  0.56387171  1
  Zn  Zn154  1  0.31328485  0.56356996  0.06496307  1
  Zn  Zn155  1  0.31247278  0.56125546  0.56374679  1
  Zn  Zn156  1  0.81351784  0.06306035  0.06092116  1
  Zn  Zn157  1  0.81262238  0.06302410  0.56215843  1
  Zn  Zn158  1  0.81310170  0.56290422  0.06275366  1
  Zn  Zn159  1  0.81214472  0.56160904  0.56200325  1
  Zn  Zn160  1  0.43799593  0.43798635  0.18657406  1
  Zn  Zn161  1  0.43624660  0.43670260  0.68790867  1
  Zn  Zn162  1  0.43706158  0.93859569  0.18677022  1
  Zn  Zn163  1  0.43727297  0.93880938  0.68647243  1
  Zn  Zn164  1  0.93568040  0.43790728  0.18791974  1
  Zn  Zn165  1  0.93763031  0.43617867  0.68799391  1
  Zn  Zn166  1  0.93810532  0.93710020  0.18562948  1
  Zn  Zn167  1  0.93763544  0.93545887  0.68768894  1
  Zn  Zn168  1  0.06281547  0.06330519  0.31294176  1
  Zn  Zn169  1  0.06302245  0.06205197  0.81262663  1
  Zn  Zn170  1  0.06166957  0.56273004  0.31338475  1
  Zn  Zn171  1  0.06234743  0.56210113  0.81279204  1
  Zn  Zn172  1  0.56240931  0.06454787  0.31341376  1
  Zn  Zn173  1  0.56397437  0.06235828  0.81332993  1
  Zn  Zn174  1  0.56216106  0.56156273  0.31296474  1
  Zn  Zn175  1  0.56390048  0.56227931  0.81355500  1
  Zn  Zn176  1  0.43845161  0.18915822  0.43544521  1
  Zn  Zn177  1  0.43594864  0.18861977  0.93632782  1
  Zn  Zn178  1  0.43740444  0.68754691  0.43661269  1
  Zn  Zn179  1  0.43725053  0.68879425  0.93818516  1
  Zn  Zn180  1  0.93865255  0.18766281  0.43512708  1
  Zn  Zn181  1  0.93316053  0.18438017  0.93727673  1
  Zn  Zn182  1  0.93835066  0.68635395  0.43870370  1
  Zn  Zn183  1  0.93753870  0.68566705  0.93764467  1
  Zn  Zn184  1  0.06294877  0.31410392  0.06429095  1
  Zn  Zn185  1  0.06363586  0.31176298  0.56206671  1
  Zn  Zn186  1  0.06291509  0.81149644  0.06143118  1
  Zn  Zn187  1  0.06148371  0.81132743  0.56372003  1
  Zn  Zn188  1  0.56559879  0.31048907  0.06133038  1
  Zn  Zn189  1  0.56331753  0.31262800  0.56425256  1
  Zn  Zn190  1  0.56013247  0.81600430  0.06448649  1
  Zn  Zn191  1  0.56159505  0.81257070  0.56221463  1
  O  O192  1  0.12005979  0.12039178  0.12013631  1
  O  O193  1  0.12030920  0.11798240  0.61898536  1
  O  O194  1  0.11615718  0.62377473  0.12360559  1
  O  O195  1  0.12033737  0.61843863  0.62083315  1
  O  O196  1  0.61983249  0.11859356  0.12095996  1
  O  O197  1  0.62345607  0.11891259  0.61429146  1
  O  O198  1  0.62453270  0.62032222  0.11675408  1
  O  O199  1  0.61957063  0.62012246  0.61894946  1
  O  O200  1  0.38272864  0.37805537  0.38204806  1
  O  O201  1  0.38698623  0.37942549  0.87975625  1
  O  O202  1  0.38066598  0.87988916  0.38069152  1
  O  O203  1  0.37813159  0.87990601  0.87943012  1
  O  O204  1  0.87599705  0.38246775  0.38156405  1
  O  O205  1  0.88201604  0.38115337  0.87599173  1
  O  O206  1  0.88101206  0.87915718  0.38010527  1
  O  O207  1  0.87960802  0.87767477  0.87710669  1
  O  O208  1  0.25905633  0.00199161  0.37250408  1
  O  O209  1  0.25328514  0.00532293  0.86995549  1
  O  O210  1  0.25271055  0.50199203  0.36270575  1
  O  O211  1  0.24937405  0.50830998  0.87004422  1
  O  O212  1  0.75733918  0.00099176  0.36418118  1
  O  O213  1  0.75046717  0.00655137  0.86529105  1
  O  O214  1  0.75691025  0.50765144  0.37525768  1
  O  O215  1  0.75533668  0.50446495  0.87018514  1
  O  O216  1  0.24885719  0.49555901  0.13596334  1
  O  O217  1  0.24380870  0.49430230  0.63130539  1
  O  O218  1  0.24313918  0.99401124  0.12695461  1
  O  O219  1  0.24500351  0.99402049  0.63003103  1
  O  O220  1  0.74543526  0.49135702  0.12674315  1
  O  O221  1  0.74569281  0.49477449  0.62994215  1
  O  O222  1  0.75163099  0.99865220  0.13847649  1
  O  O223  1  0.74391538  0.99340709  0.62756668  1
  O  O224  1  0.00939160  0.37051373  0.24843674  1
  O  O225  1  0.00676944  0.36900271  0.75561115  1
  O  O226  1  0.00554760  0.86963437  0.25588602  1
  O  O227  1  0.00938300  0.87157150  0.75097658  1
  O  O228  1  0.50486803  0.37160933  0.25513185  1
  O  O229  1  0.49954586  0.36845295  0.75877270  1
  O  O230  1  0.50416948  0.87097823  0.25671244  1
  O  O231  1  0.50310537  0.86991632  0.75337844  1
  O  O232  1  0.48957813  0.13173361  0.25046389  1
  O  O233  1  0.49426726  0.13420594  0.75225061  1
  O  O234  1  0.49105047  0.63121389  0.24978135  1
  O  O235  1  0.49497429  0.62936389  0.74468630  1
  O  O236  1  0.99530671  0.12963365  0.24320424  1
  O  O237  1  1.00138761  0.13049755  0.74231289  1
  O  O238  1  0.99425882  0.63118933  0.24554194  1
  O  O239  1  0.99260909  0.62396277  0.74321774  1
  O  O240  1  0.36772893  0.25148506  0.00644244  1
  O  O241  1  0.36684274  0.25565605  0.50180484  1
  O  O242  1  0.37363603  0.75652553  0.00753443  1
  O  O243  1  0.37027400  0.75539560  0.50523195  1
  O  O244  1  0.87196892  0.25173502  0.00891347  1
  O  O245  1  0.87141296  0.25501217  0.50537754  1
  O  O246  1  0.87496911  0.74925057  0.01109328  1
  O  O247  1  0.86895721  0.75494367  0.50451245  1
  O  O248  1  0.13416000  0.24459788  0.49929912  1
  O  O249  1  0.13010917  0.24484502  0.99574017  1
  O  O250  1  0.12964933  0.74445236  0.49653776  1
  O  O251  1  0.12789448  0.74718425  0.98845587  1
  O  O252  1  0.63114607  0.24153763  0.50129169  1
  O  O253  1  0.62954712  0.24580667  0.99415891  1
  O  O254  1  0.62956039  0.74506435  0.49453520  1
  O  O255  1  0.62258956  0.73840900  1.00035517  1
  O  O256  1  0.49283460  0.25095351  0.13171948  1
  O  O257  1  0.49776386  0.25054460  0.63818822  1
  O  O258  1  0.49190607  0.74977773  0.13344137  1
  O  O259  1  0.49391163  0.74411743  0.62923698  1
  O  O260  1  0.99497537  0.24457905  0.12977178  1
  O  O261  1  0.99701070  0.24437496  0.62978516  1
  O  O262  1  0.99290070  0.74499959  0.13041458  1
  O  O263  1  0.99261056  0.74192874  0.62554705  1
  O  O264  1  0.00252815  0.25343229  0.36561017  1
  O  O265  1  0.00549418  0.25342249  0.87051071  1
  O  O266  1  0.00464108  0.75534453  0.37065124  1
  O  O267  1  0.01221702  0.74784406  0.87233983  1
  O  O268  1  0.50274702  0.25862451  0.36794899  1
  O  O269  1  0.49896595  0.25947905  0.86744853  1
  O  O270  1  0.50551450  0.75635776  0.37064207  1
  O  O271  1  0.50002398  0.75649804  0.86715906  1
  O  O272  1  0.24558163  0.13406608  0.50073811  1
  O  O273  1  0.24454250  0.13042530  0.99519492  1
  O  O274  1  0.24388275  0.63070135  0.50017937  1
  O  O275  1  0.24876612  0.62483052  0.98930748  1
  O  O276  1  0.74129873  0.13011953  0.49900929  1
  O  O277  1  0.74927101  0.12236315  0.98739742  1
  O  O278  1  0.74394844  0.63093983  0.49520010  1
  O  O279  1  0.73974973  0.62406995  0.99477859  1
  O  O280  1  0.25022258  0.36979048  0.00670124  1
  O  O281  1  0.25414374  0.36847995  0.50484306  1
  O  O282  1  0.25618859  0.87395008  0.00711721  1
  O  O283  1  0.25548166  0.86909846  0.50601893  1
  O  O284  1  0.75049493  0.37549500  0.01272037  1
  O  O285  1  0.75640105  0.37022945  0.50662535  1
  O  O286  1  0.75117809  0.87296516  0.00318068  1
  O  O287  1  0.75473942  0.86999012  0.50363713  1
  O  O288  1  0.13288418  0.49323424  0.24912702  1
  O  O289  1  0.13018048  0.49333507  0.74510388  1
  O  O290  1  0.12496032  0.99346896  0.24364626  1
  O  O291  1  0.13123395  0.99477171  0.74400891  1
  O  O292  1  0.62621093  0.49449508  0.24349972  1
  O  O293  1  0.63185811  0.49966644  0.74292663  1
  O  O294  1  0.63399030  0.99544940  0.25286871  1
  O  O295  1  0.62929754  0.99347865  0.74217513  1
  O  O296  1  0.37574957  0.00973521  0.25546627  1
  O  O297  1  0.36880027  0.00423904  0.75563652  1
  O  O298  1  0.36751657  0.50887350  0.24967028  1
  O  O299  1  0.36818169  0.50683046  0.75174171  1
  O  O300  1  0.86928090  0.00393147  0.25396070  1
  O  O301  1  0.86563856  0.00138712  0.74723237  1
  O  O302  1  0.87417595  0.50814621  0.25729026  1
  O  O303  1  0.86959359  0.50465661  0.75501883  1
  O  O304  1  0.12368892  0.37362919  0.36149415  1
  O  O305  1  0.11968464  0.36861151  0.86973117  1
  O  O306  1  0.11897469  0.86946099  0.37101536  1
  O  O307  1  0.12671347  0.86411455  0.86883642  1
  O  O308  1  0.61918995  0.37501517  0.36865375  1
  O  O309  1  0.61247865  0.37570461  0.87263836  1
  O  O310  1  0.61914094  0.86960258  0.37045353  1
  O  O311  1  0.61632461  0.87329514  0.86570250  1
  O  O312  1  0.37684773  0.13165696  0.13476427  1
  O  O313  1  0.37831401  0.12736674  0.63446116  1
  O  O314  1  0.37623115  0.63181927  0.13691809  1
  O  O315  1  0.38038135  0.63021410  0.63038548  1
  O  O316  1  0.88105189  0.13044800  0.13093408  1
  O  O317  1  0.88320757  0.13121828  0.62404892  1
  O  O318  1  0.87981079  0.63327409  0.13091775  1
  O  O319  1  0.87931567  0.62876797  0.62929281  1
  O  O320  1  0.25540243  0.25585413  0.11969533  1
  O  O321  1  0.25029348  0.25615935  0.61483304  1
  O  O322  1  0.25586189  0.75677556  0.12426084  1
  O  O323  1  0.25535992  0.75468019  0.62035576  1
  O  O324  1  0.75557536  0.25935265  0.12517549  1
  O  O325  1  0.75649028  0.25504717  0.62033920  1
  O  O326  1  0.76173914  0.75148700  0.12369865  1
  O  O327  1  0.75447609  0.75475560  0.61829108  1
  O  O328  1  0.24849661  0.24977813  0.38799553  1
  O  O329  1  0.24437670  0.24535596  0.88070122  1
  O  O330  1  0.24251076  0.74938767  0.38289346  1
  O  O331  1  0.24206460  0.74005087  0.87478137  1
  O  O332  1  0.74835526  0.24832202  0.38372637  1
  O  O333  1  0.75017602  0.23829284  0.87348973  1
  O  O334  1  0.74457107  0.74551831  0.38025506  1
  O  O335  1  0.74595796  0.74037273  0.87697443  1
  O  O336  1  0.00604733  0.11766726  0.00515447  1
  O  O337  1  0.00612216  0.11891222  0.50493945  1
  O  O338  1  0.00086360  0.61433225  0.00503879  1
  O  O339  1  0.00587380  0.61863126  0.50681211  1
  O  O340  1  0.49744346  0.11298704  -0.00227378  1
  O  O341  1  0.50886849  0.12060756  0.50121879  1
  O  O342  1  0.50825119  0.61720391  0.00011647  1
  O  O343  1  0.50484503  0.62045954  0.50563437  1
  O  O344  1  0.49563140  0.37978061  0.49645318  1
  O  O345  1  0.50131147  0.38553689  0.99316751  1
  O  O346  1  0.49437464  0.88029850  0.49466293  1
  O  O347  1  0.49265913  0.88239071  0.99337758  1
  O  O348  1  0.99444152  0.38119753  0.49972816  1
  O  O349  1  0.99934177  0.38359091  0.99480120  1
  O  O350  1  0.99469260  0.87987702  0.49522544  1
  O  O351  1  1.00154742  0.88670802  0.99857688  1
  O  O352  1  0.49892805  0.49417425  0.38318137  1
  O  O353  1  0.49951177  0.49394809  0.88365775  1
  O  O354  1  0.49466411  0.99453879  0.38112958  1
  O  O355  1  0.49227422  0.99394206  0.88026196  1
  O  O356  1  0.99347236  0.49892094  0.38271313  1
  O  O357  1  0.99562858  0.49460029  0.88194564  1
  O  O358  1  0.99513899  0.99356622  0.38045558  1
  O  O359  1  1.00156057  0.99895213  0.88577924  1
  O  O360  1  0.00607018  0.00562217  0.11788617  1
  O  O361  1  0.00602094  0.00371162  0.61843505  1
  O  O362  1  -0.00169097  0.50561409  0.11643145  1
  O  O363  1  0.00593732  0.50415829  0.62007693  1
  O  O364  1  0.49752503  0.00125537  0.11173560  1
  O  O365  1  0.50660772  0.00107675  0.61781897  1
  O  O366  1  0.50668321  0.50171872  0.11580134  1
  O  O367  1  0.50524465  0.50534868  0.62031200  1
  O  O368  1  0.24415892  0.38213889  0.24604226  1
  O  O369  1  0.24528761  0.37881387  0.74649369  1
  O  O370  1  0.24278991  0.87668129  0.24398127  1
  O  O371  1  0.24540173  0.88049671  0.74400976  1
  O  O372  1  0.74436798  0.37687675  0.23948886  1
  O  O373  1  0.74985228  0.38110398  0.74365810  1
  O  O374  1  0.74409302  0.88429104  0.24959557  1
  O  O375  1  0.74305267  0.87918432  0.74226383  1
  O  O376  1  0.26297952  0.12548825  0.25175232  1
  O  O377  1  0.25361447  0.11950767  0.75579357  1
  O  O378  1  0.25752343  0.61779199  0.25093478  1
  O  O379  1  0.25478607  0.61902864  0.75746543  1
  O  O380  1  0.75628830  0.11642420  0.25100618  1
  O  O381  1  0.75051643  0.11745916  0.75537791  1
  O  O382  1  0.75620458  0.62453893  0.25789626  1
  O  O383  1  0.75505046  0.61810463  0.75466987  1
  O  O384  1  0.37466503  0.12023522  0.36607213  1
  O  O385  1  0.36719880  0.11903125  0.86962980  1
  O  O386  1  0.37252620  0.62443463  0.36294992  1
  O  O387  1  0.36496140  0.62517732  0.86932333  1
  O  O388  1  0.87506419  0.11710491  0.36777697  1
  O  O389  1  0.86483681  0.11932594  0.86991941  1
  O  O390  1  0.86990959  0.62130039  0.37117795  1
  O  O391  1  0.86965847  0.61844874  0.86914696  1
  O  O392  1  0.13163796  0.37752968  0.13650460  1
  O  O393  1  0.13066676  0.38010702  0.63130877  1
  O  O394  1  0.12936266  0.87919555  0.13093576  1
  O  O395  1  0.13097370  0.87945740  0.62917794  1
  O  O396  1  0.63281424  0.38061913  0.13016814  1
  O  O397  1  0.63276001  0.38231319  0.62636036  1
  O  O398  1  0.62550873  0.88000269  0.13463108  1
  O  O399  1  0.63004800  0.87981351  0.62789361  1
  O  O400  1  0.12053981  0.25927141  0.24935815  1
  O  O401  1  0.12084867  0.25446432  0.75583693  1
  O  O402  1  0.11880219  0.75544740  0.25636047  1
  O  O403  1  0.12477569  0.75486859  0.75850324  1
  O  O404  1  0.61828092  0.25721740  0.25080900  1
  O  O405  1  0.61285882  0.25219908  0.75326409  1
  O  O406  1  0.61952234  0.75549259  0.25594171  1
  O  O407  1  0.61700591  0.75622268  0.74860308  1
  O  O408  1  0.37987207  0.24386019  0.24570998  1
  O  O409  1  0.38354635  0.24443266  0.75053796  1
  O  O410  1  0.37903217  0.74376086  0.24700461  1
  O  O411  1  0.37966315  0.74446341  0.74333321  1
  O  O412  1  0.88058449  0.24466907  0.24382626  1
  O  O413  1  0.88426229  0.24808908  0.74137802  1
  O  O414  1  0.88085730  0.74559460  0.24315531  1
  O  O415  1  0.87463164  0.74198692  0.74198676  1
  O  O416  1  0.38143655  0.49420973  0.49946592  1
  O  O417  1  0.38785010  0.50085641  1.00055588  1
  O  O418  1  0.38037541  0.99477143  0.49578151  1
  O  O419  1  0.38034094  0.99446304  0.99381019  1
  O  O420  1  0.88084562  0.49497503  0.49594987  1
  O  O421  1  0.88520141  0.49879805  0.99383070  1
  O  O422  1  0.88054581  0.99375576  0.49479145  1
  O  O423  1  0.88908253  0.99909501  1.00064315  1
  O  O424  1  0.11833847  0.00589140  0.00581522  1
  O  O425  1  0.12020743  0.00370424  0.50541164  1
  O  O426  1  0.11205170  0.50185247  0.00222620  1
  O  O427  1  0.12115976  0.50399240  0.50574587  1
  O  O428  1  0.61015390  -0.00048946  -0.00131455  1
  O  O429  1  0.62071294  0.00745565  0.50321017  1
  O  O430  1  0.61696159  0.50949417  0.00529781  1
  O  O431  1  0.61976896  0.50609539  0.50610648  1
  O  O432  1  0.36807024  0.36892468  0.12439706  1
  O  O433  1  0.36739284  0.37358891  0.61851433  1
  O  O434  1  0.36889211  0.87042621  0.12099290  1
  O  O435  1  0.36953483  0.86962455  0.61929702  1
  O  O436  1  0.86557140  0.36966902  0.12535125  1
  O  O437  1  0.87061566  0.36928838  0.61894165  1
  O  O438  1  0.87549296  0.86282633  0.12359561  1
  O  O439  1  0.86891268  0.86854171  0.61805979  1
  O  O440  1  0.12835545  0.12682905  0.38270066  1
  O  O441  1  0.13076060  0.13082334  0.88082607  1
  O  O442  1  0.12549653  0.63186428  0.38268054  1
  O  O443  1  0.13451934  0.63222500  0.87322411  1
  O  O444  1  0.62707692  0.12750600  0.38807299  1
  O  O445  1  0.63745577  0.12437386  0.87581276  1
  O  O446  1  0.62944892  0.63124971  0.38062646  1
  O  O447  1  0.63028441  0.62550597  0.88483672  1
