# generated using pymatgen
data_V3Zn3O8
_symmetry_space_group_name_H-M   'P 1'
_cell_length_a   17.08862590
_cell_length_b   17.08861648
_cell_length_c   17.08809426
_cell_angle_alpha   89.98921230
_cell_angle_beta   89.99871385
_cell_angle_gamma   90.01425707
_symmetry_Int_Tables_number   1
_chemical_formula_structural   V3Zn3O8
_chemical_formula_sum   'V96 Zn96 O256'
_cell_volume   4990.08168807
_cell_formula_units_Z   32
loop_
 _symmetry_equiv_pos_site_id
 _symmetry_equiv_pos_as_xyz
  1  'x, y, z'
loop_
 _atom_site_type_symbol
 _atom_site_label
 _atom_site_symmetry_multiplicity
 _atom_site_fract_x
 _atom_site_fract_y
 _atom_site_fract_z
 _atom_site_occupancy
  V  V0  1  0.25151505  0.62480141  0.37413068  1
  V  V1  1  0.75113098  0.75021757  0.00028649  1
  V  V2  1  0.37522599  0.49940842  0.87482867  1
  V  V3  1  0.12484476  0.87580032  0.24975927  1
  V  V4  1  0.49976525  0.37444386  0.87475108  1
  V  V5  1  -0.00097312  0.12596675  0.12487513  1
  V  V6  1  0.75251503  0.75054194  0.49988084  1
  V  V7  1  -0.00062751  0.25157301  0.24974624  1
  V  V8  1  0.25090728  0.62471150  0.87468054  1
  V  V9  1  0.87495185  0.62547489  0.24900127  1
  V  V10  1  0.75150623  -0.00074471  0.75097063  1
  V  V11  1  0.25215993  0.12386481  0.87291166  1
  V  V12  1  0.87572342  0.87500226  0.50044411  1
  V  V13  1  0.25084994  0.49997714  0.74964099  1
  V  V14  1  0.37530572  0.37568104  -0.00078864  1
  V  V15  1  0.12648297  -0.00013320  0.62482060  1
  V  V16  1  0.12687558  0.87542641  0.74903472  1
  V  V17  1  0.74890721  0.24953754  -0.00058258  1
  V  V18  1  0.00070487  0.87633001  0.37460900  1
  V  V19  1  0.49899018  0.87548680  0.87829711  1
  V  V20  1  0.25104387  0.12571565  0.37386710  1
  V  V21  1  0.87498517  0.24985620  0.62541801  1
  V  V22  1  0.25000709  0.87465881  0.12431880  1
  V  V23  1  0.12589522  0.75082309  0.37479964  1
  V  V24  1  0.50070109  0.62407240  0.12510646  1
  V  V25  1  -0.00065756  0.00028249  -0.00073595  1
  V  V26  1  0.87515143  0.00095978  0.37557235  1
  V  V27  1  0.37360019  0.75151187  0.12356731  1
  V  V28  1  0.87596593  0.87565296  -0.00092496  1
  V  V29  1  0.00012658  0.75061459  0.24969696  1
  V  V30  1  0.24870819  0.50017405  0.24885044  1
  V  V31  1  0.12474118  0.12661031  0.49951409  1
  V  V32  1  0.37511536  0.62481650  0.25032513  1
  V  V33  1  0.62500655  0.37324238  0.75062393  1
  V  V34  1  0.37706325  0.74819408  0.62480930  1
  V  V35  1  0.87359298  0.37501024  -0.00077552  1
  V  V36  1  0.37593713  0.24632616  0.12779985  1
  V  V37  1  0.62179372  0.37303696  0.25130788  1
  V  V38  1  0.87401472  0.12573051  0.25031948  1
  V  V39  1  0.24995769  0.37470693  0.62334109  1
  V  V40  1  0.25075393  0.74960146  0.49926667  1
  V  V41  1  0.00044251  0.62559593  0.12361080  1
  V  V42  1  0.62358395  0.25013245  0.87481385  1
  V  V43  1  -0.00086144  0.24985651  0.74939240  1
  V  V44  1  0.62562248  0.74881667  0.87430160  1
  V  V45  1  0.74797454  0.37517173  0.12503177  1
  V  V46  1  0.74973783  0.37441844  0.62521187  1
  V  V47  1  0.12443078  0.00063557  0.12554447  1
  V  V48  1  0.75070913  0.62467248  0.87493805  1
  V  V49  1  0.12680942  0.74989271  0.87407917  1
  V  V50  1  0.49952766  0.49667417  0.49862478  1
  V  V51  1  0.87487026  0.50111600  0.37507527  1
  V  V52  1  0.50163537  0.62468732  0.62640992  1
  V  V53  1  0.12431537  0.37608801  0.74973251  1
  V  V54  1  0.00081190  0.75032578  0.74885920  1
  V  V55  1  0.62147236  0.12142835  0.00304223  1
  V  V56  1  0.12425801  0.25140911  0.87544180  1
  V  V57  1  0.00141111  0.87602021  0.87480067  1
  V  V58  1  0.24883740  0.25152836  0.00031284  1
  V  V59  1  0.87513656  0.75079403  0.12483018  1
  V  V60  1  0.74999928  0.24983782  0.50163258  1
  V  V61  1  0.00006437  0.00127147  0.50005901  1
  V  V62  1  0.50098922  -0.00111918  0.50205861  1
  V  V63  1  0.74877457  0.49978646  0.24995545  1
  V  V64  1  0.12507283  0.50045688  0.62365325  1
  V  V65  1  0.87432378  0.50072123  0.87397220  1
  V  V66  1  0.74960427  0.12399412  0.87490966  1
  V  V67  1  0.00021989  0.50097113  0.49888729  1
  V  V68  1  0.24990926  0.00144870  0.25093946  1
  V  V69  1  0.24925564  0.37699881  0.12499407  1
  V  V70  1  0.24863136  0.25065949  0.49978680  1
  V  V71  1  0.87387178  0.25021423  0.12438472  1
  V  V72  1  0.74901860  0.87623927  0.12572631  1
  V  V73  1  0.75054501  0.62591129  0.37475310  1
  V  V74  1  -0.00086745  0.37517123  0.87526343  1
  V  V75  1  0.12581849  0.62480948  0.49986707  1
  V  V76  1  0.62392594  0.12375272  0.50175894  1
  V  V77  1  0.37516006  0.24752085  0.62678639  1
  V  V78  1  0.87632850  0.74996192  0.62460348  1
  V  V79  1  0.74959226  0.12489923  0.37628304  1
  V  V80  1  -0.00051365  0.37509399  0.37298765  1
  V  V81  1  0.12489906  0.62575638  -0.00121807  1
  V  V82  1  0.62629519  0.49839633  0.62560574  1
  V  V83  1  0.12380897  0.12645380  0.00041126  1
  V  V84  1  0.62572320  0.74997592  0.37508597  1
  V  V85  1  -0.00044785  0.50108326  -0.00004417  1
  V  V86  1  0.37614800  0.87465388  0.50027756  1
  V  V87  1  0.62538905  0.87339398  0.75046747  1
  V  V88  1  0.50066877  0.87416073  0.37444896  1
  V  V89  1  0.62534733  0.62388225  0.00112212  1
  V  V90  1  0.25071441  0.87496806  0.62458325  1
  V  V91  1  0.87606555  0.62567035  0.75000518  1
  V  V92  1  0.74869224  -0.00053405  0.24925112  1
  V  V93  1  0.62500868  -0.00130447  0.62560067  1
  V  V94  1  0.62358727  0.25007917  0.37620198  1
  V  V95  1  0.00018697  0.12611358  0.62544228  1
  Zn  Zn96  1  0.49703989  0.24715264  0.25384499  1
  Zn  Zn97  1  0.12385233  0.37567819  0.24708906  1
  Zn  Zn98  1  0.87668661  0.00109213  0.87389661  1
  Zn  Zn99  1  0.12414068  0.50041848  0.12364371  1
  Zn  Zn100  1  0.37633102  0.00030407  0.37455710  1
  Zn  Zn101  1  0.87407594  0.37626130  0.50084467  1
  Zn  Zn102  1  0.49861446  0.12295038  0.62920709  1
  Zn  Zn103  1  0.12530622  0.25257818  0.37237826  1
  Zn  Zn104  1  0.50078251  0.74997356  0.25109193  1
  Zn  Zn105  1  0.37548501  0.49776452  0.37597253  1
  Zn  Zn106  1  0.62302236  0.49862849  0.12499276  1
  Zn  Zn107  1  0.25275563  0.00009253  0.74950310  1
  Zn  Zn108  1  0.37752895  0.12286794  0.25010189  1
  Zn  Zn109  1  0.37618528  0.62465235  0.75120951  1
  Zn  Zn110  1  0.87632489  0.12383510  0.75167314  1
  Zn  Zn111  1  0.49901792  0.24647964  0.75015396  1
  Zn  Zn112  1  0.37368949  0.37422481  0.49713823  1
  Zn  Zn113  1  0.49478210  -0.00071726  0.00435653  1
  Zn  Zn114  1  0.62408517  0.87671330  0.24802713  1
  Zn  Zn115  1  0.37823282  0.12100342  0.75151321  1
  Zn  Zn116  1  0.62082584  -0.00284923  0.12662818  1
  Zn  Zn117  1  0.75097414  0.49989886  0.74906609  1
  Zn  Zn118  1  0.37288932  0.87694644  -0.00166400  1
  Zn  Zn119  1  0.50033740  0.74872203  0.75081911  1
  Zn  Zn120  1  0.75067156  0.87401331  0.62524207  1
  Zn  Zn121  1  0.50065296  0.12086993  0.13095333  1
  Zn  Zn122  1  0.62777783  0.62330378  0.50036072  1
  Zn  Zn123  1  0.37465247  -0.00253978  0.87480642  1
  Zn  Zn124  1  0.50141663  0.49919896  -0.00063245  1
  Zn  Zn125  1  0.24987362  0.75132982  -0.00212325  1
  Zn  Zn126  1  0.49618538  0.37321138  0.37513016  1
  Zn  Zn127  1  0.00078829  0.62465262  0.62461075  1
  Zn  Zn128  1  0.18683095  0.19012215  0.18859581  1
  Zn  Zn129  1  0.18723418  0.18839134  0.68795546  1
  Zn  Zn130  1  0.18741566  0.68693003  0.18635413  1
  Zn  Zn131  1  0.18899542  0.68689031  0.68733157  1
  Zn  Zn132  1  0.68675059  0.18749893  0.18774696  1
  Zn  Zn133  1  0.68638888  0.18590568  0.68799600  1
  Zn  Zn134  1  0.68708145  0.68913865  0.18821708  1
  Zn  Zn135  1  0.68913413  0.68688034  0.68754938  1
  Zn  Zn136  1  0.31289750  0.31461716  0.31341982  1
  Zn  Zn137  1  0.31254122  0.31207519  0.81093435  1
  Zn  Zn138  1  0.31372996  0.81264526  0.31053696  1
  Zn  Zn139  1  0.31492379  0.80976285  0.80890871  1
  Zn  Zn140  1  0.81103279  0.31286052  0.31319263  1
  Zn  Zn141  1  0.81098515  0.31152007  0.81114820  1
  Zn  Zn142  1  0.81263578  0.81413426  0.31239532  1
  Zn  Zn143  1  0.81391687  0.81276999  0.81287261  1
  Zn  Zn144  1  0.18648887  0.43728999  0.43534994  1
  Zn  Zn145  1  0.18756781  0.43941251  0.93777593  1
  Zn  Zn146  1  0.18820317  0.93885763  0.43849101  1
  Zn  Zn147  1  0.18765514  0.93818488  0.93910052  1
  Zn  Zn148  1  0.68634214  0.43694618  0.43855844  1
  Zn  Zn149  1  0.68589498  0.43929711  0.93723326  1
  Zn  Zn150  1  0.68816878  0.93688027  0.43804163  1
  Zn  Zn151  1  0.68612317  0.93753179  0.93739438  1
  Zn  Zn152  1  0.31286458  0.06043814  0.05863505  1
  Zn  Zn153  1  0.31350536  0.06228061  0.56038778  1
  Zn  Zn154  1  0.31286031  0.56325700  0.06061998  1
  Zn  Zn155  1  0.31479826  0.56179140  0.56267046  1
  Zn  Zn156  1  0.81090378  0.06131248  0.06210778  1
  Zn  Zn157  1  0.81235618  0.06326326  0.56496599  1
  Zn  Zn158  1  0.81173302  0.56153674  0.06284067  1
  Zn  Zn159  1  0.81360464  0.56325543  0.56258539  1
  Zn  Zn160  1  0.43514521  0.43700914  0.18701179  1
  Zn  Zn161  1  0.43753413  0.43454917  0.68767360  1
  Zn  Zn162  1  0.43689767  0.93982975  0.18874159  1
  Zn  Zn163  1  0.43717401  0.93771359  0.69216233  1
  Zn  Zn164  1  0.93542987  0.43879624  0.18634008  1
  Zn  Zn165  1  0.93688052  0.43776139  0.68629760  1
  Zn  Zn166  1  0.93572268  0.93869350  0.18691702  1
  Zn  Zn167  1  0.93809875  0.93702635  0.68664515  1
  Zn  Zn168  1  0.06344558  0.06508682  0.31246653  1
  Zn  Zn169  1  0.06574587  0.06251354  0.81161505  1
  Zn  Zn170  1  0.06383407  0.56318014  0.31209023  1
  Zn  Zn171  1  0.06276507  0.56316605  0.81211578  1
  Zn  Zn172  1  0.56206114  0.06266647  0.31211479  1
  Zn  Zn173  1  0.56158041  0.06156596  0.81295251  1
  Zn  Zn174  1  0.56271851  0.56205004  0.31237638  1
  Zn  Zn175  1  0.56367538  0.55928569  0.81217756  1
  Zn  Zn176  1  0.43734052  0.18791269  0.44056546  1
  Zn  Zn177  1  0.43770992  0.18970091  0.93980702  1
  Zn  Zn178  1  0.43843746  0.68471685  0.43979402  1
  Zn  Zn179  1  0.43820840  0.68791228  0.93831014  1
  Zn  Zn180  1  0.93650745  0.18936996  0.43817993  1
  Zn  Zn181  1  0.93560038  0.18703431  0.93602609  1
  Zn  Zn182  1  0.93863727  0.68721713  0.43705361  1
  Zn  Zn183  1  0.93855675  0.68869910  0.93588953  1
  Zn  Zn184  1  0.06260605  0.31454376  0.06364873  1
  Zn  Zn185  1  0.06234071  0.31362154  0.56076455  1
  Zn  Zn186  1  0.06365198  0.81253861  0.06126319  1
  Zn  Zn187  1  0.06289352  0.81267119  0.56257585  1
  Zn  Zn188  1  0.55992728  0.30974607  0.06271064  1
  Zn  Zn189  1  0.56140891  0.31141066  0.56404469  1
  Zn  Zn190  1  0.56326189  0.81069421  0.06202472  1
  Zn  Zn191  1  0.56486348  0.81218346  0.56225695  1
  O  O192  1  0.11866266  0.12080994  0.11989965  1
  O  O193  1  0.11994448  0.12026240  0.61907668  1
  O  O194  1  0.11724224  0.62531745  0.11755922  1
  O  O195  1  0.12487149  0.61836041  0.61741404  1
  O  O196  1  0.62534715  0.12557389  0.11354943  1
  O  O197  1  0.62406738  0.11705719  0.61816325  1
  O  O198  1  0.61578042  0.62638073  0.12130644  1
  O  O199  1  0.61788923  0.61887937  0.62329952  1
  O  O200  1  0.37875400  0.37954100  0.37896881  1
  O  O201  1  0.37916740  0.37878064  0.88010207  1
  O  O202  1  0.38542329  0.87208287  0.38154966  1
  O  O203  1  0.38710152  0.87004905  0.87579189  1
  O  O204  1  0.88331330  0.38204841  0.37539652  1
  O  O205  1  0.87960010  0.37952428  0.88028677  1
  O  O206  1  0.88203203  0.88126714  0.37997988  1
  O  O207  1  0.88365103  0.87585770  0.88182289  1
  O  O208  1  0.24914450  0.00927894  0.37015070  1
  O  O209  1  0.24658732  0.01317620  0.87445767  1
  O  O210  1  0.24977877  0.50706810  0.36557758  1
  O  O211  1  0.25525290  0.50437982  0.86881582  1
  O  O212  1  0.75641722  0.00563321  0.37094227  1
  O  O213  1  0.75058655  0.00441985  0.86533052  1
  O  O214  1  0.75481436  0.50583503  0.37006638  1
  O  O215  1  0.75740716  0.50691446  0.87455812  1
  O  O216  1  0.25031014  0.49613714  0.13333559  1
  O  O217  1  0.24457346  0.49472462  0.62923816  1
  O  O218  1  0.24284256  0.99547602  0.13058490  1
  O  O219  1  0.24327864  0.99251271  0.62299260  1
  O  O220  1  0.74854699  0.49332073  0.13224607  1
  O  O221  1  0.74422459  0.49339298  0.62484463  1
  O  O222  1  0.75015415  0.99324877  0.13218463  1
  O  O223  1  0.74482271  0.99794425  0.63499304  1
  O  O224  1  -0.00229811  0.37117738  0.25723095  1
  O  O225  1  0.00511390  0.37019036  0.75601243  1
  O  O226  1  0.00471932  0.87066528  0.25500043  1
  O  O227  1  0.00688898  0.87032268  0.75475103  1
  O  O228  1  0.51177605  0.37405556  0.25034239  1
  O  O229  1  0.50743716  0.37126476  0.75675471  1
  O  O230  1  0.50128928  0.87191874  0.26359887  1
  O  O231  1  0.50848321  0.87180041  0.75968957  1
  O  O232  1  0.49514303  0.12939392  0.24913443  1
  O  O233  1  0.49696482  0.12866915  0.74777227  1
  O  O234  1  0.49464414  0.62672087  0.24173149  1
  O  O235  1  0.50032726  0.62406570  0.73680607  1
  O  O236  1  0.99331562  0.13032530  0.24444770  1
  O  O237  1  1.00118789  0.13202460  0.74342056  1
  O  O238  1  0.99479480  0.63124494  0.24488675  1
  O  O239  1  0.99444669  0.63269350  0.74909544  1
  O  O240  1  0.36752631  0.25636558  0.00811966  1
  O  O241  1  0.36662672  0.25103459  0.50996821  1
  O  O242  1  0.37260859  0.75049029  0.01381407  1
  O  O243  1  0.36960014  0.75445066  0.50508685  1
  O  O244  1  0.86904466  0.25563193  0.00478891  1
  O  O245  1  0.86770715  0.25132007  0.50727702  1
  O  O246  1  0.87095705  0.75546079  0.00544317  1
  O  O247  1  0.87248269  0.75560500  0.50370063  1
  O  O248  1  0.13049461  0.24345391  0.49811766  1
  O  O249  1  0.12857935  0.24612202  0.99519725  1
  O  O250  1  0.13098026  0.74575732  0.49392219  1
  O  O251  1  0.12495288  0.74348953  0.99169406  1
  O  O252  1  0.63083073  0.24386896  0.49647730  1
  O  O253  1  0.63062889  0.24263926  0.99492223  1
  O  O254  1  0.63295092  0.74921005  0.48934378  1
  O  O255  1  0.63295297  0.74298287  0.99441926  1
  O  O256  1  0.48622740  0.24741866  0.12648391  1
  O  O257  1  0.48749506  0.24748017  0.62518259  1
  O  O258  1  0.49215406  0.74093491  0.12763105  1
  O  O259  1  0.49706851  0.73941085  0.62271384  1
  O  O260  1  0.99278228  0.24538445  0.12883054  1
  O  O261  1  0.99566792  0.24581066  0.62964232  1
  O  O262  1  0.99447987  0.74600925  0.13052805  1
  O  O263  1  0.99482254  0.74882700  0.63100732  1
  O  O264  1  -0.00172823  0.25957489  0.36909084  1
  O  O265  1  0.00473566  0.25590423  0.87039530  1
  O  O266  1  0.00596005  0.75646102  0.36913948  1
  O  O267  1  0.00666531  0.75645860  0.86857807  1
  O  O268  1  0.50861461  0.25258840  0.37563501  1
  O  O269  1  0.50638926  0.25763270  0.87477626  1
  O  O270  1  0.50896963  0.75669070  0.37754631  1
  O  O271  1  0.50817017  0.75574563  0.87363084  1
  O  O272  1  0.24354585  0.12953537  0.49200540  1
  O  O273  1  0.24181316  0.13190688  0.99300464  1
  O  O274  1  0.24546728  0.63009517  0.49416087  1
  O  O275  1  0.24277246  0.62641997  0.99245228  1
  O  O276  1  0.74456016  0.12931942  0.49528967  1
  O  O277  1  0.74299721  0.13037273  0.99517609  1
  O  O278  1  0.75054521  0.63251098  0.49180786  1
  O  O279  1  0.74625361  0.63115872  0.99547951  1
  O  O280  1  0.25480335  0.37061078  0.00426550  1
  O  O281  1  0.24789201  0.36881707  0.50620300  1
  O  O282  1  0.24992764  0.87140146  0.00922978  1
  O  O283  1  0.25540775  0.86867939  0.50413004  1
  O  O284  1  0.75414362  0.36929967  0.00457607  1
  O  O285  1  0.75096670  0.36751339  0.50658513  1
  O  O286  1  0.75600604  0.86920738  0.00447454  1
  O  O287  1  0.75899817  0.86891371  0.50013473  1
  O  O288  1  0.13745498  0.50215146  0.24621542  1
  O  O289  1  0.12994237  0.49465394  0.74444130  1
  O  O290  1  0.12850528  0.99499707  0.24444074  1
  O  O291  1  0.12741625  0.99289149  0.74171003  1
  O  O292  1  0.63080148  0.49017185  0.24904297  1
  O  O293  1  0.62811555  0.49150455  0.74328284  1
  O  O294  1  0.63501800  0.99781047  0.24935186  1
  O  O295  1  0.63415343  0.99351001  0.74560989  1
  O  O296  1  0.36455735  0.00220284  0.25494911  1
  O  O297  1  0.36926782  0.00306990  0.75671588  1
  O  O298  1  0.36413574  0.50657301  0.25013509  1
  O  O299  1  0.36779490  0.49966155  0.75623071  1
  O  O300  1  0.87030331  0.00655354  0.25638713  1
  O  O301  1  0.86421166  0.00062559  0.75102208  1
  O  O302  1  0.86864802  0.50665832  0.25487937  1
  O  O303  1  0.87491042  0.50675015  0.75676026  1
  O  O304  1  0.11110763  0.37513212  0.37036176  1
  O  O305  1  0.11883219  0.37080459  0.87013968  1
  O  O306  1  0.12007550  0.87056809  0.36981125  1
  O  O307  1  0.12082717  0.86977231  0.86925953  1
  O  O308  1  0.62570167  0.36882905  0.36523708  1
  O  O309  1  0.62022915  0.36966643  0.87107253  1
  O  O310  1  0.61662936  0.86652705  0.37610485  1
  O  O311  1  0.61903737  0.86786764  0.87109985  1
  O  O312  1  0.37116436  0.13707960  0.12447763  1
  O  O313  1  0.37318241  0.13568820  0.62612093  1
  O  O314  1  0.38170630  0.63240040  0.12902789  1
  O  O315  1  0.38542516  0.62963596  0.62536580  1
  O  O316  1  0.87941203  0.13081738  0.13012891  1
  O  O317  1  0.88283117  0.13140782  0.62735500  1
  O  O318  1  0.88006358  0.63155741  0.12975330  1
  O  O319  1  0.87812750  0.63177585  0.63167939  1
  O  O320  1  0.25545992  0.25646378  0.11958296  1
  O  O321  1  0.25475483  0.25511122  0.61975256  1
  O  O322  1  0.25824400  0.75517236  0.12510603  1
  O  O323  1  0.25569481  0.75446578  0.61776735  1
  O  O324  1  0.75574555  0.25562406  0.11942102  1
  O  O325  1  0.75481446  0.25398180  0.62047251  1
  O  O326  1  0.75675712  0.75481967  0.12008713  1
  O  O327  1  0.75791570  0.75127944  0.61783190  1
  O  O328  1  0.24730150  0.24204827  0.38012977  1
  O  O329  1  0.24290825  0.24524558  0.88086361  1
  O  O330  1  0.24478308  0.74555859  0.37946796  1
  O  O331  1  0.24397492  0.74310525  0.87456827  1
  O  O332  1  0.74516992  0.24387749  0.38143735  1
  O  O333  1  0.74404586  0.24470795  0.88084329  1
  O  O334  1  0.74466253  0.74612208  0.37935284  1
  O  O335  1  0.74636800  0.74445413  0.88147527  1
  O  O336  1  0.00415930  0.12121410  0.00563186  1
  O  O337  1  0.00479611  0.12028904  0.50476041  1
  O  O338  1  0.00404483  0.62060004  0.00396083  1
  O  O339  1  0.00815148  0.61897822  0.49928225  1
  O  O340  1  0.51221372  0.12521969  0.00063496  1
  O  O341  1  0.50685486  0.11599577  0.50162011  1
  O  O342  1  0.50646669  0.62480139  0.01008194  1
  O  O343  1  0.50274633  0.61568084  0.51060506  1
  O  O344  1  0.50010199  0.38672332  0.50043595  1
  O  O345  1  0.49319262  0.37626054  0.99384196  1
  O  O346  1  0.49631317  0.87843900  0.49253054  1
  O  O347  1  0.50010046  0.87310367  0.98886980  1
  O  O348  1  0.99816950  0.38153357  0.48918624  1
  O  O349  1  0.99314824  0.38018287  0.99464766  1
  O  O350  1  0.99615801  0.88134585  0.49345934  1
  O  O351  1  0.99615236  0.88065070  0.99494621  1
  O  O352  1  0.50022442  0.50047494  0.38713103  1
  O  O353  1  0.49309658  0.49267661  0.87628823  1
  O  O354  1  0.50081217  0.98835912  0.38233028  1
  O  O355  1  0.50155083  0.98570320  0.87785211  1
  O  O356  1  0.99479311  0.49407086  0.37745857  1
  O  O357  1  0.99410448  0.49437769  0.88020616  1
  O  O358  1  0.99498807  0.99623794  0.37999529  1
  O  O359  1  1.00121642  0.99421513  0.88137454  1
  O  O360  1  0.00466406  0.00649192  0.12025270  1
  O  O361  1  0.00590786  0.00546799  0.61889998  1
  O  O362  1  -0.00120596  0.50790966  0.11785530  1
  O  O363  1  0.00722593  0.50066441  0.61745526  1
  O  O364  1  0.50341500  0.00297076  0.12192732  1
  O  O365  1  0.50725440  -0.00162156  0.61893340  1
  O  O366  1  0.49908442  0.51337614  0.12394199  1
  O  O367  1  0.50526265  0.50572550  0.61865961  1
  O  O368  1  0.24857957  0.38575737  0.24449368  1
  O  O369  1  0.24252421  0.38037065  0.74447264  1
  O  O370  1  0.24304476  0.88073937  0.24552484  1
  O  O371  1  0.24336981  0.87415087  0.74164502  1
  O  O372  1  0.74200160  0.37955947  0.24526746  1
  O  O373  1  0.74327679  0.37645891  0.74339624  1
  O  O374  1  0.75138911  0.88207419  0.24393280  1
  O  O375  1  0.74484375  0.88384436  0.75068321  1
  O  O376  1  0.24790973  0.11998780  0.25946459  1
  O  O377  1  0.24796522  0.12550713  0.76288276  1
  O  O378  1  0.25478529  0.61883251  0.25405764  1
  O  O379  1  0.25098048  0.61705324  0.75634441  1
  O  O380  1  0.75575705  0.12068319  0.25640049  1
  O  O381  1  0.74928523  0.11398778  0.75623054  1
  O  O382  1  0.75573975  0.62043326  0.25477882  1
  O  O383  1  0.75799559  0.62381989  0.75767143  1
  O  O384  1  0.36054434  0.12421924  0.37623593  1
  O  O385  1  0.36083281  0.12894337  0.87720246  1
  O  O386  1  0.36858570  0.62465827  0.36827284  1
  O  O387  1  0.36964260  0.61834991  0.87422004  1
  O  O388  1  0.86968685  0.12016516  0.37018450  1
  O  O389  1  0.86621019  0.12188823  0.87235921  1
  O  O390  1  0.87060120  0.62120317  0.36761412  1
  O  O391  1  0.87034978  0.62072192  0.87030372  1
  O  O392  1  0.13244546  0.37998031  0.12663361  1
  O  O393  1  0.12955910  0.38081744  0.63043225  1
  O  O394  1  0.12866290  0.88054788  0.13127430  1
  O  O395  1  0.13084908  0.87986405  0.62864386  1
  O  O396  1  0.62990758  0.37338843  0.13422606  1
  O  O397  1  0.63060959  0.37831350  0.63117378  1
  O  O398  1  0.63408121  0.87386905  0.12759428  1
  O  O399  1  0.62823369  0.88025812  0.63178971  1
  O  O400  1  0.11435447  0.25361338  0.25129071  1
  O  O401  1  0.11859770  0.25733303  0.75519895  1
  O  O402  1  0.11965678  0.75581195  0.25510149  1
  O  O403  1  0.12043931  0.75567806  0.75407797  1
  O  O404  1  0.62634860  0.25913482  0.25703517  1
  O  O405  1  0.62524887  0.25577392  0.75767551  1
  O  O406  1  0.62491711  0.75317372  0.26426739  1
  O  O407  1  0.62613751  0.75579649  0.75679427  1
  O  O408  1  0.37308789  0.24938109  0.23830034  1
  O  O409  1  0.37386136  0.24766311  0.73817254  1
  O  O410  1  0.37577805  0.74346521  0.23922550  1
  O  O411  1  0.37993254  0.74477357  0.73929712  1
  O  O412  1  0.87817833  0.24461364  0.24394202  1
  O  O413  1  0.88199758  0.24812548  0.74378866  1
  O  O414  1  0.88084752  0.74522065  0.24504784  1
  O  O415  1  0.88143698  0.74601829  0.74499091  1
  O  O416  1  0.38637265  0.49780909  0.49952205  1
  O  O417  1  0.37586017  0.49291724  0.99269677  1
  O  O418  1  0.38224332  0.99176817  0.49752947  1
  O  O419  1  0.37725819  0.99462891  0.99279346  1
  O  O420  1  0.88198541  0.49999611  0.49223736  1
  O  O421  1  0.87975932  0.49450773  0.99406038  1
  O  O422  1  0.88080522  0.99601425  0.49501056  1
  O  O423  1  0.88206521  0.99337772  0.99899293  1
  O  O424  1  0.11824594  0.00647347  0.00704347  1
  O  O425  1  0.11861205  0.00560638  0.50511795  1
  O  O426  1  0.11676648  0.50750330  -0.00031110  1
  O  O427  1  0.12037066  0.50588941  0.50402859  1
  O  O428  1  0.62541511  0.01169034  0.00181545  1
  O  O429  1  0.62144226  0.00373931  0.50580528  1
  O  O430  1  0.62258187  0.50810159  0.00487631  1
  O  O431  1  0.61694036  0.50132692  0.50684779  1
  O  O432  1  0.36867525  0.36742484  0.11941588  1
  O  O433  1  0.36714469  0.36529872  0.62335008  1
  O  O434  1  0.36940044  0.86476205  0.12705634  1
  O  O435  1  0.37103422  0.86822928  0.61906609  1
  O  O436  1  0.86832023  0.36974907  0.11876220  1
  O  O437  1  0.86852418  0.36815834  0.62351909  1
  O  O438  1  0.87056461  0.86921823  0.11900880  1
  O  O439  1  0.87491045  0.86834301  0.61746610  1
  O  O440  1  0.13390842  0.12695873  0.38106618  1
  O  O441  1  0.13088113  0.13256837  0.88123106  1
  O  O442  1  0.13113634  0.63208105  0.37963990  1
  O  O443  1  0.13040026  0.63046119  0.87907289  1
  O  O444  1  0.63163850  0.12991127  0.38217518  1
  O  O445  1  0.63074664  0.13009293  0.88370303  1
  O  O446  1  0.63155224  0.63439286  0.37597256  1
  O  O447  1  0.63068036  0.62890232  0.88034602  1
