# generated using pymatgen
data_V3Zn3O8
_symmetry_space_group_name_H-M   'P 1'
_cell_length_a   17.07981110
_cell_length_b   17.08170324
_cell_length_c   17.08093657
_cell_angle_alpha   90.00320393
_cell_angle_beta   89.99643268
_cell_angle_gamma   89.99508592
_symmetry_Int_Tables_number   1
_chemical_formula_structural   V3Zn3O8
_chemical_formula_sum   'V96 Zn96 O256'
_cell_volume   4983.40188993
_cell_formula_units_Z   32
loop_
 _symmetry_equiv_pos_site_id
 _symmetry_equiv_pos_as_xyz
  1  'x, y, z'
loop_
 _atom_site_type_symbol
 _atom_site_label
 _atom_site_symmetry_multiplicity
 _atom_site_fract_x
 _atom_site_fract_y
 _atom_site_fract_z
 _atom_site_occupancy
  V  V0  1  0.62748519  0.62689347  0.49960284  1
  V  V1  1  -0.00101533  0.12538571  0.62668107  1
  V  V2  1  0.25008957  0.62442468  0.87489776  1
  V  V3  1  0.75022217  0.00014780  0.25057247  1
  V  V4  1  0.25017005  0.62419341  0.37442027  1
  V  V5  1  -0.00191531  0.25040054  0.24984074  1
  V  V6  1  0.87393836  0.25048907  0.12570770  1
  V  V7  1  0.25045497  0.87387176  0.12355580  1
  V  V8  1  0.87668903  0.87603515  0.50117518  1
  V  V9  1  0.37593608  0.62441754  0.75006409  1
  V  V10  1  0.37520341  -0.00024854  0.37339477  1
  V  V11  1  0.12635786  0.50094652  0.62438099  1
  V  V12  1  0.12538437  0.87442008  0.24932209  1
  V  V13  1  0.62371717  0.24989780  0.87499228  1
  V  V14  1  0.50139888  0.62555954  0.62477483  1
  V  V15  1  0.62513376  -0.00139493  0.12584028  1
  V  V16  1  0.50069772  0.49983600  0.50017665  1
  V  V17  1  0.25062770  0.00003751  0.25029803  1
  V  V18  1  0.00122770  0.75013613  0.24959664  1
  V  V19  1  0.12353766  0.49877953  0.12428220  1
  V  V20  1  0.50022368  0.49999555  -0.00010171  1
  V  V21  1  0.12343105  0.37471038  0.75023608  1
  V  V22  1  0.75017129  0.50037940  0.74812348  1
  V  V23  1  0.24944832  0.24949965  -0.00029454  1
  V  V24  1  0.50186559  0.75144641  0.74915419  1
  V  V25  1  0.87725917  0.75188144  0.62515199  1
  V  V26  1  0.62484441  0.87587554  0.74991991  1
  V  V27  1  0.62405033  0.62533281  0.00018886  1
  V  V28  1  0.87468116  0.37541149  0.50193144  1
  V  V29  1  0.87395398  0.62543226  0.24974013  1
  V  V30  1  0.12472846  0.12587299  -0.00061715  1
  V  V31  1  0.62510810  0.12548424  0.49986414  1
  V  V32  1  0.62347176  0.37438361  0.25189361  1
  V  V33  1  -0.00072567  0.37537763  0.37526548  1
  V  V34  1  0.00158066  0.75138291  0.75156154  1
  V  V35  1  0.37426148  0.87309780  -0.00031646  1
  V  V36  1  0.12672803  -0.00089963  0.62534113  1
  V  V37  1  0.62362208  0.12337633  0.00118942  1
  V  V38  1  0.87486504  0.00055221  0.87626885  1
  V  V39  1  0.49865190  0.24834723  0.25042093  1
  V  V40  1  0.12443124  0.62359418  -0.00021078  1
  V  V41  1  0.00284480  0.62659297  0.62477827  1
  V  V42  1  0.50085886  0.74928999  0.25074971  1
  V  V43  1  0.75041935  0.62689241  0.37528018  1
  V  V44  1  0.37453570  0.24800752  0.12514669  1
  V  V45  1  0.37475951  0.37401273  -0.00050308  1
  V  V46  1  0.62635732  0.50059532  0.62576429  1
  V  V47  1  0.12314341  0.25099918  0.87405819  1
  V  V48  1  0.87564520  0.50041220  0.87544486  1
  V  V49  1  0.50095593  -0.00012396  0.49909901  1
  V  V50  1  0.37476887  0.62378141  0.24757306  1
  V  V51  1  0.50052358  -0.00152120  0.00072212  1
  V  V52  1  0.74808191  0.49990319  0.24994800  1
  V  V53  1  0.12468511  0.25003365  0.37592700  1
  V  V54  1  0.24797106  0.37384604  0.12484772  1
  V  V55  1  0.49978843  0.25059828  0.75018310  1
  V  V56  1  0.25027027  0.87583712  0.62504657  1
  V  V57  1  0.37453655  0.25078487  0.62433991  1
  V  V58  1  0.37618976  0.75008416  0.62385707  1
  V  V59  1  0.87637930  0.62622827  0.75025572  1
  V  V60  1  0.00118037  0.87452855  0.87620240  1
  V  V61  1  0.62519397  -0.00001513  0.62514784  1
  V  V62  1  0.12503176  0.12529690  0.49978248  1
  V  V63  1  0.24962334  0.25007321  0.49971811  1
  V  V64  1  0.74937062  0.25005482  0.50005232  1
  V  V65  1  0.74936258  0.87530557  0.12656292  1
  V  V66  1  0.37345104  0.12387244  0.74989008  1
  V  V67  1  0.74827719  0.25006098  0.00036329  1
  V  V68  1  0.24967290  0.12433266  0.87409851  1
  V  V69  1  0.87322345  0.37588540  -0.00121419  1
  V  V70  1  0.25149859  0.74956947  0.49942012  1
  V  V71  1  0.87446039  0.74980857  0.12555795  1
  V  V72  1  0.37514088  0.50000790  0.87411078  1
  V  V73  1  0.50027765  0.37390589  0.87485690  1
  V  V74  1  0.87545561  0.12571179  0.74974231  1
  V  V75  1  0.12436265  0.37526620  0.24976562  1
  V  V76  1  0.75266424  0.75083048  0.50014934  1
  V  V77  1  0.87457315  0.87528702  0.00152677  1
  V  V78  1  0.37679145  0.87503765  0.49916499  1
  V  V79  1  0.00036895  0.00020925  0.50026747  1
  V  V80  1  0.87529484  0.00243125  0.37491192  1
  V  V81  1  0.87500778  0.50050726  0.37507072  1
  V  V82  1  0.12510015  0.00054846  0.12533629  1
  V  V83  1  0.37616701  0.49768075  0.37601042  1
  V  V84  1  0.24999560  0.37509197  0.62385529  1
  V  V85  1  0.74846358  0.37506645  0.12592348  1
  V  V86  1  0.12519891  0.74918222  0.87608509  1
  V  V87  1  0.74953291  0.12535755  0.87526258  1
  V  V88  1  0.74869496  0.75002196  0.00040569  1
  V  V89  1  0.12567446  0.75006443  0.37342540  1
  V  V90  1  0.50025361  0.87482368  0.87446192  1
  V  V91  1  -0.00005009  0.00064414  0.00089721  1
  V  V92  1  0.12573253  0.62515934  0.50008748  1
  V  V93  1  0.74896031  -0.00015885  0.75046309  1
  V  V94  1  -0.00103915  0.12672356  0.12555707  1
  V  V95  1  -0.00039280  0.62339265  0.12397340  1
  Zn  Zn96  1  -0.00137882  0.49857036  -0.00070412  1
  Zn  Zn97  1  0.75111578  0.87530428  0.62587803  1
  Zn  Zn98  1  0.49989329  0.37317165  0.37801048  1
  Zn  Zn99  1  0.62196506  0.24907893  0.37664752  1
  Zn  Zn100  1  0.75006363  0.62809858  0.87554708  1
  Zn  Zn101  1  0.62589502  0.37448869  0.74888359  1
  Zn  Zn102  1  0.00219925  0.87596908  0.37437682  1
  Zn  Zn103  1  0.37395185  0.12415088  0.24866995  1
  Zn  Zn104  1  0.87332590  0.12650701  0.25063881  1
  Zn  Zn105  1  0.24989608  0.12612450  0.37350964  1
  Zn  Zn106  1  0.62714026  0.75042996  0.87396595  1
  Zn  Zn107  1  0.49784271  0.62316977  0.12382177  1
  Zn  Zn108  1  0.37341972  0.74721794  0.12409427  1
  Zn  Zn109  1  0.62689683  0.75250349  0.37457385  1
  Zn  Zn110  1  0.74872887  0.12596118  0.37319676  1
  Zn  Zn111  1  -0.00316818  0.25016802  0.75021472  1
  Zn  Zn112  1  0.62437845  0.87381477  0.25224854  1
  Zn  Zn113  1  0.49897540  0.12624683  0.62464796  1
  Zn  Zn114  1  0.00052573  0.50120591  0.49975900  1
  Zn  Zn115  1  0.62130730  0.49974887  0.12548148  1
  Zn  Zn116  1  0.25097462  0.50009745  0.74938487  1
  Zn  Zn117  1  0.49856812  0.12180318  0.12602110  1
  Zn  Zn118  1  0.24947236  0.49866382  0.24978168  1
  Zn  Zn119  1  0.24985952  -0.00222171  0.75069804  1
  Zn  Zn120  1  0.50431168  0.87351174  0.37485568  1
  Zn  Zn121  1  0.25023646  0.74852364  0.00080807  1
  Zn  Zn122  1  0.74917285  0.37517806  0.62459652  1
  Zn  Zn123  1  0.12821026  0.87606062  0.75185787  1
  Zn  Zn124  1  0.37729245  0.37340657  0.50049426  1
  Zn  Zn125  1  -0.00105808  0.37405484  0.87520627  1
  Zn  Zn126  1  0.87533388  0.25062347  0.62715339  1
  Zn  Zn127  1  0.37334321  -0.00126724  0.87374200  1
  Zn  Zn128  1  0.18747319  0.18695100  0.18907933  1
  Zn  Zn129  1  0.18687138  0.18829985  0.68660459  1
  Zn  Zn130  1  0.18900291  0.68673409  0.18528699  1
  Zn  Zn131  1  0.18926412  0.68875128  0.68940909  1
  Zn  Zn132  1  0.68668502  0.18539696  0.18820893  1
  Zn  Zn133  1  0.68803700  0.18771852  0.68614134  1
  Zn  Zn134  1  0.68495757  0.68678773  0.18551288  1
  Zn  Zn135  1  0.68984911  0.68834106  0.68620276  1
  Zn  Zn136  1  0.31155629  0.31274399  0.31221945  1
  Zn  Zn137  1  0.31047200  0.31166775  0.81198483  1
  Zn  Zn138  1  0.31349558  0.81287254  0.31200878  1
  Zn  Zn139  1  0.31224686  0.81079425  0.81222717  1
  Zn  Zn140  1  0.81089183  0.31227463  0.31480860  1
  Zn  Zn141  1  0.81134338  0.31321543  0.81207035  1
  Zn  Zn142  1  0.81411789  0.81512376  0.31380088  1
  Zn  Zn143  1  0.81202287  0.81333844  0.81400250  1
  Zn  Zn144  1  0.18833064  0.43714177  0.43844617  1
  Zn  Zn145  1  0.18797058  0.43876125  0.93687344  1
  Zn  Zn146  1  0.18891554  0.93710208  0.43732470  1
  Zn  Zn147  1  0.18850872  0.93867594  0.93663290  1
  Zn  Zn148  1  0.68739220  0.43872184  0.43636883  1
  Zn  Zn149  1  0.68726444  0.43839682  0.93591002  1
  Zn  Zn150  1  0.68885024  0.93501620  0.43653665  1
  Zn  Zn151  1  0.68641016  0.93650287  0.93761029  1
  Zn  Zn152  1  0.31364962  0.06162441  0.06273268  1
  Zn  Zn153  1  0.31157465  0.06337596  0.56127346  1
  Zn  Zn154  1  0.30997121  0.55963408  0.06147675  1
  Zn  Zn155  1  0.31284427  0.56187054  0.56276785  1
  Zn  Zn156  1  0.81173904  0.06352753  0.06400909  1
  Zn  Zn157  1  0.81162881  0.06266225  0.56399338  1
  Zn  Zn158  1  0.80907030  0.56199632  0.06325456  1
  Zn  Zn159  1  0.81431332  0.56465523  0.56312181  1
  Zn  Zn160  1  0.43761035  0.43621185  0.18574436  1
  Zn  Zn161  1  0.43844464  0.43681696  0.68765546  1
  Zn  Zn162  1  0.43821038  0.93418799  0.18679974  1
  Zn  Zn163  1  0.43856590  0.93899082  0.68549991  1
  Zn  Zn164  1  0.93619985  0.43729608  0.18739083  1
  Zn  Zn165  1  0.93977767  0.43959734  0.68565179  1
  Zn  Zn166  1  0.93798886  0.93785975  0.18873044  1
  Zn  Zn167  1  0.93904388  0.93820437  0.68894826  1
  Zn  Zn168  1  0.06178217  0.06414563  0.31239614  1
  Zn  Zn169  1  0.06330928  0.06148434  0.81105063  1
  Zn  Zn170  1  0.06139096  0.56157731  0.31181711  1
  Zn  Zn171  1  0.06273741  0.56190960  0.81166293  1
  Zn  Zn172  1  0.56310464  0.06202592  0.31303224  1
  Zn  Zn173  1  0.55992207  0.06198118  0.81383492  1
  Zn  Zn174  1  0.56240900  0.56372733  0.31468434  1
  Zn  Zn175  1  0.56333327  0.56354703  0.81439635  1
  Zn  Zn176  1  0.43688661  0.18589490  0.43667153  1
  Zn  Zn177  1  0.43743117  0.18578739  0.93712007  1
  Zn  Zn178  1  0.43916302  0.68562141  0.43562762  1
  Zn  Zn179  1  0.43899311  0.68852932  0.93491278  1
  Zn  Zn180  1  0.93783785  0.18732374  0.43870015  1
  Zn  Zn181  1  0.93751982  0.18947133  0.93676829  1
  Zn  Zn182  1  0.93931168  0.68865830  0.43714518  1
  Zn  Zn183  1  0.93755198  0.68683936  0.93812047  1
  Zn  Zn184  1  0.05946718  0.31405345  0.06070674  1
  Zn  Zn185  1  0.06100054  0.31102755  0.56400250  1
  Zn  Zn186  1  0.06311935  0.81118924  0.06228283  1
  Zn  Zn187  1  0.06387472  0.81401784  0.56177561  1
  Zn  Zn188  1  0.56101189  0.31166608  0.06418716  1
  Zn  Zn189  1  0.56192982  0.31459414  0.56536775  1
  Zn  Zn190  1  0.56085357  0.81047865  0.06649030  1
  Zn  Zn191  1  0.56479807  0.81403056  0.56174924  1
  O  O192  1  0.11919092  0.12068085  0.11880323  1
  O  O193  1  0.11982214  0.11938684  0.61908561  1
  O  O194  1  0.11968780  0.61872460  0.12021321  1
  O  O195  1  0.12241103  0.62156998  0.62011486  1
  O  O196  1  0.62395989  0.11716575  0.11733783  1
  O  O197  1  0.62359077  0.11979416  0.61456591  1
  O  O198  1  0.62199714  0.62116156  0.11227245  1
  O  O199  1  0.62033339  0.62024053  0.61932759  1
  O  O200  1  0.37551945  0.38793643  0.37551023  1
  O  O201  1  0.37944222  0.37889905  0.88034342  1
  O  O202  1  0.37555301  0.88482012  0.38097332  1
  O  O203  1  0.38044132  0.87557853  0.88325574  1
  O  O204  1  0.87905801  0.38046830  0.38299541  1
  O  O205  1  0.87369920  0.38496321  0.87952079  1
  O  O206  1  0.87879982  0.88632895  0.38130481  1
  O  O207  1  0.88085166  0.88121516  0.88261546  1
  O  O208  1  0.25959698  -0.00041320  0.36944471  1
  O  O209  1  0.25238294  0.00906805  0.87205988  1
  O  O210  1  0.25960105  0.50550193  0.37417466  1
  O  O211  1  0.25794298  0.50627691  0.87304258  1
  O  O212  1  0.76100296  0.00048287  0.37022387  1
  O  O213  1  0.75524191  0.00601634  0.87136175  1
  O  O214  1  0.75568472  0.50692561  0.36911106  1
  O  O215  1  0.75934514  0.50221735  0.86542240  1
  O  O216  1  0.24201436  0.49085578  0.12622671  1
  O  O217  1  0.24422735  0.49382128  0.62610211  1
  O  O218  1  0.24356505  0.99433019  0.13001252  1
  O  O219  1  0.24431897  0.99303366  0.62397025  1
  O  O220  1  0.74737963  0.49222073  0.13299777  1
  O  O221  1  0.74628193  0.50235222  0.63417446  1
  O  O222  1  0.74601857  0.99449184  0.13042275  1
  O  O223  1  0.74325693  0.99906838  0.63306689  1
  O  O224  1  0.00389508  0.36960024  0.25565715  1
  O  O225  1  0.01258695  0.37419635  0.74995018  1
  O  O226  1  0.00779152  0.86796503  0.24975740  1
  O  O227  1  0.00133500  0.86891442  0.75902048  1
  O  O228  1  0.50782192  0.36636497  0.25000617  1
  O  O229  1  0.50122957  0.36841397  0.75780940  1
  O  O230  1  0.49941041  0.86162549  0.25204173  1
  O  O231  1  0.50469796  0.87099791  0.75399102  1
  O  O232  1  0.49975747  0.13704351  0.24809133  1
  O  O233  1  0.48930894  0.13142667  0.75006770  1
  O  O234  1  0.48975395  0.62975953  0.24965033  1
  O  O235  1  0.49615610  0.63074446  0.74426871  1
  O  O236  1  0.99862452  0.13298300  0.24266601  1
  O  O237  1  0.99271236  0.12444310  0.74454266  1
  O  O238  1  0.99360954  0.63051371  0.24411407  1
  O  O239  1  0.99578792  0.63173080  0.74453893  1
  O  O240  1  0.36905956  0.25477126  0.00427376  1
  O  O241  1  0.36867483  0.25029979  0.50587987  1
  O  O242  1  0.37464619  0.76164320  0.00075518  1
  O  O243  1  0.37126672  0.75380612  0.50427155  1
  O  O244  1  0.86729371  0.25560142  0.00484259  1
  O  O245  1  0.86681227  0.25908361  0.49974693  1
  O  O246  1  0.87001805  0.75544561  0.00683166  1
  O  O247  1  0.87297641  0.75569473  0.50546238  1
  O  O248  1  0.12906202  0.24514835  0.49492760  1
  O  O249  1  0.12989844  0.24525982  0.99499043  1
  O  O250  1  0.13185734  0.74482445  0.49383828  1
  O  O251  1  0.12540226  0.74177866  0.99360291  1
  O  O252  1  0.63117766  0.24311858  0.50042666  1
  O  O253  1  0.62940197  0.24417122  0.99562638  1
  O  O254  1  0.63392120  0.74351185  0.50061749  1
  O  O255  1  0.62961778  0.74159600  1.00059355  1
  O  O256  1  0.49321228  0.24913742  0.13456578  1
  O  O257  1  0.49297521  0.24899704  0.63211763  1
  O  O258  1  0.49440813  0.74449406  0.13675452  1
  O  O259  1  0.49506610  0.74496676  0.62901005  1
  O  O260  1  0.99349042  0.24612150  0.12988418  1
  O  O261  1  0.99665256  0.24036996  0.62773178  1
  O  O262  1  0.99413077  0.74375154  0.13030712  1
  O  O263  1  0.99685840  0.74576792  0.63119735  1
  O  O264  1  0.00442690  0.25578509  0.37006234  1
  O  O265  1  0.00767771  0.25329311  0.87203175  1
  O  O266  1  0.00762933  0.75107081  0.36703909  1
  O  O267  1  0.00472699  0.75502866  0.87116732  1
  O  O268  1  0.49934092  0.25284055  0.36413542  1
  O  O269  1  0.50483296  0.25493814  0.87070612  1
  O  O270  1  0.50129794  0.74907508  0.36394115  1
  O  O271  1  0.50228678  0.75738109  0.86582921  1
  O  O272  1  0.24220794  0.13248112  0.49824886  1
  O  O273  1  0.24397830  0.13010952  0.99508075  1
  O  O274  1  0.24571209  0.63109347  0.49442383  1
  O  O275  1  0.24316026  0.62534396  0.99291783  1
  O  O276  1  0.74165974  0.13308550  0.50044381  1
  O  O277  1  0.74433686  0.13028420  0.99441850  1
  O  O278  1  0.74768224  0.63093829  0.49478248  1
  O  O279  1  0.74078799  0.63109731  1.00034153  1
  O  O280  1  0.25502493  0.36833680  0.00454748  1
  O  O281  1  0.25112980  0.36768952  0.50707473  1
  O  O282  1  0.25932241  0.87505091  0.00428891  1
  O  O283  1  0.25688661  0.86809401  0.50492139  1
  O  O284  1  0.75298170  0.36935394  0.00552331  1
  O  O285  1  0.75816562  0.36853824  0.49917375  1
  O  O286  1  0.75571477  0.87070337  0.00636935  1
  O  O287  1  0.75919550  0.86871341  0.50301635  1
  O  O288  1  0.12589360  0.49276262  0.24362168  1
  O  O289  1  0.12714953  0.49111659  0.74396963  1
  O  O290  1  0.12938936  0.99472619  0.24447990  1
  O  O291  1  0.12826651  0.99737448  0.74117811  1
  O  O292  1  0.62901791  0.49119643  0.24967529  1
  O  O293  1  0.63557672  0.50238721  0.74586983  1
  O  O294  1  0.63182347  0.99860453  0.24386032  1
  O  O295  1  0.62919296  0.99650447  0.74530147  1
  O  O296  1  0.37060170  -0.00151869  0.25820732  1
  O  O297  1  0.37424564  0.01276682  0.74995866  1
  O  O298  1  0.37508775  0.50715326  0.25850579  1
  O  O299  1  0.37518296  0.50687288  0.75634949  1
  O  O300  1  0.87103046  0.00133782  0.25910827  1
  O  O301  1  0.86934844  0.00504053  0.75776600  1
  O  O302  1  0.86839206  0.50529790  0.25553882  1
  O  O303  1  0.86908055  0.50546159  0.75533066  1
  O  O304  1  0.11878799  0.37025307  0.37048673  1
  O  O305  1  0.12518827  0.37091294  0.86559466  1
  O  O306  1  0.12524566  0.86820868  0.36764117  1
  O  O307  1  0.11831639  0.86827978  0.87666057  1
  O  O308  1  0.62358091  0.37364811  0.36275597  1
  O  O309  1  0.61843033  0.36759128  0.87379638  1
  O  O310  1  0.62249849  0.87027611  0.37075269  1
  O  O311  1  0.61806274  0.87386644  0.86812047  1
  O  O312  1  0.37743467  0.13233175  0.12706250  1
  O  O313  1  0.37489010  0.13162014  0.63415796  1
  O  O314  1  0.37328298  0.62304815  0.13649736  1
  O  O315  1  0.38147374  0.63051498  0.62938350  1
  O  O316  1  0.88133451  0.13275534  0.12541949  1
  O  O317  1  0.88118541  0.12421525  0.63227598  1
  O  O318  1  0.87859667  0.63012144  0.13067053  1
  O  O319  1  0.88335508  0.63157577  0.63032022  1
  O  O320  1  0.25368861  0.25456771  0.11892665  1
  O  O321  1  0.25438788  0.25579079  0.61881512  1
  O  O322  1  0.25234334  0.75831358  0.12145810  1
  O  O323  1  0.25703746  0.75443926  0.61853103  1
  O  O324  1  0.75414213  0.25533571  0.11963965  1
  O  O325  1  0.75188739  0.25289160  0.61256743  1
  O  O326  1  0.75595904  0.75535635  0.12068251  1
  O  O327  1  0.76027572  0.75108343  0.61862929  1
  O  O328  1  0.24255466  0.24982476  0.38110442  1
  O  O329  1  0.24341976  0.24454295  0.88139915  1
  O  O330  1  0.24575501  0.74397426  0.37978366  1
  O  O331  1  0.24340134  0.74215902  0.87673628  1
  O  O332  1  0.74695189  0.24756330  0.38798200  1
  O  O333  1  0.74400109  0.24479854  0.88095064  1
  O  O334  1  0.75297451  0.74334005  0.38193512  1
  O  O335  1  0.74850951  0.74846152  0.88435301  1
  O  O336  1  0.00515706  0.12058171  0.00550291  1
  O  O337  1  0.00543458  0.11944824  0.50645570  1
  O  O338  1  0.00548343  0.62262822  0.00733324  1
  O  O339  1  0.00810020  0.62562884  0.50663564  1
  O  O340  1  0.50640974  0.11745084  0.00083669  1
  O  O341  1  0.50998681  0.12000782  0.50132099  1
  O  O342  1  0.50727179  0.61957606  -0.00074105  1
  O  O343  1  0.50679163  0.62028985  0.50606899  1
  O  O344  1  0.49807318  0.38385346  0.49737538  1
  O  O345  1  0.49410591  0.37861766  0.99424110  1
  O  O346  1  0.49356276  0.88145175  0.49842066  1
  O  O347  1  0.49278949  0.87808677  0.99551366  1
  O  O348  1  0.98998442  0.37558409  0.49405938  1
  O  O349  1  0.98907829  0.37861413  0.99682186  1
  O  O350  1  0.99476728  0.88242773  0.49786297  1
  O  O351  1  0.99396899  0.88100935  0.99679943  1
  O  O352  1  0.49033817  0.50095973  0.38124633  1
  O  O353  1  0.49445075  0.49379556  0.87986968  1
  O  O354  1  0.49058161  0.99860995  0.37996809  1
  O  O355  1  0.49753393  0.99235435  0.88244106  1
  O  O356  1  0.99281739  0.49375708  0.37649916  1
  O  O357  1  0.98578131  0.49865844  0.87438391  1
  O  O358  1  0.99163271  0.99972903  0.38074672  1
  O  O359  1  0.99485718  0.99539542  0.88223433  1
  O  O360  1  0.00520818  0.00591193  0.11992826  1
  O  O361  1  0.00606170  0.00528069  0.61928992  1
  O  O362  1  0.00468321  0.50624952  0.12428842  1
  O  O363  1  0.00804259  0.50914092  0.62251665  1
  O  O364  1  0.50715158  -0.00079855  0.11895408  1
  O  O365  1  0.50716431  0.00371602  0.61702670  1
  O  O366  1  0.50072028  0.50096363  0.11511879  1
  O  O367  1  0.50579081  0.50674355  0.62071038  1
  O  O368  1  0.24190990  0.37512005  0.24270233  1
  O  O369  1  0.23919900  0.37541571  0.74352746  1
  O  O370  1  0.24472277  0.87992178  0.24365896  1
  O  O371  1  0.24993764  0.87624956  0.74081764  1
  O  O372  1  0.74163140  0.37890944  0.24648770  1
  O  O373  1  0.74963303  0.38858224  0.74705837  1
  O  O374  1  0.75081148  0.88148268  0.24262245  1
  O  O375  1  0.74373707  0.88245538  0.75004990  1
  O  O376  1  0.25184112  0.11609043  0.25292547  1
  O  O377  1  0.25960859  0.12675699  0.75502896  1
  O  O378  1  0.25897211  0.62298675  0.25573258  1
  O  O379  1  0.25850713  0.62354022  0.75611270  1
  O  O380  1  0.75288129  0.11706051  0.25348439  1
  O  O381  1  0.75465696  0.11951957  0.75655969  1
  O  O382  1  0.75507704  0.62021962  0.25439970  1
  O  O383  1  0.75731387  0.61627840  0.75091818  1
  O  O384  1  0.37266144  0.11094690  0.37338810  1
  O  O385  1  0.36853406  0.12539718  0.86553448  1
  O  O386  1  0.37007632  0.61615113  0.36773953  1
  O  O387  1  0.37086889  0.61980271  0.86946028  1
  O  O388  1  0.87386407  0.11317716  0.37560910  1
  O  O389  1  0.86896780  0.11950864  0.87156747  1
  O  O390  1  0.87076190  0.62026890  0.36925923  1
  O  O391  1  0.87395089  0.61660889  0.86933926  1
  O  O392  1  0.12827832  0.37855911  0.12976201  1
  O  O393  1  0.12938149  0.37980982  0.63148926  1
  O  O394  1  0.12980578  0.88122647  0.12893551  1
  O  O395  1  0.13281927  0.88079260  0.62519800  1
  O  O396  1  0.63002650  0.37482526  0.13599093  1
  O  O397  1  0.62836968  0.38553459  0.62845221  1
  O  O398  1  0.63239864  0.88084738  0.12679218  1
  O  O399  1  0.62724396  0.88267560  0.63197517  1
  O  O400  1  0.11816486  0.25611432  0.25533301  1
  O  O401  1  0.12420168  0.25959787  0.75511961  1
  O  O402  1  0.12081657  0.75439886  0.25384492  1
  O  O403  1  0.11845676  0.75129877  0.75784632  1
  O  O404  1  0.61722328  0.25752751  0.25120169  1
  O  O405  1  0.61901161  0.24974504  0.75686497  1
  O  O406  1  0.61373240  0.74792744  0.25120218  1
  O  O407  1  0.61932780  0.75669950  0.74894342  1
  O  O408  1  0.38313134  0.25026958  0.24470503  1
  O  O409  1  0.37866675  0.24223407  0.74546761  1
  O  O410  1  0.38106953  0.73801784  0.25152052  1
  O  O411  1  0.38214535  0.74429970  0.74296038  1
  O  O412  1  0.88012837  0.25044061  0.24439108  1
  O  O413  1  0.87503046  0.24233704  0.74813827  1
  O  O414  1  0.88023196  0.74486943  0.24473040  1
  O  O415  1  0.88143853  0.74578506  0.74595850  1
  O  O416  1  0.38143666  0.50108043  0.49064421  1
  O  O417  1  0.38009902  0.49329559  0.99365757  1
  O  O418  1  0.38012846  0.99544178  0.49283343  1
  O  O419  1  0.38083986  0.98870063  0.99883429  1
  O  O420  1  0.87542358  0.49139396  0.49393756  1
  O  O421  1  0.87160801  0.49568802  0.99004488  1
  O  O422  1  0.87979888  0.99636378  0.49352064  1
  O  O423  1  0.88017141  0.99544253  0.99594435  1
  O  O424  1  0.11927518  0.00630935  0.00579522  1
  O  O425  1  0.12006861  0.00497764  0.50435949  1
  O  O426  1  0.12180404  0.50526995  0.00580047  1
  O  O427  1  0.12406810  0.50747263  0.50578025  1
  O  O428  1  0.62020558  0.00386945  0.00561349  1
  O  O429  1  0.62217747  0.00736342  0.50453742  1
  O  O430  1  0.61942093  0.50814492  -0.00064855  1
  O  O431  1  0.62169262  0.50726859  0.50544898  1
  O  O432  1  0.36816557  0.36855895  0.11870482  1
  O  O433  1  0.36802732  0.36877096  0.62480905  1
  O  O434  1  0.36882741  0.87373598  0.11468466  1
  O  O435  1  0.37101136  0.86931528  0.61848676  1
  O  O436  1  0.86774691  0.36980098  0.11996823  1
  O  O437  1  0.87379693  0.37533716  0.61260335  1
  O  O438  1  0.87050458  0.86970457  0.11998574  1
  O  O439  1  0.87592135  0.86923160  0.61953347  1
  O  O440  1  0.12488469  0.13241773  0.38210744  1
  O  O441  1  0.12937651  0.13017165  0.88049391  1
  O  O442  1  0.13060403  0.62985057  0.37914561  1
  O  O443  1  0.12944762  0.62869833  0.87977614  1
  O  O444  1  0.62689754  0.12569116  0.38884992  1
  O  O445  1  0.63022202  0.12985413  0.88111830  1
  O  O446  1  0.63368307  0.62632360  0.38234865  1
  O  O447  1  0.62740254  0.62773373  0.88737806  1
