# generated using pymatgen
data_V3Zn3O8
_symmetry_space_group_name_H-M   'P 1'
_cell_length_a   17.08857041
_cell_length_b   17.08842723
_cell_length_c   17.09100019
_cell_angle_alpha   90.00766025
_cell_angle_beta   90.00464136
_cell_angle_gamma   89.99212116
_symmetry_Int_Tables_number   1
_chemical_formula_structural   V3Zn3O8
_chemical_formula_sum   'V96 Zn96 O256'
_cell_volume   4990.85893656
_cell_formula_units_Z   32
loop_
 _symmetry_equiv_pos_site_id
 _symmetry_equiv_pos_as_xyz
  1  'x, y, z'
loop_
 _atom_site_type_symbol
 _atom_site_label
 _atom_site_symmetry_multiplicity
 _atom_site_fract_x
 _atom_site_fract_y
 _atom_site_fract_z
 _atom_site_occupancy
  V  V0  1  0.12605178  0.50007740  0.12430662  1
  V  V1  1  0.87597525  0.62585518  0.74919388  1
  V  V2  1  0.87386539  0.37544980  0.49943848  1
  V  V3  1  0.62441215  0.37451940  0.75065974  1
  V  V4  1  0.62362514  0.12500451  0.50006340  1
  V  V5  1  0.87465980  0.50053208  0.37358459  1
  V  V6  1  0.37419355  0.12355756  0.24954328  1
  V  V7  1  0.37417292  0.25036481  0.62505583  1
  V  V8  1  0.87645418  0.74894746  0.12494955  1
  V  V9  1  0.24963602  -0.00042708  0.74848641  1
  V  V10  1  0.00171093  0.75108264  0.74933694  1
  V  V11  1  0.62535291  0.12522683  0.00113635  1
  V  V12  1  0.00080767  0.87395472  0.37401929  1
  V  V13  1  0.37410132  0.49923515  0.37565926  1
  V  V14  1  0.49980643  0.87467736  0.37472428  1
  V  V15  1  0.75074099  0.87387160  0.12497282  1
  V  V16  1  0.37428293  0.37564236  0.50036468  1
  V  V17  1  0.75027392  0.62587250  0.87496220  1
  V  V18  1  0.12523025  0.24960372  0.87502503  1
  V  V19  1  0.87409052  0.00025562  0.37610734  1
  V  V20  1  0.12607410  0.87554249  0.74913125  1
  V  V21  1  0.24787521  0.24965981  0.49927129  1
  V  V22  1  0.00062990  0.37580327  0.87366321  1
  V  V23  1  0.37439917  0.24804609  0.12559153  1
  V  V24  1  -0.00055331  0.37505850  0.37454245  1
  V  V25  1  0.62404610  0.49842605  0.12434060  1
  V  V26  1  0.37487624  0.62450045  0.24973947  1
  V  V27  1  0.87363439  0.87581570  0.50166338  1
  V  V28  1  0.75122817  0.12461304  0.87613753  1
  V  V29  1  0.37529050  0.12558399  0.74877769  1
  V  V30  1  0.24875918  0.12550132  0.87497972  1
  V  V31  1  0.12419150  0.00088484  0.12658662  1
  V  V32  1  0.50076815  0.74899822  0.24919270  1
  V  V33  1  0.75045428  0.74898406  -0.00066890  1
  V  V34  1  -0.00092384  0.12532344  0.62552430  1
  V  V35  1  0.24978973  -0.00071858  0.25043403  1
  V  V36  1  0.37714089  0.37572967  -0.00142035  1
  V  V37  1  0.87362832  0.37440204  0.00199075  1
  V  V38  1  0.37541496  -0.00002029  0.87377077  1
  V  V39  1  0.12455423  0.37408227  0.24947365  1
  V  V40  1  0.87495672  0.12641767  0.24988909  1
  V  V41  1  0.00045821  0.62508530  0.62376326  1
  V  V42  1  0.50028304  0.75005376  0.74934782  1
  V  V43  1  -0.00038122  0.00100164  0.50193912  1
  V  V44  1  0.49881397  0.12484707  0.62399695  1
  V  V45  1  0.00173874  0.50131649  -0.00163511  1
  V  V46  1  0.87592433  0.87486184  -0.00010806  1
  V  V47  1  0.75002125  -0.00009807  0.25031775  1
  V  V48  1  0.62680113  0.62575852  0.49871474  1
  V  V49  1  0.62632006  0.74872001  0.37442208  1
  V  V50  1  0.62524717  -0.00064781  0.12504981  1
  V  V51  1  0.87540068  0.62382366  0.24987514  1
  V  V52  1  0.37468466  0.75022130  0.12438336  1
  V  V53  1  0.37459294  -0.00037771  0.37422661  1
  V  V54  1  0.49974680  -0.00102254  -0.00114150  1
  V  V55  1  0.37537923  0.74984346  0.62458968  1
  V  V56  1  0.12504240  0.49998313  0.62452436  1
  V  V57  1  0.50010675  0.87536888  0.87427888  1
  V  V58  1  0.49972470  0.37379400  0.37568884  1
  V  V59  1  0.00091756  0.87545617  0.87531040  1
  V  V60  1  0.75007192  0.87597282  0.62605432  1
  V  V61  1  0.24941375  0.37652308  0.62576428  1
  V  V62  1  0.74829440  0.12485205  0.37614997  1
  V  V63  1  0.75055195  0.50040652  0.74925170  1
  V  V64  1  0.50151409  0.62570902  0.62572212  1
  V  V65  1  0.50081480  0.62357135  0.12466711  1
  V  V66  1  -0.00133435  0.25035947  0.74908205  1
  V  V67  1  0.12559786  0.37627816  0.74918903  1
  V  V68  1  0.49891734  -0.00013377  0.49890075  1
  V  V69  1  0.62578170  0.87343369  0.24959055  1
  V  V70  1  0.12719392  0.62587440  -0.00091154  1
  V  V71  1  0.74959924  0.00023687  0.75168986  1
  V  V72  1  0.62326355  0.25143019  0.87569283  1
  V  V73  1  0.62542723  0.50087198  0.62477087  1
  V  V74  1  0.62588964  0.74951425  0.87525539  1
  V  V75  1  -0.00017748  0.50079133  0.49989023  1
  V  V76  1  0.87606115  0.50084477  0.87386235  1
  V  V77  1  0.87500158  0.75196483  0.62509193  1
  V  V78  1  0.49926277  0.12339015  0.12591994  1
  V  V79  1  0.25077408  0.37291180  0.12507901  1
  V  V80  1  0.24979474  0.74962349  0.49829313  1
  V  V81  1  0.74929404  0.37481293  0.62457872  1
  V  V82  1  -0.00151360  0.24912119  0.24952647  1
  V  V83  1  0.24972687  0.49951651  0.25020027  1
  V  V84  1  0.62524703  0.37385217  0.25088378  1
  V  V85  1  0.87434865  0.24970849  0.62592220  1
  V  V86  1  0.25025943  0.87508093  0.12521594  1
  V  V87  1  0.00085362  0.62627323  0.12377066  1
  V  V88  1  0.74839589  0.24908608  0.50044437  1
  V  V89  1  0.25082015  0.75002748  0.00021613  1
  V  V90  1  0.62555964  0.87547245  0.74944392  1
  V  V91  1  0.00062890  0.00163659  0.00065249  1
  V  V92  1  0.12433732  0.00021089  0.62529198  1
  V  V93  1  0.24918999  0.62531624  0.37471241  1
  V  V94  1  0.12471176  0.24889018  0.37599290  1
  V  V95  1  0.12798280  0.74956280  0.87501260  1
  Zn  Zn96  1  0.87439584  0.12483245  0.75122011  1
  Zn  Zn97  1  0.50002674  0.24690477  0.25121270  1
  Zn  Zn98  1  0.87637725  0.00131805  0.87555103  1
  Zn  Zn99  1  0.49971849  0.50089361  -0.00355505  1
  Zn  Zn100  1  0.49908651  0.37743928  0.87406731  1
  Zn  Zn101  1  0.62357465  0.00001971  0.62480098  1
  Zn  Zn102  1  0.37461741  0.87478648  -0.00118846  1
  Zn  Zn103  1  0.24832370  0.24778394  0.00039421  1
  Zn  Zn104  1  0.49976763  0.50000004  0.50143315  1
  Zn  Zn105  1  0.75030744  0.37355977  0.12664393  1
  Zn  Zn106  1  0.75113660  0.62537943  0.37444871  1
  Zn  Zn107  1  0.37420573  0.62297043  0.75377725  1
  Zn  Zn108  1  -0.00176589  0.12759571  0.12469266  1
  Zn  Zn109  1  0.49894085  0.25090185  0.74983242  1
  Zn  Zn110  1  0.12512949  0.12457764  0.49965363  1
  Zn  Zn111  1  0.37746101  0.50149395  0.87132406  1
  Zn  Zn112  1  0.75036343  0.25101747  0.00377527  1
  Zn  Zn113  1  0.62444699  0.62260199  -0.00039762  1
  Zn  Zn114  1  0.00208394  0.75127206  0.25022705  1
  Zn  Zn115  1  0.62420038  0.24956215  0.37465344  1
  Zn  Zn116  1  0.24793121  0.12322700  0.37633602  1
  Zn  Zn117  1  0.37440053  0.87586687  0.49900432  1
  Zn  Zn118  1  0.25023697  0.87524444  0.62277181  1
  Zn  Zn119  1  0.12482872  0.12736878  0.00027802  1
  Zn  Zn120  1  0.75049780  0.49890474  0.25030735  1
  Zn  Zn121  1  0.25320618  0.50296907  0.75200703  1
  Zn  Zn122  1  0.12453629  0.87351015  0.25191937  1
  Zn  Zn123  1  0.12403095  0.62533040  0.49823329  1
  Zn  Zn124  1  0.87360255  0.24979361  0.12579622  1
  Zn  Zn125  1  0.12386599  0.74902438  0.37336511  1
  Zn  Zn126  1  0.25473284  0.62213568  0.87392629  1
  Zn  Zn127  1  0.75073902  0.75181078  0.49859192  1
  Zn  Zn128  1  0.18747477  0.18605558  0.18862606  1
  Zn  Zn129  1  0.18622995  0.18768704  0.68720369  1
  Zn  Zn130  1  0.18578560  0.69006095  0.18917568  1
  Zn  Zn131  1  0.18914307  0.68491155  0.68699961  1
  Zn  Zn132  1  0.68941048  0.19023554  0.18720954  1
  Zn  Zn133  1  0.68531419  0.18660164  0.68828624  1
  Zn  Zn134  1  0.68899211  0.68507611  0.18696749  1
  Zn  Zn135  1  0.68856871  0.68931501  0.68718702  1
  Zn  Zn136  1  0.31182456  0.30979627  0.31216115  1
  Zn  Zn137  1  0.31124313  0.31279556  0.81289004  1
  Zn  Zn138  1  0.31287585  0.81323391  0.31159274  1
  Zn  Zn139  1  0.31264422  0.81191137  0.81164881  1
  Zn  Zn140  1  0.81088343  0.31178107  0.31320164  1
  Zn  Zn141  1  0.81129764  0.31209742  0.81353749  1
  Zn  Zn142  1  0.81342256  0.81056694  0.31325292  1
  Zn  Zn143  1  0.81396510  0.81385726  0.81329739  1
  Zn  Zn144  1  0.18651419  0.43690329  0.43819880  1
  Zn  Zn145  1  0.19227485  0.43700128  0.93612717  1
  Zn  Zn146  1  0.18724025  0.93746391  0.43896481  1
  Zn  Zn147  1  0.18829935  0.93726055  0.93810213  1
  Zn  Zn148  1  0.68899622  0.44017006  0.43609763  1
  Zn  Zn149  1  0.68801792  0.43871084  0.93783460  1
  Zn  Zn150  1  0.68582916  0.93773184  0.43861890  1
  Zn  Zn151  1  0.68699616  0.93685220  0.93739929  1
  Zn  Zn152  1  0.31159167  0.06194409  0.06023360  1
  Zn  Zn153  1  0.31162366  0.06351026  0.56082696  1
  Zn  Zn154  1  0.31286877  0.56151831  0.06129654  1
  Zn  Zn155  1  0.31227704  0.56341381  0.56375648  1
  Zn  Zn156  1  0.81333531  0.06335435  0.06386147  1
  Zn  Zn157  1  0.81157883  0.06241671  0.56430658  1
  Zn  Zn158  1  0.81044726  0.55986016  0.06309260  1
  Zn  Zn159  1  0.81227479  0.56314884  0.56173955  1
  Zn  Zn160  1  0.43818809  0.43590441  0.18710022  1
  Zn  Zn161  1  0.43925488  0.43854889  0.68917802  1
  Zn  Zn162  1  0.43683036  0.93670990  0.18724401  1
  Zn  Zn163  1  0.43709639  0.93712845  0.68603235  1
  Zn  Zn164  1  0.94000624  0.43849319  0.18583137  1
  Zn  Zn165  1  0.93796857  0.43747180  0.68614210  1
  Zn  Zn166  1  0.93654522  0.93859298  0.18836679  1
  Zn  Zn167  1  0.93614774  0.93970609  0.68997682  1
  Zn  Zn168  1  0.06185419  0.06310243  0.31345141  1
  Zn  Zn169  1  0.06324955  0.06372942  0.81147016  1
  Zn  Zn170  1  0.06255840  0.56316470  0.31274930  1
  Zn  Zn171  1  0.06586069  0.56380057  0.81116603  1
  Zn  Zn172  1  0.56195932  0.06136390  0.31290909  1
  Zn  Zn173  1  0.56243595  0.06335819  0.81130624  1
  Zn  Zn174  1  0.56150550  0.56045672  0.31248007  1
  Zn  Zn175  1  0.56025050  0.56196519  0.81376368  1
  Zn  Zn176  1  0.43494133  0.18719153  0.43715024  1
  Zn  Zn177  1  0.43656980  0.18771796  0.93875946  1
  Zn  Zn178  1  0.43841735  0.68727567  0.43765421  1
  Zn  Zn179  1  0.43801373  0.68586987  0.93881670  1
  Zn  Zn180  1  0.93691794  0.18744637  0.43794293  1
  Zn  Zn181  1  0.93885531  0.18932148  0.93761493  1
  Zn  Zn182  1  0.93655546  0.68854673  0.43830476  1
  Zn  Zn183  1  0.93926230  0.68862344  0.93668028  1
  Zn  Zn184  1  0.06107609  0.31192738  0.06195494  1
  Zn  Zn185  1  0.06209838  0.31289934  0.56234948  1
  Zn  Zn186  1  0.06406929  0.81309191  0.06281469  1
  Zn  Zn187  1  0.06380164  0.81322119  0.56122356  1
  Zn  Zn188  1  0.55974962  0.31056068  0.06393106  1
  Zn  Zn189  1  0.56172495  0.31128642  0.56270581  1
  Zn  Zn190  1  0.56264289  0.81154063  0.06056498  1
  Zn  Zn191  1  0.56303809  0.81340104  0.56165010  1
  O  O192  1  0.12281805  0.11159589  0.12380244  1
  O  O193  1  0.11658451  0.11828495  0.62445192  1
  O  O194  1  0.12036573  0.61957936  0.11950681  1
  O  O195  1  0.11658281  0.61860406  0.62257818  1
  O  O196  1  0.62037087  0.11824075  0.12122922  1
  O  O197  1  0.61752559  0.12363751  0.61819991  1
  O  O198  1  0.61957781  0.61447007  0.12707411  1
  O  O199  1  0.62209323  0.62177623  0.61729753  1
  O  O200  1  0.38135736  0.37944368  0.37918253  1
  O  O201  1  0.37651350  0.37171346  0.88749208  1
  O  O202  1  0.38338095  0.88117503  0.37434860  1
  O  O203  1  0.38268161  0.88212489  0.87443491  1
  O  O204  1  0.88005853  0.38037749  0.38027423  1
  O  O205  1  0.88062930  0.38173470  0.88040503  1
  O  O206  1  0.88065311  0.88111809  0.38100097  1
  O  O207  1  0.88290253  0.87589357  0.88261542  1
  O  O208  1  0.25614722  -0.00052374  0.36877161  1
  O  O209  1  0.25491121  0.00474106  0.86825367  1
  O  O210  1  0.25473423  0.50422686  0.36941351  1
  O  O211  1  0.25525848  0.50274432  0.87150308  1
  O  O212  1  0.75474964  0.00442705  0.36971099  1
  O  O213  1  0.74974967  0.00962123  0.87105223  1
  O  O214  1  0.75964719  0.50396019  0.37178949  1
  O  O215  1  0.75615405  0.50593295  0.86838368  1
  O  O216  1  0.24457866  0.49405544  0.13154209  1
  O  O217  1  0.24208419  0.49293952  0.62323886  1
  O  O218  1  0.24222704  0.99518091  0.12903760  1
  O  O219  1  0.24382211  0.99849969  0.63064740  1
  O  O220  1  0.73773824  0.49627284  0.12801957  1
  O  O221  1  0.74599996  0.49451104  0.63034762  1
  O  O222  1  0.74478613  0.99344365  0.13041470  1
  O  O223  1  0.74790928  0.99414748  0.63389378  1
  O  O224  1  0.00551618  0.37046175  0.25548278  1
  O  O225  1  0.00442706  0.37022601  0.75460231  1
  O  O226  1  -0.00222099  0.87561695  0.26281308  1
  O  O227  1  0.00573301  0.87053701  0.75559422  1
  O  O228  1  0.50705656  0.37360093  0.25997991  1
  O  O229  1  0.51033098  0.37056694  0.75162241  1
  O  O230  1  0.50688070  0.86860719  0.25398166  1
  O  O231  1  0.50603109  0.87010657  0.75472526  1
  O  O232  1  0.49321100  0.12343749  0.24322108  1
  O  O233  1  0.49305790  0.12599621  0.74257717  1
  O  O234  1  0.49429914  0.62999512  0.24524219  1
  O  O235  1  0.50288528  0.63437906  0.74120991  1
  O  O236  1  0.99190546  0.13112392  0.25104743  1
  O  O237  1  0.99702548  0.13231936  0.74429600  1
  O  O238  1  0.99022504  0.62531930  0.24298526  1
  O  O239  1  0.99471327  0.63127457  0.74424192  1
  O  O240  1  0.37289375  0.25669115  0.00783745  1
  O  O241  1  0.36799762  0.25640553  0.50509205  1
  O  O242  1  0.36922386  0.75240930  0.00800344  1
  O  O243  1  0.36820397  0.75036689  0.50705436  1
  O  O244  1  0.87618795  0.26383550  -0.00015559  1
  O  O245  1  0.86869940  0.25642478  0.50560652  1
  O  O246  1  0.87051304  0.75498485  0.00497941  1
  O  O247  1  0.87334862  0.75764963  0.50778172  1
  O  O248  1  0.13010329  0.25075613  0.49367952  1
  O  O249  1  0.12528825  0.24806631  0.99112663  1
  O  O250  1  0.13700080  0.74774682  0.49833156  1
  O  O251  1  0.13061905  0.74549100  0.99533583  1
  O  O252  1  0.63154397  0.24356341  0.49856361  1
  O  O253  1  0.62606939  0.24397073  0.99199766  1
  O  O254  1  0.62591152  0.74117621  0.49373890  1
  O  O255  1  0.63353865  0.74902974  0.99326427  1
  O  O256  1  0.49314482  0.23975562  0.12784018  1
  O  O257  1  0.49166660  0.24293823  0.62496046  1
  O  O258  1  0.49586616  0.74468683  0.13086826  1
  O  O259  1  0.49370963  0.74639329  0.62879750  1
  O  O260  1  0.99730257  0.24832366  0.13403505  1
  O  O261  1  0.99373177  0.24604603  0.62959616  1
  O  O262  1  0.99353060  0.74417118  0.12417125  1
  O  O263  1  0.99484922  0.74589518  0.63022284  1
  O  O264  1  0.00421046  0.25684642  0.37046721  1
  O  O265  1  0.00471557  0.25639878  0.86832347  1
  O  O266  1  -0.00116867  0.76316813  0.37613590  1
  O  O267  1  0.00701907  0.75593656  0.86918701  1
  O  O268  1  0.50013071  0.26271424  0.37429612  1
  O  O269  1  0.51414321  0.24866899  0.87379230  1
  O  O270  1  0.50567615  0.75425339  0.36783334  1
  O  O271  1  0.50645043  0.75612321  0.86949863  1
  O  O272  1  0.24656416  0.13446904  0.49768412  1
  O  O273  1  0.24665169  0.12578670  0.99017673  1
  O  O274  1  0.25024015  0.63419865  0.49340464  1
  O  O275  1  0.24294250  0.63280393  1.00179218  1
  O  O276  1  0.74413275  0.12895349  0.49555578  1
  O  O277  1  0.74370867  0.12414532  0.99131302  1
  O  O278  1  0.73848298  0.62811469  0.49937454  1
  O  O279  1  0.74992328  0.63112127  0.99287820  1
  O  O280  1  0.25892522  0.37168461  0.00833896  1
  O  O281  1  0.25500753  0.36931029  0.50552845  1
  O  O282  1  0.25135628  0.86872887  0.00741765  1
  O  O283  1  0.25319661  0.86310789  0.50095191  1
  O  O284  1  0.76381744  0.37604281  -0.00114635  1
  O  O285  1  0.75443541  0.37013357  0.50541813  1
  O  O286  1  0.75577829  0.86971792  0.00542082  1
  O  O287  1  0.75598796  0.87582972  0.50742444  1
  O  O288  1  0.12981320  0.49399549  0.24409108  1
  O  O289  1  0.12355845  0.49230705  0.74151683  1
  O  O290  1  0.12949428  0.99844206  0.24125620  1
  O  O291  1  0.12973413  0.99464703  0.74477346  1
  O  O292  1  0.62470288  0.49027081  0.24283830  1
  O  O293  1  0.63253331  0.49529875  0.74428238  1
  O  O294  1  0.63073451  0.99307614  0.24452494  1
  O  O295  1  0.63203411  0.99327763  0.74921619  1
  O  O296  1  0.36956054  0.00440169  0.25419601  1
  O  O297  1  0.36963189  0.00553089  0.75423783  1
  O  O298  1  0.36889121  0.50467171  0.25523107  1
  O  O299  1  0.37247110  0.50400684  0.75018725  1
  O  O300  1  0.86825199  0.00522784  0.25637387  1
  O  O301  1  0.86575752  0.00361025  0.75616383  1
  O  O302  1  0.87659739  0.50841956  0.25417132  1
  O  O303  1  0.87031922  0.50567085  0.75407952  1
  O  O304  1  0.11858827  0.37011261  0.36844762  1
  O  O305  1  0.11876341  0.37005118  0.86954643  1
  O  O306  1  0.11110379  0.87599351  0.37553913  1
  O  O307  1  0.12006714  0.86956432  0.86915612  1
  O  O308  1  0.61605415  0.37668689  0.36864955  1
  O  O309  1  0.62789439  0.36497933  0.87050666  1
  O  O310  1  0.61991758  0.86951708  0.36829091  1
  O  O311  1  0.62023736  0.86929254  0.86940912  1
  O  O312  1  0.37984440  0.12752041  0.12947498  1
  O  O313  1  0.37907704  0.13087046  0.62955501  1
  O  O314  1  0.38030405  0.62973488  0.13143352  1
  O  O315  1  0.38324529  0.63677631  0.62259775  1
  O  O316  1  0.87705492  0.12638954  0.13464110  1
  O  O317  1  0.88031549  0.13253011  0.62691053  1
  O  O318  1  0.88080755  0.62818780  0.13076129  1
  O  O319  1  0.88018491  0.63090233  0.63046414  1
  O  O320  1  0.25561613  0.25558048  0.12504271  1
  O  O321  1  0.25436303  0.25627615  0.61935931  1
  O  O322  1  0.25496453  0.75544913  0.12053808  1
  O  O323  1  0.25915609  0.74928659  0.61542439  1
  O  O324  1  0.75484273  0.25575760  0.12069428  1
  O  O325  1  0.75422750  0.25515343  0.62021355  1
  O  O326  1  0.75613613  0.75474281  0.11943935  1
  O  O327  1  0.75795309  0.75840025  0.62531732  1
  O  O328  1  0.24238720  0.25002989  0.38155891  1
  O  O329  1  0.24207958  0.24270176  0.87470861  1
  O  O330  1  0.25231140  0.74427750  0.38315556  1
  O  O331  1  0.24356203  0.75137874  0.88267758  1
  O  O332  1  0.74848110  0.24277276  0.38336973  1
  O  O333  1  0.74042677  0.24102609  0.87701411  1
  O  O334  1  0.74210597  0.74715287  0.37718507  1
  O  O335  1  0.74608125  0.74532333  0.87929156  1
  O  O336  1  0.00079314  0.11286241  0.00160921  1
  O  O337  1  -0.00038796  0.11830598  0.50726447  1
  O  O338  1  0.00613698  0.62048076  0.00446967  1
  O  O339  1  -0.00072597  0.61845642  0.50634198  1
  O  O340  1  0.50598853  0.11785221  0.00558966  1
  O  O341  1  0.50373974  0.11985060  0.50394689  1
  O  O342  1  0.50448571  0.62335603  0.01115198  1
  O  O343  1  0.51156773  0.62394743  0.50526200  1
  O  O344  1  0.49437252  0.37634024  0.49121675  1
  O  O345  1  0.48809133  0.37421903  1.00051479  1
  O  O346  1  0.49983996  0.88115584  0.49170704  1
  O  O347  1  0.49995717  0.88151593  0.99219957  1
  O  O348  1  0.99260007  0.38050184  0.49444066  1
  O  O349  1  0.99337266  0.38251927  0.99324111  1
  O  O350  1  0.99307771  0.88141405  0.49405854  1
  O  O351  1  0.99601455  0.88301466  0.99565114  1
  O  O352  1  0.49307769  0.48932735  0.37636491  1
  O  O353  1  0.49847711  0.49453982  0.87984659  1
  O  O354  1  0.49437089  0.99372603  0.37905673  1
  O  O355  1  0.49564581  0.99538493  0.87900325  1
  O  O356  1  0.99476540  0.49387040  0.37998059  1
  O  O357  1  0.99545996  0.49591441  0.87894191  1
  O  O358  1  0.99308307  0.99339591  0.38139961  1
  O  O359  1  1.00078410  0.99452360  0.88485686  1
  O  O360  1  0.00760152  -0.00110564  0.11716375  1
  O  O361  1  0.00398034  0.00527950  0.62146725  1
  O  O362  1  0.00734881  0.50613232  0.11771164  1
  O  O363  1  0.00385967  0.50518387  0.61886862  1
  O  O364  1  0.50599098  0.00341783  0.11951608  1
  O  O365  1  0.49956708  0.00680446  0.61728539  1
  O  O366  1  0.50930082  0.50560536  0.12660117  1
  O  O367  1  0.50904678  0.50698154  0.62291070  1
  O  O368  1  0.24422035  0.38022507  0.24528694  1
  O  O369  1  0.24189201  0.37427833  0.74154737  1
  O  O370  1  0.24844167  0.88218887  0.24301279  1
  O  O371  1  0.24333938  0.88177984  0.74780337  1
  O  O372  1  0.73750945  0.37726762  0.25104805  1
  O  O373  1  0.74524034  0.38106403  0.74407801  1
  O  O374  1  0.74569548  0.87974942  0.24428807  1
  O  O375  1  0.74528736  0.88074270  0.74671845  1
  O  O376  1  0.25674310  0.11639704  0.25150159  1
  O  O377  1  0.25551129  0.11886417  0.75445112  1
  O  O378  1  0.25569115  0.61900896  0.25451960  1
  O  O379  1  0.25375755  0.62294976  0.75355374  1
  O  O380  1  0.75381453  0.11868156  0.25644802  1
  O  O381  1  0.74888346  0.11939293  0.76081096  1
  O  O382  1  0.76430322  0.62259408  0.24998046  1
  O  O383  1  0.75675179  0.62025692  0.75449132  1
  O  O384  1  0.37371139  0.11733548  0.36724783  1
  O  O385  1  0.37014946  0.11971050  0.86861414  1
  O  O386  1  0.37066367  0.61894495  0.36886452  1
  O  O387  1  0.37377097  0.62261142  0.87294027  1
  O  O388  1  0.86814927  0.11898382  0.37093048  1
  O  O389  1  0.86158842  0.12619768  0.87585388  1
  O  O390  1  0.87690959  0.61979081  0.36534390  1
  O  O391  1  0.87121207  0.62063069  0.86851665  1
  O  O392  1  0.12968944  0.38076163  0.13017424  1
  O  O393  1  0.12888842  0.38014327  0.62990038  1
  O  O394  1  0.13016146  0.88647364  0.12632631  1
  O  O395  1  0.12560220  0.88192537  0.63200117  1
  O  O396  1  0.62149270  0.38174106  0.13507397  1
  O  O397  1  0.63096169  0.38019135  0.62908806  1
  O  O398  1  0.63120166  0.87917247  0.13018125  1
  O  O399  1  0.63142998  0.87620803  0.63181205  1
  O  O400  1  0.11917898  0.25552535  0.25544762  1
  O  O401  1  0.11772466  0.25687784  0.75421791  1
  O  O402  1  0.11970463  0.75552763  0.25457249  1
  O  O403  1  0.11964069  0.75601950  0.75393385  1
  O  O404  1  0.62155189  0.26108511  0.25298124  1
  O  O405  1  0.62552172  0.25576011  0.75981600  1
  O  O406  1  0.62062878  0.75419624  0.25362487  1
  O  O407  1  0.62078125  0.75647352  0.75560362  1
  O  O408  1  0.37607218  0.24205975  0.24346732  1
  O  O409  1  0.37551886  0.24330307  0.74287438  1
  O  O410  1  0.38116184  0.74370095  0.24440427  1
  O  O411  1  0.38221726  0.75062461  0.73894726  1
  O  O412  1  0.88133489  0.24437961  0.25161046  1
  O  O413  1  0.88054999  0.25016027  0.74358508  1
  O  O414  1  0.87742975  0.74045223  0.24328453  1
  O  O415  1  0.88202649  0.74568119  0.74510835  1
  O  O416  1  0.37599606  0.49338677  0.49344626  1
  O  O417  1  0.37738446  0.48582694  1.00371073  1
  O  O418  1  0.38081108  0.99839077  0.49264857  1
  O  O419  1  0.38222130  0.99840893  0.99177810  1
  O  O420  1  0.87996588  0.49458008  0.49491183  1
  O  O421  1  0.88162612  0.49494607  0.99327049  1
  O  O422  1  0.87965670  0.99483832  0.49558157  1
  O  O423  1  0.88499592  0.99355894  1.00032149  1
  O  O424  1  0.11562593  -0.00055668  0.00863806  1
  O  O425  1  0.11744883  0.00077591  0.50778609  1
  O  O426  1  0.12044955  0.50480599  0.00542980  1
  O  O427  1  0.11680037  0.50020115  0.50602508  1
  O  O428  1  0.61987007  0.00471697  0.00597792  1
  O  O429  1  0.61702534  0.00715948  0.50106120  1
  O  O430  1  0.62321946  0.49918212  0.01263566  1
  O  O431  1  0.62525317  0.50974232  0.50587007  1
  O  O432  1  0.37031802  0.36804108  0.12076104  1
  O  O433  1  0.37002688  0.36968028  0.61888840  1
  O  O434  1  0.36888140  0.86792947  0.12364369  1
  O  O435  1  0.37452467  0.86161557  0.62170311  1
  O  O436  1  0.87535813  0.37779579  0.11263697  1
  O  O437  1  0.86870399  0.37013291  0.61910747  1
  O  O438  1  0.86966715  0.86944212  0.12024654  1
  O  O439  1  0.87064336  0.87095177  0.62119379  1
  O  O440  1  0.12607397  0.13329681  0.37809983  1
  O  O441  1  0.13111809  0.13188336  0.87440960  1
  O  O442  1  0.13306265  0.62695598  0.37726120  1
  O  O443  1  0.12457311  0.63324002  0.88256333  1
  O  O444  1  0.63058018  0.12610052  0.38091953  1
  O  O445  1  0.63229658  0.13154974  0.88028344  1
  O  O446  1  0.62469413  0.62917466  0.38262380  1
  O  O447  1  0.63320172  0.63187242  0.87549055  1
