# generated using pymatgen
data_V3Zn3O8
_symmetry_space_group_name_H-M   'P 1'
_cell_length_a   17.08681428
_cell_length_b   17.08514376
_cell_length_c   17.08598717
_cell_angle_alpha   90.00526252
_cell_angle_beta   90.00396931
_cell_angle_gamma   89.99138256
_symmetry_Int_Tables_number   1
_chemical_formula_structural   V3Zn3O8
_chemical_formula_sum   'V96 Zn96 O256'
_cell_volume   4987.92373319
_cell_formula_units_Z   32
loop_
 _symmetry_equiv_pos_site_id
 _symmetry_equiv_pos_as_xyz
  1  'x, y, z'
loop_
 _atom_site_type_symbol
 _atom_site_label
 _atom_site_symmetry_multiplicity
 _atom_site_fract_x
 _atom_site_fract_y
 _atom_site_fract_z
 _atom_site_occupancy
  V  V0  1  0.62404600  0.12428990  0.49944873  1
  V  V1  1  0.62565086  0.49966107  0.62686328  1
  V  V2  1  0.12397698  0.12639131  0.49912888  1
  V  V3  1  0.24981199  0.37436697  0.62564466  1
  V  V4  1  0.62455141  0.37527394  0.25067511  1
  V  V5  1  0.12499061  -0.00083133  0.12492336  1
  V  V6  1  0.25046010  0.75095979  -0.00128474  1
  V  V7  1  0.12544217  0.12531588  0.00050971  1
  V  V8  1  -0.00051577  0.62459335  0.62586439  1
  V  V9  1  0.87429131  0.37288239  0.50045011  1
  V  V10  1  0.75115906  0.37584957  0.12471304  1
  V  V11  1  0.75123686  0.87481310  0.12444401  1
  V  V12  1  -0.00080780  0.49862172  0.49981366  1
  V  V13  1  0.62520953  0.12596864  -0.00032630  1
  V  V14  1  0.25083210  0.24943299  0.00017179  1
  V  V15  1  0.87567091  0.62391145  0.74981160  1
  V  V16  1  0.87568870  -0.00121990  0.87625888  1
  V  V17  1  0.37561308  0.87588084  -0.00116403  1
  V  V18  1  0.49974975  0.24982968  0.75044762  1
  V  V19  1  0.49900676  -0.00063769  0.49804638  1
  V  V20  1  0.37427110  0.12479863  0.25028029  1
  V  V21  1  0.12683292  0.62499931  -0.00001783  1
  V  V22  1  0.12504864  0.75037142  0.87367343  1
  V  V23  1  0.62483674  0.87529212  0.74977558  1
  V  V24  1  0.12529363  0.24931568  0.87612284  1
  V  V25  1  0.87489891  0.49933703  0.87643450  1
  V  V26  1  0.74947160  0.49984890  0.25035357  1
  V  V27  1  0.24904914  0.87603443  0.12434416  1
  V  V28  1  0.12686782  0.50143398  0.12417224  1
  V  V29  1  0.00087452  0.49999855  0.00040821  1
  V  V30  1  0.37557927  0.62631988  0.74886510  1
  V  V31  1  0.37506434  0.74887059  0.62354583  1
  V  V32  1  0.62403988  0.37494968  0.75054975  1
  V  V33  1  0.50005272  0.62555366  0.62574236  1
  V  V34  1  -0.00103983  0.87414975  0.37538262  1
  V  V35  1  0.12414585  0.37402082  0.75118076  1
  V  V36  1  0.62524063  0.62426403  0.50108197  1
  V  V37  1  0.12415547  0.37411648  0.25215695  1
  V  V38  1  0.62398651  0.75019967  0.37486483  1
  V  V39  1  0.12361153  0.00083681  0.62507516  1
  V  V40  1  0.75013065  0.12429866  0.37447283  1
  V  V41  1  0.62568356  0.00035044  0.12521468  1
  V  V42  1  0.75067616  0.75051776  0.00048728  1
  V  V43  1  0.49947828  0.12480765  0.62373793  1
  V  V44  1  0.37492899  0.37533225  0.49931366  1
  V  V45  1  0.62530602  0.50193458  0.12466370  1
  V  V46  1  0.87600778  0.12547087  0.24892859  1
  V  V47  1  0.37429037  0.12384846  0.74937274  1
  V  V48  1  0.12360550  0.75054132  0.37471975  1
  V  V49  1  0.37563038  0.75103107  0.12493307  1
  V  V50  1  0.49981511  0.50091727  -0.00058551  1
  V  V51  1  0.12503963  0.62456260  0.49988876  1
  V  V52  1  0.12446180  0.87465936  0.24987863  1
  V  V53  1  -0.00061236  0.12584390  0.12671028  1
  V  V54  1  0.87519618  0.74929662  0.62621850  1
  V  V55  1  0.12321517  0.87424692  0.74924009  1
  V  V56  1  0.87542364  0.62549438  0.25048343  1
  V  V57  1  0.87519900  0.49954119  0.37575725  1
  V  V58  1  0.50038010  0.12586062  0.12484275  1
  V  V59  1  -0.00055704  0.25001726  0.75156679  1
  V  V60  1  0.25038381  0.62465997  0.37440389  1
  V  V61  1  0.25213510  0.37481769  0.12457541  1
  V  V62  1  0.50027120  -0.00003481  -0.00079076  1
  V  V63  1  0.87449012  0.12555736  0.74975879  1
  V  V64  1  0.75117928  0.25146954  0.00053379  1
  V  V65  1  0.87441906  0.87463102  0.50099058  1
  V  V66  1  0.12477219  0.49948937  0.62532470  1
  V  V67  1  0.62426716  0.25021321  0.37409770  1
  V  V68  1  -0.00083149  0.12619008  0.62516591  1
  V  V69  1  0.24986222  0.50031935  0.75032475  1
  V  V70  1  0.37677905  0.62583674  0.24915433  1
  V  V71  1  0.74985384  0.00001754  0.24976323  1
  V  V72  1  0.87445768  -0.00135094  0.37573173  1
  V  V73  1  0.75006548  0.24910241  0.50040927  1
  V  V74  1  0.37561128  0.25063559  0.12373951  1
  V  V75  1  0.49968977  0.49895418  0.50060676  1
  V  V76  1  0.37553288  0.50034728  0.87548656  1
  V  V77  1  0.50067049  0.25095878  0.24961689  1
  V  V78  1  0.24960239  0.12433801  0.37454627  1
  V  V79  1  0.62625810  0.62646363  0.00027638  1
  V  V80  1  0.74906059  0.62363476  0.37673535  1
  V  V81  1  0.62372863  0.25016197  0.87454089  1
  V  V82  1  0.25134464  0.50063244  0.24947936  1
  V  V83  1  0.62451736  0.87444656  0.25062619  1
  V  V84  1  0.75025919  0.87433029  0.62595515  1
  V  V85  1  0.74995519  0.00033960  0.74996882  1
  V  V86  1  0.37366443  0.25011748  0.62543577  1
  V  V87  1  0.37452638  0.87493795  0.49767870  1
  V  V88  1  0.74961166  0.49938886  0.75082050  1
  V  V89  1  0.25073562  0.62540903  0.87425318  1
  V  V90  1  0.24993131  0.74990946  0.49945411  1
  V  V91  1  0.87521044  0.74940747  0.12570662  1
  V  V92  1  0.62581300  0.75111087  0.87560377  1
  V  V93  1  -0.00032293  -0.00076159  -0.00009938  1
  V  V94  1  0.50022882  0.87555122  0.87454074  1
  V  V95  1  0.25036482  0.00095712  0.74991183  1
  Zn  Zn96  1  0.49971691  0.75217828  0.24824963  1
  Zn  Zn97  1  0.50178621  0.62825677  0.12638712  1
  Zn  Zn98  1  0.37646458  0.49898934  0.37388527  1
  Zn  Zn99  1  0.25178810  0.12456615  0.87617889  1
  Zn  Zn100  1  0.24859763  0.87442297  0.62291139  1
  Zn  Zn101  1  0.87708684  0.25207350  0.12564491  1
  Zn  Zn102  1  -0.00008630  0.74885341  0.75165125  1
  Zn  Zn103  1  -0.00019617  0.74823718  0.24916377  1
  Zn  Zn104  1  -0.00213677  0.25185590  0.24985537  1
  Zn  Zn105  1  0.87721364  0.37468397  0.00253543  1
  Zn  Zn106  1  0.74922793  0.12542572  0.87421447  1
  Zn  Zn107  1  0.37456406  -0.00134290  0.37148869  1
  Zn  Zn108  1  0.00005280  0.37338828  0.87632520  1
  Zn  Zn109  1  0.37577622  0.37429019  -0.00163528  1
  Zn  Zn110  1  0.49907547  0.37548898  0.37442614  1
  Zn  Zn111  1  0.75001103  0.62637211  0.87535663  1
  Zn  Zn112  1  0.49950032  0.87527120  0.37228412  1
  Zn  Zn113  1  -0.00000307  0.87222241  0.87709266  1
  Zn  Zn114  1  0.50025764  0.75152701  0.74958045  1
  Zn  Zn115  1  0.74920889  0.37243458  0.62617622  1
  Zn  Zn116  1  0.87256216  0.24972170  0.62719045  1
  Zn  Zn117  1  0.12239765  0.24921743  0.37354892  1
  Zn  Zn118  1  0.00146525  0.62700607  0.12740167  1
  Zn  Zn119  1  0.25092431  -0.00022382  0.24915609  1
  Zn  Zn120  1  0.24851523  0.25093201  0.49928188  1
  Zn  Zn121  1  0.62552412  -0.00110784  0.62475824  1
  Zn  Zn122  1  0.87738160  0.87318975  0.00039256  1
  Zn  Zn123  1  -0.00126481  0.00055939  0.50017738  1
  Zn  Zn124  1  0.49796439  0.37433244  0.87501481  1
  Zn  Zn125  1  0.74925195  0.74929971  0.50250322  1
  Zn  Zn126  1  0.37531072  0.00022222  0.87390688  1
  Zn  Zn127  1  0.00157751  0.37268848  0.37477307  1
  Zn  Zn128  1  0.18768117  0.18797228  0.18667876  1
  Zn  Zn129  1  0.18675687  0.18784688  0.68740451  1
  Zn  Zn130  1  0.18853315  0.68941119  0.18704941  1
  Zn  Zn131  1  0.18862608  0.68814241  0.68578750  1
  Zn  Zn132  1  0.68868280  0.18822986  0.18663213  1
  Zn  Zn133  1  0.68730964  0.18660194  0.68614295  1
  Zn  Zn134  1  0.68877790  0.68740386  0.18787727  1
  Zn  Zn135  1  0.68891699  0.68783583  0.68999530  1
  Zn  Zn136  1  0.31071273  0.31006989  0.31327490  1
  Zn  Zn137  1  0.31239808  0.31277830  0.81464328  1
  Zn  Zn138  1  0.30992711  0.81173899  0.31186533  1
  Zn  Zn139  1  0.31266921  0.81350781  0.81124982  1
  Zn  Zn140  1  0.81240600  0.31121454  0.31252137  1
  Zn  Zn141  1  0.81167394  0.31412384  0.81435826  1
  Zn  Zn142  1  0.81120378  0.81123042  0.31266348  1
  Zn  Zn143  1  0.81234696  0.81274337  0.81223427  1
  Zn  Zn144  1  0.18993103  0.43956928  0.43647745  1
  Zn  Zn145  1  0.18877938  0.43552189  0.93714143  1
  Zn  Zn146  1  0.18666746  0.93952587  0.43618779  1
  Zn  Zn147  1  0.18687140  0.93801438  0.93568523  1
  Zn  Zn148  1  0.68743098  0.43623107  0.43780938  1
  Zn  Zn149  1  0.68673709  0.43655654  0.93624590  1
  Zn  Zn150  1  0.68829042  0.93617360  0.43877280  1
  Zn  Zn151  1  0.68878688  0.93697349  0.93717181  1
  Zn  Zn152  1  0.31296321  0.06246085  0.06264545  1
  Zn  Zn153  1  0.31107163  0.06159160  0.56252280  1
  Zn  Zn154  1  0.31340563  0.56344617  0.06300718  1
  Zn  Zn155  1  0.31234027  0.56185539  0.56251121  1
  Zn  Zn156  1  0.81313247  0.06373974  0.06220828  1
  Zn  Zn157  1  0.81258176  0.06152473  0.56325745  1
  Zn  Zn158  1  0.81264186  0.56505334  0.06310387  1
  Zn  Zn159  1  0.81109451  0.56096661  0.56408674  1
  Zn  Zn160  1  0.43877947  0.43790287  0.18532590  1
  Zn  Zn161  1  0.43830850  0.43765905  0.68756772  1
  Zn  Zn162  1  0.43761474  0.93816869  0.18727357  1
  Zn  Zn163  1  0.43785107  0.93630229  0.68491991  1
  Zn  Zn164  1  0.93782154  0.43945066  0.18603367  1
  Zn  Zn165  1  0.93762227  0.43595652  0.68713164  1
  Zn  Zn166  1  0.93811571  0.93651821  0.18823715  1
  Zn  Zn167  1  0.93783980  0.93853621  0.68744223  1
  Zn  Zn168  1  0.06116976  0.05976603  0.31180142  1
  Zn  Zn169  1  0.06159873  0.06363446  0.81401277  1
  Zn  Zn170  1  0.06123636  0.56147917  0.31303838  1
  Zn  Zn171  1  0.06190092  0.56225174  0.81324019  1
  Zn  Zn172  1  0.56167303  0.06280408  0.31263133  1
  Zn  Zn173  1  0.56292857  0.06227394  0.81284561  1
  Zn  Zn174  1  0.56041164  0.56145545  0.31468762  1
  Zn  Zn175  1  0.56252281  0.56479051  0.81366053  1
  Zn  Zn176  1  0.43618312  0.18873035  0.43632391  1
  Zn  Zn177  1  0.43662815  0.18562934  0.93555539  1
  Zn  Zn178  1  0.43916497  0.68662237  0.43656577  1
  Zn  Zn179  1  0.43905948  0.68828076  0.93698842  1
  Zn  Zn180  1  0.93972484  0.18985355  0.43347905  1
  Zn  Zn181  1  0.93773410  0.18545615  0.93792278  1
  Zn  Zn182  1  0.93677884  0.68837027  0.43872904  1
  Zn  Zn183  1  0.93888566  0.68674373  0.93802613  1
  Zn  Zn184  1  0.06369945  0.31248934  0.06499458  1
  Zn  Zn185  1  0.06078073  0.31039852  0.56390910  1
  Zn  Zn186  1  0.06050350  0.81217823  0.06253794  1
  Zn  Zn187  1  0.06010595  0.81232921  0.56292678  1
  Zn  Zn188  1  0.56369834  0.31521343  0.06256373  1
  Zn  Zn189  1  0.56240320  0.31239844  0.56384715  1
  Zn  Zn190  1  0.56211463  0.81268897  0.06327164  1
  Zn  Zn191  1  0.56250424  0.81217715  0.56275026  1
  O  O192  1  0.11973081  0.11897250  0.12015836  1
  O  O193  1  0.12019674  0.12083565  0.61739919  1
  O  O194  1  0.12674967  0.61913840  0.11771249  1
  O  O195  1  0.12048840  0.61883143  0.61920951  1
  O  O196  1  0.61950478  0.11975394  0.12015837  1
  O  O197  1  0.61691806  0.12268148  0.61691794  1
  O  O198  1  0.62453443  0.61915299  0.11916621  1
  O  O199  1  0.61987841  0.61998011  0.62089418  1
  O  O200  1  0.37461418  0.37476368  0.38768553  1
  O  O201  1  0.37738796  0.38443590  0.87765051  1
  O  O202  1  0.37658337  0.87474280  0.38613327  1
  O  O203  1  0.38139627  0.87629434  0.88129186  1
  O  O204  1  0.87481407  0.38109198  0.38505571  1
  O  O205  1  0.87761471  0.38857403  0.87843654  1
  O  O206  1  0.87803953  0.87885463  0.38036012  1
  O  O207  1  0.87746810  0.88757162  0.87518327  1
  O  O208  1  0.25209284  0.01231876  0.37283740  1
  O  O209  1  0.25114563  0.00128415  0.86105544  1
  O  O210  1  0.25365837  0.50799544  0.36800716  1
  O  O211  1  0.25478401  0.50620162  0.86980156  1
  O  O212  1  0.75410042  0.00486900  0.36930390  1
  O  O213  1  0.75946044  0.00137033  0.86987704  1
  O  O214  1  0.75452078  0.50450741  0.36990284  1
  O  O215  1  0.75952047  0.50176459  0.87103832  1
  O  O216  1  0.24615641  0.49492008  0.12942945  1
  O  O217  1  0.24411679  0.49501393  0.63115549  1
  O  O218  1  0.24260683  0.99313346  0.12448855  1
  O  O219  1  0.24305823  0.99865679  0.63499666  1
  O  O220  1  0.74457407  0.49601833  0.13046322  1
  O  O221  1  0.74261470  0.49784064  0.63285903  1
  O  O222  1  0.74434269  0.99568296  0.13006066  1
  O  O223  1  0.74886539  0.99257421  0.63219668  1
  O  O224  1  0.01320857  0.37872029  0.24989460  1
  O  O225  1  0.00685824  0.36875908  0.75146266  1
  O  O226  1  0.00651847  0.87225844  0.25750815  1
  O  O227  1  0.01372637  0.87447113  0.75133072  1
  O  O228  1  0.50675855  0.36892677  0.25021231  1
  O  O229  1  0.50554091  0.36776008  0.75087484  1
  O  O230  1  0.50797982  0.87382445  0.25315325  1
  O  O231  1  0.50596185  0.87448466  0.75546649  1
  O  O232  1  0.49556531  0.13102746  0.24400254  1
  O  O233  1  0.49479252  0.12929717  0.74305822  1
  O  O234  1  0.48796515  0.62603141  0.24865623  1
  O  O235  1  0.49298584  0.62695541  0.74334673  1
  O  O236  1  0.99363897  0.12409739  0.24322435  1
  O  O237  1  0.99484743  0.13054418  0.74497418  1
  O  O238  1  0.99161852  0.62634149  0.24851491  1
  O  O239  1  0.99414575  0.62406319  0.74266897  1
  O  O240  1  0.37002951  0.25019044  0.00640904  1
  O  O241  1  0.37392266  0.25966198  0.50683193  1
  O  O242  1  0.36938291  0.75541130  0.00440772  1
  O  O243  1  0.37045204  0.75640763  0.50294109  1
  O  O244  1  0.86308823  0.25165828  -0.00001821  1
  O  O245  1  0.86932350  0.25850308  0.49887200  1
  O  O246  1  0.86899397  0.75011166  0.00636631  1
  O  O247  1  0.87196146  0.75588439  0.50777079  1
  O  O248  1  0.12675534  0.23774766  0.49981349  1
  O  O249  1  0.13075184  0.24468895  0.99634271  1
  O  O250  1  0.13025684  0.74414627  0.49536441  1
  O  O251  1  0.13166146  0.74517046  0.99436553  1
  O  O252  1  0.62895484  0.24426621  0.49408229  1
  O  O253  1  0.63171908  0.24602645  0.99556335  1
  O  O254  1  0.62640880  0.74329831  0.49179059  1
  O  O255  1  0.63080796  0.74601142  0.99595594  1
  O  O256  1  0.49647012  0.24505038  0.12954512  1
  O  O257  1  0.49367079  0.24401385  0.63064712  1
  O  O258  1  0.49178086  0.74801601  0.12716741  1
  O  O259  1  0.49308991  0.74275851  0.62520322  1
  O  O260  1  0.99770878  0.24167965  0.12720874  1
  O  O261  1  0.99753148  0.24308316  0.63370572  1
  O  O262  1  0.99146585  0.74674306  0.12701426  1
  O  O263  1  0.99361911  0.74185766  0.62730354  1
  O  O264  1  0.00566352  0.25521806  0.36776476  1
  O  O265  1  0.00658279  0.25144525  0.87039589  1
  O  O266  1  0.00661803  0.75598783  0.37471130  1
  O  O267  1  0.00873370  0.75136635  0.87193180  1
  O  O268  1  0.50643274  0.25112083  0.36742090  1
  O  O269  1  0.50571821  0.25073427  0.86827455  1
  O  O270  1  0.51362017  0.75016846  0.37355782  1
  O  O271  1  0.50734751  0.75791881  0.87426466  1
  O  O272  1  0.24145540  0.12541085  0.49317155  1
  O  O273  1  0.24330483  0.13118833  0.99977799  1
  O  O274  1  0.24467724  0.62935717  0.49457789  1
  O  O275  1  0.24622525  0.63086988  0.99369858  1
  O  O276  1  0.74419864  0.12851885  0.49379018  1
  O  O277  1  0.74335595  0.13551956  1.00015386  1
  O  O278  1  0.74272427  0.62456018  0.49438970  1
  O  O279  1  0.74334224  0.63237534  0.99868819  1
  O  O280  1  0.25164423  0.36827840  0.00743452  1
  O  O281  1  0.25877909  0.37515778  0.50678619  1
  O  O282  1  0.25500428  0.86995795  0.00379826  1
  O  O283  1  0.25831007  0.87011847  0.49978138  1
  O  O284  1  0.74873494  0.36622570  0.00583424  1
  O  O285  1  0.75904636  0.36878070  0.50026967  1
  O  O286  1  0.75177305  0.86865996  0.00788803  1
  O  O287  1  0.75643137  0.87336669  0.50799713  1
  O  O288  1  0.13223579  0.49451238  0.24461587  1
  O  O289  1  0.13061698  0.49509207  0.74501806  1
  O  O290  1  0.12691969  0.99252024  0.24215898  1
  O  O291  1  0.13148664  0.99394307  0.74610184  1
  O  O292  1  0.63002986  0.49588414  0.24532895  1
  O  O293  1  0.62934443  0.49557913  0.74672717  1
  O  O294  1  0.63043203  0.99585958  0.24482961  1
  O  O295  1  0.63161796  0.99365823  0.74863816  1
  O  O296  1  0.37260235  0.00853800  0.25131199  1
  O  O297  1  0.36532142  0.00381566  0.74731948  1
  O  O298  1  0.36985768  0.50886970  0.24943754  1
  O  O299  1  0.36927177  0.50633322  0.75437279  1
  O  O300  1  0.86805281  0.00456613  0.25593485  1
  O  O301  1  0.87078989  0.00506911  0.75813690  1
  O  O302  1  0.86846295  0.50461236  0.25607835  1
  O  O303  1  0.87102628  0.50317705  0.75771440  1
  O  O304  1  0.12699784  0.37549109  0.36370533  1
  O  O305  1  0.12412112  0.36828788  0.86810898  1
  O  O306  1  0.11992569  0.86998524  0.37074214  1
  O  O307  1  0.12545798  0.86921631  0.86461092  1
  O  O308  1  0.62404933  0.36784135  0.36833876  1
  O  O309  1  0.62146554  0.36824715  0.86795361  1
  O  O310  1  0.62596297  0.86523761  0.37016462  1
  O  O311  1  0.61981301  0.87051686  0.86997272  1
  O  O312  1  0.38130992  0.13106749  0.13006978  1
  O  O313  1  0.37979762  0.13042500  0.62919464  1
  O  O314  1  0.37414647  0.63212031  0.13469895  1
  O  O315  1  0.38005871  0.62929557  0.62918297  1
  O  O316  1  0.88170657  0.12472234  0.13166638  1
  O  O317  1  0.88144507  0.12602871  0.63159100  1
  O  O318  1  0.87510348  0.63187098  0.13317917  1
  O  O319  1  0.88021838  0.62844844  0.62995095  1
  O  O320  1  0.25639758  0.25478913  0.11941294  1
  O  O321  1  0.25594502  0.25693673  0.62449191  1
  O  O322  1  0.25526971  0.75649464  0.11741331  1
  O  O323  1  0.25677157  0.75059752  0.61612601  1
  O  O324  1  0.74891681  0.25642444  0.11469402  1
  O  O325  1  0.75183133  0.25164817  0.61597176  1
  O  O326  1  0.75541844  0.75570532  0.12029355  1
  O  O327  1  0.75734052  0.75611723  0.62524402  1
  O  O328  1  0.24557615  0.23674681  0.37773718  1
  O  O329  1  0.24356623  0.24791457  0.88185706  1
  O  O330  1  0.24328339  0.74417675  0.38072091  1
  O  O331  1  0.24550703  0.74441504  0.87963641  1
  O  O332  1  0.74363998  0.24304147  0.38003076  1
  O  O333  1  0.74335346  0.24961862  0.88525639  1
  O  O334  1  0.73871772  0.74300664  0.37672645  1
  O  O335  1  0.74421016  0.74977365  0.88242561  1
  O  O336  1  0.00584192  0.11872306  0.00667729  1
  O  O337  1  0.00882939  0.12408409  0.50463143  1
  O  O338  1  0.00818409  0.61411397  0.00071493  1
  O  O339  1  0.00536316  0.61846414  0.50584241  1
  O  O340  1  0.50568341  0.12022577  0.00584496  1
  O  O341  1  0.50297265  0.11784242  0.50348422  1
  O  O342  1  0.50589744  0.61564475  0.00151238  1
  O  O343  1  0.50530271  0.61887300  0.50611828  1
  O  O344  1  0.48934357  0.37976827  0.50178729  1
  O  O345  1  0.49968962  0.38894651  0.99853806  1
  O  O346  1  0.49200375  0.88297960  0.49848658  1
  O  O347  1  0.49540080  0.88117534  0.99528740  1
  O  O348  1  0.99094783  0.38005473  0.49973470  1
  O  O349  1  1.00070943  0.38829576  0.99944244  1
  O  O350  1  0.99292254  0.87734597  0.49388386  1
  O  O351  1  0.99788006  0.88381528  0.99714035  1
  O  O352  1  0.49627698  0.49594105  0.38434180  1
  O  O353  1  0.49465350  0.50100212  0.88452244  1
  O  O354  1  0.49744966  0.99976587  0.38702940  1
  O  O355  1  0.49948103  0.99334000  0.88210152  1
  O  O356  1  0.99313375  0.49778397  0.38303594  1
  O  O357  1  0.99308996  0.49896009  0.88378729  1
  O  O358  1  0.99180619  0.99229861  0.37674336  1
  O  O359  1  0.99076683  0.99990121  0.88083636  1
  O  O360  1  0.00557417  0.00496461  0.11947133  1
  O  O361  1  0.00644010  0.00840919  0.62381618  1
  O  O362  1  0.00712702  0.50300363  0.11494619  1
  O  O363  1  0.00564659  0.50463020  0.61957082  1
  O  O364  1  0.50659067  0.00626340  0.11898096  1
  O  O365  1  0.50011923  0.00548245  0.61277038  1
  O  O366  1  0.50633956  0.50291176  0.11505785  1
  O  O367  1  0.50580028  0.50641415  0.62031654  1
  O  O368  1  0.24448886  0.38077966  0.24465397  1
  O  O369  1  0.24444777  0.38112381  0.74498032  1
  O  O370  1  0.24326267  0.87631438  0.24265530  1
  O  O371  1  0.24087917  0.88310084  0.74709574  1
  O  O372  1  0.74405034  0.38091527  0.24527112  1
  O  O373  1  0.74273469  0.38154273  0.74883397  1
  O  O374  1  0.74430598  0.88132297  0.24438999  1
  O  O375  1  0.74489021  0.88108588  0.74498200  1
  O  O376  1  0.25492956  0.12469081  0.25807746  1
  O  O377  1  0.25461338  0.11541541  0.74924798  1
  O  O378  1  0.25814893  0.62088210  0.25423017  1
  O  O379  1  0.25532846  0.61938010  0.75445267  1
  O  O380  1  0.75423607  0.11889187  0.25504224  1
  O  O381  1  0.75602351  0.11870907  0.75162849  1
  O  O382  1  0.75496878  0.61804019  0.25704715  1
  O  O383  1  0.75761810  0.61708127  0.75303443  1
  O  O384  1  0.36555593  0.12501470  0.36973545  1
  O  O385  1  0.37242066  0.12063093  0.86518462  1
  O  O386  1  0.36892388  0.62525062  0.36546133  1
  O  O387  1  0.36932515  0.62111444  0.86893528  1
  O  O388  1  0.86899559  0.11846392  0.36982678  1
  O  O389  1  0.87353227  0.11387060  0.86940776  1
  O  O390  1  0.86852264  0.61910991  0.37194356  1
  O  O391  1  0.87533895  0.61339832  0.86952519  1
  O  O392  1  0.13266262  0.38204531  0.13274270  1
  O  O393  1  0.12991011  0.38024587  0.63050925  1
  O  O394  1  0.13014450  0.87909571  0.12949264  1
  O  O395  1  0.12605804  0.88061065  0.63278839  1
  O  O396  1  0.63137149  0.38220492  0.13150732  1
  O  O397  1  0.62543097  0.38202865  0.63209389  1
  O  O398  1  0.63108947  0.88097635  0.13063963  1
  O  O399  1  0.63127177  0.87570961  0.63122141  1
  O  O400  1  0.12550065  0.26434501  0.24837142  1
  O  O401  1  0.11986421  0.25442744  0.75606161  1
  O  O402  1  0.12437606  0.75598668  0.25706753  1
  O  O403  1  0.12684051  0.75903757  0.75392709  1
  O  O404  1  0.62057160  0.25514625  0.25428804  1
  O  O405  1  0.61939331  0.25412126  0.75467822  1
  O  O406  1  0.62506452  0.75465584  0.25910785  1
  O  O407  1  0.62389380  0.75721419  0.75724396  1
  O  O408  1  0.38089256  0.24505305  0.24355049  1
  O  O409  1  0.37958105  0.24476072  0.74465762  1
  O  O410  1  0.37443629  0.74118419  0.24448655  1
  O  O411  1  0.37515453  0.74397833  0.74215051  1
  O  O412  1  0.87489700  0.24110059  0.24684293  1
  O  O413  1  0.88056434  0.24425261  0.75161318  1
  O  O414  1  0.87415399  0.74283650  0.24405270  1
  O  O415  1  0.87707611  0.74267663  0.74482623  1
  O  O416  1  0.38015348  0.49007170  0.50124023  1
  O  O417  1  0.38439067  0.50177590  0.99503882  1
  O  O418  1  0.38194284  0.99162330  0.49913972  1
  O  O419  1  0.38223013  0.99389654  0.99892807  1
  O  O420  1  0.87868730  0.49173417  0.49590880  1
  O  O421  1  0.88361165  0.50192991  0.99312186  1
  O  O422  1  0.87547194  0.99319200  0.49290857  1
  O  O423  1  0.87968633  0.99997984  0.99100374  1
  O  O424  1  0.12005511  0.00518011  0.00466927  1
  O  O425  1  0.12393194  0.01056644  0.50612026  1
  O  O426  1  0.11983690  0.50507904  0.00353894  1
  O  O427  1  0.12016362  0.50486443  0.50577522  1
  O  O428  1  0.62073168  0.00562175  0.00582523  1
  O  O429  1  0.61509744  0.00504427  0.49998350  1
  O  O430  1  0.61845797  0.50577500  0.00395121  1
  O  O431  1  0.62003217  0.50418848  0.50637451  1
  O  O432  1  0.36934339  0.36813079  0.12336438  1
  O  O433  1  0.36951947  0.37069363  0.61797153  1
  O  O434  1  0.36922320  0.87047238  0.11865686  1
  O  O435  1  0.37333805  0.86859695  0.61249165  1
  O  O436  1  0.86639139  0.37421332  0.12257692  1
  O  O437  1  0.87262683  0.37327666  0.61212000  1
  O  O438  1  0.86799849  0.86833272  0.12501272  1
  O  O439  1  0.87077125  0.86949130  0.62146028  1
  O  O440  1  0.13165522  0.12300714  0.38293012  1
  O  O441  1  0.12666372  0.13131159  0.88281104  1
  O  O442  1  0.13060520  0.62969242  0.38076241  1
  O  O443  1  0.13238953  0.62984157  0.87926099  1
  O  O444  1  0.63078764  0.13037757  0.37966843  1
  O  O445  1  0.62633773  0.13184327  0.88198144  1
  O  O446  1  0.62943788  0.63105452  0.38038682  1
  O  O447  1  0.62687415  0.63314523  0.88191733  1
