# generated using pymatgen
data_V3Zn3O8
_symmetry_space_group_name_H-M   'P 1'
_cell_length_a   17.08898350
_cell_length_b   17.09056606
_cell_length_c   17.08839962
_cell_angle_alpha   89.98997923
_cell_angle_beta   89.99669875
_cell_angle_gamma   90.00060652
_symmetry_Int_Tables_number   1
_chemical_formula_structural   V3Zn3O8
_chemical_formula_sum   'V96 Zn96 O256'
_cell_volume   4990.84476750
_cell_formula_units_Z   32
loop_
 _symmetry_equiv_pos_site_id
 _symmetry_equiv_pos_as_xyz
  1  'x, y, z'
loop_
 _atom_site_type_symbol
 _atom_site_label
 _atom_site_symmetry_multiplicity
 _atom_site_fract_x
 _atom_site_fract_y
 _atom_site_fract_z
 _atom_site_occupancy
  V  V0  1  0.87516632  0.12535225  0.24991417  1
  V  V1  1  0.37459810  0.24896572  0.12490214  1
  V  V2  1  0.00093785  0.75037221  0.24946057  1
  V  V3  1  0.37529785  0.37509740  0.50012855  1
  V  V4  1  0.87641205  0.37464586  0.50119701  1
  V  V5  1  0.87419797  0.37581324  -0.00027696  1
  V  V6  1  0.12579812  0.75138203  0.37355405  1
  V  V7  1  -0.00116668  0.49929812  -0.00175453  1
  V  V8  1  0.62396634  0.75083108  0.87511125  1
  V  V9  1  0.87626427  0.12772164  0.74926452  1
  V  V10  1  0.74911715  0.87576180  0.12583682  1
  V  V11  1  -0.00014643  0.62441760  0.12420598  1
  V  V12  1  0.75010686  0.12487225  0.37615265  1
  V  V13  1  -0.00071407  0.75037818  0.74834677  1
  V  V14  1  0.62497017  0.37522286  0.75036185  1
  V  V15  1  0.50016342  0.25044263  0.25152156  1
  V  V16  1  0.87550391  -0.00054341  0.37599700  1
  V  V17  1  0.62486952  -0.00005460  0.12708663  1
  V  V18  1  0.62563651  0.50049039  0.62417682  1
  V  V19  1  0.87454612  0.25001392  0.12581325  1
  V  V20  1  0.62366579  0.62477002  0.00044486  1
  V  V21  1  0.87434062  0.00041135  0.87608753  1
  V  V22  1  0.62473278  0.12597193  0.00097522  1
  V  V23  1  0.12662983  0.12489791  0.49946673  1
  V  V24  1  0.49891802  0.74931531  0.75033373  1
  V  V25  1  0.12591667  0.62487689  0.49844945  1
  V  V26  1  0.24955599  0.62513365  0.87404320  1
  V  V27  1  0.50074036  0.37469573  0.37518951  1
  V  V28  1  0.24896846  0.87469959  0.12420081  1
  V  V29  1  0.24942957  0.37406470  0.12450116  1
  V  V30  1  0.87527433  0.62524833  0.24971044  1
  V  V31  1  0.12381889  0.25021986  0.87477587  1
  V  V32  1  0.74936002  0.37582794  0.12582705  1
  V  V33  1  0.50074241  0.00001729  0.50093929  1
  V  V34  1  0.37477159  0.50045121  0.37326361  1
  V  V35  1  0.25047356  0.12481232  0.37501244  1
  V  V36  1  0.25177890  0.50148619  0.75046310  1
  V  V37  1  0.49909423  0.00039167  0.00098880  1
  V  V38  1  0.87439276  0.87522810  -0.00031819  1
  V  V39  1  0.74917825  -0.00114349  0.75048323  1
  V  V40  1  0.00032803  -0.00051108  0.49982818  1
  V  V41  1  0.75128528  0.24950577  0.50180585  1
  V  V42  1  -0.00013075  0.00001099  0.00012006  1
  V  V43  1  0.25118347  0.37377145  0.62353812  1
  V  V44  1  0.24990833  0.00067085  0.74988362  1
  V  V45  1  0.12480670  0.37422019  0.24982517  1
  V  V46  1  0.75067118  0.62554957  0.37491267  1
  V  V47  1  0.12407285  0.12467956  0.00027785  1
  V  V48  1  0.62506409  0.50043210  0.12475862  1
  V  V49  1  0.50251987  0.12300294  0.62522663  1
  V  V50  1  0.87449021  0.74973072  0.12457884  1
  V  V51  1  0.75089350  0.87420158  0.62547195  1
  V  V52  1  0.50016491  0.87430523  0.87522998  1
  V  V53  1  0.00054439  0.37475130  0.37496881  1
  V  V54  1  0.37584375  0.12473840  0.75103317  1
  V  V55  1  0.75130424  0.75037825  0.50044605  1
  V  V56  1  0.24938627  0.24925554  0.00002111  1
  V  V57  1  0.12389004  0.37439513  0.74969287  1
  V  V58  1  0.37606747  0.74854365  0.62557625  1
  V  V59  1  0.62493085  0.75055918  0.37437970  1
  V  V60  1  0.12615288  0.00098033  0.62506697  1
  V  V61  1  0.74923214  0.50026642  0.24913570  1
  V  V62  1  -0.00025867  0.87449567  0.87396319  1
  V  V63  1  0.62501809  0.25029413  0.37583547  1
  V  V64  1  0.37407733  0.87491178  0.00041666  1
  V  V65  1  -0.00059469  0.24918164  0.24925444  1
  V  V66  1  0.50107349  0.50066793  0.49927268  1
  V  V67  1  0.12481345  0.62433256  -0.00135698  1
  V  V68  1  0.25085903  0.49979384  0.25035364  1
  V  V69  1  0.37644273  0.87489799  0.49942070  1
  V  V70  1  0.37494239  0.74872730  0.12504986  1
  V  V71  1  0.12415353  -0.00076956  0.12426602  1
  V  V72  1  0.74860431  0.12534292  0.87669624  1
  V  V73  1  0.74923136  0.75007693  -0.00044712  1
  V  V74  1  0.50032835  0.75059241  0.25055076  1
  V  V75  1  0.12603242  0.24905123  0.37511810  1
  V  V76  1  0.50012121  0.25083328  0.75059749  1
  V  V77  1  0.74962485  0.50059365  0.74942940  1
  V  V78  1  0.12457749  0.74986354  0.87503715  1
  V  V79  1  0.62528160  0.62406656  0.50010549  1
  V  V80  1  0.37544894  0.00005399  0.37551420  1
  V  V81  1  0.74997864  0.62526550  0.87387340  1
  V  V82  1  0.37434229  0.12390179  0.25100929  1
  V  V83  1  0.37415040  -0.00003279  0.87514180  1
  V  V84  1  0.49914667  0.49916479  -0.00051542  1
  V  V85  1  0.25054864  0.87601201  0.62549535  1
  V  V86  1  0.12475865  0.87482608  0.24895643  1
  V  V87  1  0.25076696  0.75068293  0.49939290  1
  V  V88  1  0.49893810  0.12490158  0.12593352  1
  V  V89  1  0.87577932  0.49975087  0.37463767  1
  V  V90  1  0.37541696  0.37516094  -0.00086223  1
  V  V91  1  0.87411922  0.50043830  0.87413710  1
  V  V92  1  0.74886882  0.24983553  0.00128436  1
  V  V93  1  0.12468047  0.49911961  0.12433165  1
  V  V94  1  0.00014140  0.62533904  0.62367030  1
  V  V95  1  0.74977069  -0.00013096  0.25113822  1
  Zn  Zn96  1  0.37630454  0.62477277  0.75069068  1
  Zn  Zn97  1  0.49895084  0.62408654  0.12548769  1
  Zn  Zn98  1  0.87393147  0.62404991  0.74732113  1
  Zn  Zn99  1  -0.00240714  0.37570662  0.87343588  1
  Zn  Zn100  1  0.37384222  0.62443325  0.25047877  1
  Zn  Zn101  1  0.12451571  0.49882548  0.62256521  1
  Zn  Zn102  1  0.49747301  0.37586321  0.87422374  1
  Zn  Zn103  1  0.37570597  0.50071903  0.87576877  1
  Zn  Zn104  1  0.00149011  0.49973667  0.49975342  1
  Zn  Zn105  1  0.24927686  -0.00063547  0.24984988  1
  Zn  Zn106  1  0.62489264  0.87534189  0.75033519  1
  Zn  Zn107  1  0.62393978  0.25124747  0.87722875  1
  Zn  Zn108  1  0.62511358  0.87603376  0.25237390  1
  Zn  Zn109  1  0.62483248  0.37605150  0.25049584  1
  Zn  Zn110  1  0.62613482  -0.00158286  0.62560118  1
  Zn  Zn111  1  -0.00064668  0.12449474  0.12486023  1
  Zn  Zn112  1  0.25175737  0.24958700  0.49963123  1
  Zn  Zn113  1  0.50194710  0.87606140  0.37606570  1
  Zn  Zn114  1  -0.00065309  0.87496404  0.37418389  1
  Zn  Zn115  1  0.87784757  0.25025094  0.62691989  1
  Zn  Zn116  1  0.24982082  0.74869587  -0.00127256  1
  Zn  Zn117  1  0.49860424  0.62481224  0.62618488  1
  Zn  Zn118  1  0.62677819  0.12287734  0.50131446  1
  Zn  Zn119  1  0.12473829  0.87710159  0.74988454  1
  Zn  Zn120  1  0.00240554  0.12687218  0.62723198  1
  Zn  Zn121  1  -0.00179251  0.25105437  0.74844137  1
  Zn  Zn122  1  0.37580861  0.24950721  0.62353010  1
  Zn  Zn123  1  0.25011997  0.12418675  0.87460441  1
  Zn  Zn124  1  0.75288363  0.37457674  0.62641246  1
  Zn  Zn125  1  0.25206325  0.62574605  0.37239161  1
  Zn  Zn126  1  0.87636046  0.87352018  0.49889048  1
  Zn  Zn127  1  0.87540696  0.74994966  0.62237701  1
  Zn  Zn128  1  0.18707800  0.18525783  0.18750145  1
  Zn  Zn129  1  0.18877797  0.18715940  0.68708189  1
  Zn  Zn130  1  0.18855297  0.68632579  0.18696200  1
  Zn  Zn131  1  0.18679629  0.68898639  0.68643371  1
  Zn  Zn132  1  0.68669997  0.18758689  0.18931082  1
  Zn  Zn133  1  0.68850128  0.18809612  0.68782774  1
  Zn  Zn134  1  0.68620463  0.68721594  0.18725539  1
  Zn  Zn135  1  0.68528577  0.68803923  0.68728174  1
  Zn  Zn136  1  0.31279976  0.31237017  0.31324634  1
  Zn  Zn137  1  0.31284769  0.31262473  0.81348050  1
  Zn  Zn138  1  0.31204260  0.81425964  0.31228991  1
  Zn  Zn139  1  0.31227368  0.81258507  0.81136486  1
  Zn  Zn140  1  0.81215677  0.31295227  0.31338993  1
  Zn  Zn141  1  0.80965839  0.31249846  0.81542824  1
  Zn  Zn142  1  0.81316908  0.81420911  0.31340473  1
  Zn  Zn143  1  0.81353977  0.81158508  0.81108698  1
  Zn  Zn144  1  0.18820856  0.43853621  0.43673185  1
  Zn  Zn145  1  0.18821469  0.43708166  0.93643756  1
  Zn  Zn146  1  0.18835231  0.93758748  0.43648057  1
  Zn  Zn147  1  0.18764657  0.93601779  0.93705710  1
  Zn  Zn148  1  0.68822871  0.43662086  0.43657884  1
  Zn  Zn149  1  0.68654319  0.43781282  0.93638176  1
  Zn  Zn150  1  0.68584304  0.93658955  0.43984866  1
  Zn  Zn151  1  0.68611545  0.93818434  0.93822220  1
  Zn  Zn152  1  0.30990714  0.06210525  0.06257782  1
  Zn  Zn153  1  0.31432281  0.06302190  0.56273003  1
  Zn  Zn154  1  0.31202145  0.56307589  0.06226873  1
  Zn  Zn155  1  0.31336140  0.56279441  0.56258158  1
  Zn  Zn156  1  0.81208749  0.06307829  0.06402812  1
  Zn  Zn157  1  0.81427491  0.06092396  0.56458631  1
  Zn  Zn158  1  0.81141292  0.56287071  0.06130944  1
  Zn  Zn159  1  0.81272555  0.56187011  0.56256807  1
  Zn  Zn160  1  0.43752051  0.43628780  0.18692088  1
  Zn  Zn161  1  0.43748985  0.43880869  0.68536275  1
  Zn  Zn162  1  0.43683762  0.93585235  0.18928586  1
  Zn  Zn163  1  0.43672020  0.93610315  0.68827139  1
  Zn  Zn164  1  0.93713682  0.43717821  0.18718426  1
  Zn  Zn165  1  0.93850348  0.44009367  0.68630306  1
  Zn  Zn166  1  0.93769186  0.93744612  0.18748940  1
  Zn  Zn167  1  0.93620427  0.93907878  0.68609724  1
  Zn  Zn168  1  0.06246630  0.06184477  0.31213743  1
  Zn  Zn169  1  0.06236494  0.06272446  0.81330404  1
  Zn  Zn170  1  0.06282128  0.56241000  0.31276065  1
  Zn  Zn171  1  0.06287279  0.56226357  0.81144665  1
  Zn  Zn172  1  0.56278469  0.06384207  0.31484278  1
  Zn  Zn173  1  0.56426193  0.06112730  0.81315996  1
  Zn  Zn174  1  0.56161886  0.56444204  0.31158079  1
  Zn  Zn175  1  0.56148063  0.56351439  0.81304451  1
  Zn  Zn176  1  0.43659250  0.18777661  0.43928465  1
  Zn  Zn177  1  0.43766901  0.18744864  0.93630111  1
  Zn  Zn178  1  0.43788498  0.68602269  0.43651093  1
  Zn  Zn179  1  0.43609605  0.68532464  0.93679039  1
  Zn  Zn180  1  0.93894931  0.18601637  0.43684730  1
  Zn  Zn181  1  0.93803620  0.18809187  0.93731435  1
  Zn  Zn182  1  0.93820187  0.68989340  0.43661630  1
  Zn  Zn183  1  0.93685757  0.68629562  0.93579508  1
  Zn  Zn184  1  0.06041154  0.31259491  0.06205089  1
  Zn  Zn185  1  0.06176244  0.30793483  0.56396140  1
  Zn  Zn186  1  0.06237573  0.81194610  0.06128465  1
  Zn  Zn187  1  0.06505642  0.81401462  0.56223758  1
  Zn  Zn188  1  0.56222814  0.31390493  0.06445210  1
  Zn  Zn189  1  0.56360256  0.31288641  0.56360269  1
  Zn  Zn190  1  0.56208615  0.81372955  0.06326031  1
  Zn  Zn191  1  0.56372184  0.81211136  0.56352767  1
  O  O192  1  0.12256397  0.11828952  0.11804103  1
  O  O193  1  0.12576660  0.11838910  0.61797047  1
  O  O194  1  0.11906340  0.61861877  0.11918083  1
  O  O195  1  0.11693884  0.62625287  0.61465276  1
  O  O196  1  0.61867640  0.11965195  0.12088408  1
  O  O197  1  0.61308287  0.12380545  0.62517599  1
  O  O198  1  0.62405333  0.61861194  0.11713863  1
  O  O199  1  0.62420097  0.61787190  0.61701764  1
  O  O200  1  0.38104704  0.38018077  0.38050661  1
  O  O201  1  0.37638640  0.37816277  0.88371624  1
  O  O202  1  0.37629417  0.88173437  0.38215902  1
  O  O203  1  0.38028289  0.88015602  0.88121956  1
  O  O204  1  0.88056830  0.37945384  0.38229082  1
  O  O205  1  0.87492955  0.38210083  0.88202520  1
  O  O206  1  0.87813112  0.88406594  0.37768048  1
  O  O207  1  0.87949387  0.88032906  0.88088121  1
  O  O208  1  0.25715309  0.00702133  0.37326420  1
  O  O209  1  0.25636888  0.00068803  0.86873339  1
  O  O210  1  0.25679910  0.49936089  0.36735826  1
  O  O211  1  0.24884419  0.50547537  0.86518766  1
  O  O212  1  0.75493495  0.00574140  0.37127834  1
  O  O213  1  0.75571283  0.00512510  0.87183781  1
  O  O214  1  0.75587918  0.50584968  0.36927543  1
  O  O215  1  0.75395538  0.50610935  0.86945799  1
  O  O216  1  0.24359196  0.49320932  0.12918943  1
  O  O217  1  0.24769859  0.49073790  0.63297755  1
  O  O218  1  0.24241332  0.99239245  0.12559913  1
  O  O219  1  0.24631900  0.99518582  0.63005758  1
  O  O220  1  0.74536256  0.49551568  0.12965757  1
  O  O221  1  0.74380855  0.49769398  0.63108896  1
  O  O222  1  0.74479520  0.99551749  0.13084768  1
  O  O223  1  0.74984323  0.99102971  0.63126753  1
  O  O224  1  0.00517160  0.36942506  0.25488949  1
  O  O225  1  0.01318690  0.37555273  0.75039627  1
  O  O226  1  0.00655722  0.86713742  0.24920271  1
  O  O227  1  0.00002659  0.86693320  0.75486766  1
  O  O228  1  0.50076247  0.36768751  0.25687759  1
  O  O229  1  0.50717224  0.36742503  0.74855059  1
  O  O230  1  0.50239222  0.86280928  0.25199924  1
  O  O231  1  0.50120935  0.86839444  0.75798161  1
  O  O232  1  0.49398370  0.13080419  0.24495453  1
  O  O233  1  0.49692736  0.13140195  0.74393486  1
  O  O234  1  0.49739648  0.63791481  0.24690593  1
  O  O235  1  0.49730646  0.63297083  0.74815448  1
  O  O236  1  0.99313372  0.13179242  0.24893551  1
  O  O237  1  0.98715565  0.12588555  0.75251279  1
  O  O238  1  0.99498197  0.62982534  0.24335790  1
  O  O239  1  1.00181003  0.63293323  0.73997615  1
  O  O240  1  0.36983438  0.25386662  0.00557003  1
  O  O241  1  0.37250551  0.25930671  0.50319154  1
  O  O242  1  0.37541801  0.75617755  0.01004579  1
  O  O243  1  0.37025892  0.75504241  0.50456662  1
  O  O244  1  0.86891520  0.25526972  0.00554174  1
  O  O245  1  0.86735035  0.25826718  0.49722970  1
  O  O246  1  0.86943138  0.75493946  0.00482923  1
  O  O247  1  0.86731109  0.75282425  0.50099480  1
  O  O248  1  0.12688445  0.24299456  0.49213736  1
  O  O249  1  0.12920520  0.24669102  0.99312418  1
  O  O250  1  0.13069377  0.74377630  0.49426572  1
  O  O251  1  0.12463921  0.74189234  0.99317247  1
  O  O252  1  0.63619805  0.25002317  0.49546286  1
  O  O253  1  0.63041655  0.24370464  1.00116949  1
  O  O254  1  0.63089886  0.74352832  0.49416891  1
  O  O255  1  0.62982695  0.74526067  0.99552379  1
  O  O256  1  0.49395122  0.24428254  0.13072428  1
  O  O257  1  0.50025663  0.24198096  0.63489394  1
  O  O258  1  0.49126346  0.75077271  0.13231451  1
  O  O259  1  0.49408298  0.74952201  0.63209378  1
  O  O260  1  0.99237709  0.24929211  0.13148218  1
  O  O261  1  0.99560839  0.24380498  0.63048454  1
  O  O262  1  0.99390534  0.74355620  0.12901889  1
  O  O263  1  1.00111974  0.74371242  0.63187401  1
  O  O264  1  0.00589749  0.25518525  0.36855843  1
  O  O265  1  0.01261901  0.25396700  0.87358823  1
  O  O266  1  0.00715515  0.75173275  0.36695671  1
  O  O267  1  0.00390451  0.75358004  0.86704692  1
  O  O268  1  0.50505149  0.25458598  0.37116830  1
  O  O269  1  0.50301984  0.25090947  0.86209961  1
  O  O270  1  0.50543682  0.75072921  0.36600689  1
  O  O271  1  0.50410302  0.75514670  0.87110466  1
  O  O272  1  0.24472112  0.12637909  0.49371123  1
  O  O273  1  0.24268532  0.13202709  0.99821804  1
  O  O274  1  0.23961720  0.63116142  0.50013069  1
  O  O275  1  0.24181615  0.62526971  0.99296530  1
  O  O276  1  0.75214569  0.13459070  0.49545573  1
  O  O277  1  0.74442210  0.12995355  0.99685109  1
  O  O278  1  0.74539233  0.62952099  0.49364184  1
  O  O279  1  0.74398974  0.63108898  0.99428387  1
  O  O280  1  0.25429155  0.36916950  0.00605799  1
  O  O281  1  0.25447492  0.37608158  0.50970767  1
  O  O282  1  0.25667973  0.87191155  0.00583155  1
  O  O283  1  0.25619730  0.87018786  0.50573192  1
  O  O284  1  0.75449429  0.37031333  0.00568755  1
  O  O285  1  0.76010738  0.36631145  0.49856316  1
  O  O286  1  0.75533244  0.86995496  0.00537470  1
  O  O287  1  0.75129925  0.86911305  0.50960337  1
  O  O288  1  0.12903629  0.49327143  0.24387245  1
  O  O289  1  0.13444180  0.49032271  0.74886605  1
  O  O290  1  0.12496755  0.99327401  0.24229867  1
  O  O291  1  0.13117499  1.00017834  0.74383170  1
  O  O292  1  0.63169220  0.50028463  0.24346138  1
  O  O293  1  0.62883056  0.49291417  0.74508350  1
  O  O294  1  0.63139039  1.00024755  0.24456288  1
  O  O295  1  0.63400572  0.99653666  0.74854067  1
  O  O296  1  0.37424338  0.00649075  0.25639652  1
  O  O297  1  0.37028880  0.00508286  0.75607791  1
  O  O298  1  0.36904849  0.49965423  0.25456682  1
  O  O299  1  0.36226827  0.49968308  0.75096401  1
  O  O300  1  0.86966569  0.00560176  0.25497823  1
  O  O301  1  0.86962367  0.00789329  0.75735185  1
  O  O302  1  0.86974922  0.50598624  0.25436647  1
  O  O303  1  0.86804402  0.50075164  0.75578214  1
  O  O304  1  0.12016098  0.36962107  0.36936745  1
  O  O305  1  0.12543998  0.36716395  0.86604582  1
  O  O306  1  0.12437598  0.86863539  0.36731325  1
  O  O307  1  0.11670751  0.86842932  0.87370053  1
  O  O308  1  0.61858166  0.36860385  0.37355909  1
  O  O309  1  0.62224259  0.37405634  0.86168493  1
  O  O310  1  0.62313503  0.86595316  0.37261601  1
  O  O311  1  0.61789616  0.86825314  0.87656137  1
  O  O312  1  0.37962190  0.12975710  0.12998891  1
  O  O313  1  0.38672677  0.12642994  0.63188799  1
  O  O314  1  0.37588783  0.63738675  0.12605431  1
  O  O315  1  0.37653166  0.63335818  0.62740614  1
  O  O316  1  0.87525438  0.13221727  0.13218407  1
  O  O317  1  0.87540698  0.12477151  0.63960469  1
  O  O318  1  0.87989494  0.63014466  0.12955920  1
  O  O319  1  0.88790153  0.62708143  0.62461530  1
  O  O320  1  0.25475566  0.25474588  0.11999154  1
  O  O321  1  0.25275750  0.26317256  0.62509387  1
  O  O322  1  0.25959811  0.75525537  0.12354580  1
  O  O323  1  0.25492502  0.75622590  0.61934739  1
  O  O324  1  0.75505397  0.25556341  0.12108291  1
  O  O325  1  0.75371318  0.25185035  0.61327309  1
  O  O326  1  0.75525070  0.75486015  0.11924433  1
  O  O327  1  0.75173627  0.75700249  0.62016828  1
  O  O328  1  0.24321957  0.24365064  0.37551558  1
  O  O329  1  0.23927600  0.24941261  0.88086913  1
  O  O330  1  0.24414826  0.74827881  0.38154279  1
  O  O331  1  0.24252589  0.74352651  0.87498166  1
  O  O332  1  0.74612639  0.24534040  0.38299989  1
  O  O333  1  0.74637452  0.24318519  0.88421662  1
  O  O334  1  0.74541910  0.74393257  0.37902859  1
  O  O335  1  0.74515543  0.74576223  0.88060419  1
  O  O336  1  0.00565397  0.11793792  0.00091910  1
  O  O337  1  0.00681422  0.11434666  0.49980524  1
  O  O338  1  0.00440690  0.61893664  0.00505140  1
  O  O339  1  0.00946214  0.62728547  0.50706262  1
  O  O340  1  0.50396873  0.11995869  0.00668120  1
  O  O341  1  0.50003961  0.12031748  0.51089393  1
  O  O342  1  0.50570402  0.61668566  0.00159509  1
  O  O343  1  0.50814190  0.61788551  0.50016501  1
  O  O344  1  0.49576596  0.38068655  0.49506448  1
  O  O345  1  0.49446539  0.38195903  0.99940625  1
  O  O346  1  0.49353336  0.88163370  0.50043878  1
  O  O347  1  0.49409232  0.88171161  0.99551652  1
  O  O348  1  0.99179339  0.37456716  0.49398941  1
  O  O349  1  0.99227907  0.38220991  0.99913281  1
  O  O350  1  1.00058078  0.88795493  0.49873758  1
  O  O351  1  0.99303348  0.87949205  0.99402233  1
  O  O352  1  0.49565943  0.49421590  0.37947908  1
  O  O353  1  0.49813704  0.49793716  0.88619648  1
  O  O354  1  0.49349526  0.99989196  0.38225345  1
  O  O355  1  0.49422650  0.99492238  0.88156489  1
  O  O356  1  0.99342392  0.49298897  0.37557184  1
  O  O357  1  0.99339255  0.49930319  0.88072010  1
  O  O358  1  0.99513043  0.99934987  0.38410524  1
  O  O359  1  0.99402343  0.99385857  0.88061600  1
  O  O360  1  0.00553989  0.00040570  0.11712614  1
  O  O361  1  0.00620018  0.00242917  0.61618774  1
  O  O362  1  0.00490322  0.50517112  0.11949471  1
  O  O363  1  0.00440016  0.51240634  0.62221139  1
  O  O364  1  0.50396437  0.00526595  0.12067445  1
  O  O365  1  0.50040697  0.00878121  0.62132142  1
  O  O366  1  0.50582397  0.50056175  0.11680122  1
  O  O367  1  0.50732760  0.50114094  0.61713725  1
  O  O368  1  0.24403709  0.37900411  0.24355829  1
  O  O369  1  0.24343777  0.38156636  0.74348416  1
  O  O370  1  0.24266206  0.87647818  0.24201278  1
  O  O371  1  0.24870892  0.88250252  0.74312813  1
  O  O372  1  0.74972498  0.38232989  0.24415173  1
  O  O373  1  0.74052462  0.38033190  0.74893937  1
  O  O374  1  0.74954887  0.88194819  0.24278314  1
  O  O375  1  0.75063786  0.87991646  0.74258812  1
  O  O376  1  0.25696365  0.12312197  0.25608872  1
  O  O377  1  0.25823734  0.11906330  0.75078652  1
  O  O378  1  0.25117898  0.61529572  0.25145397  1
  O  O379  1  0.24701129  0.61501725  0.75395717  1
  O  O380  1  0.75578223  0.11973172  0.25614769  1
  O  O381  1  0.75684338  0.12016701  0.75632892  1
  O  O382  1  0.75629392  0.62052989  0.25483719  1
  O  O383  1  0.75054708  0.61907816  0.75620479  1
  O  O384  1  0.37022196  0.12021765  0.37030056  1
  O  O385  1  0.37391923  0.11770951  0.86919521  1
  O  O386  1  0.37223451  0.61595675  0.37265710  1
  O  O387  1  0.36452042  0.62172233  0.87244006  1
  O  O388  1  0.86933402  0.11962665  0.36915121  1
  O  O389  1  0.86848466  0.12018707  0.86940179  1
  O  O390  1  0.87082103  0.61965283  0.36901902  1
  O  O391  1  0.86744266  0.61816863  0.87345796  1
  O  O392  1  0.12968507  0.37956147  0.12985603  1
  O  O393  1  0.13353298  0.37496975  0.63303923  1
  O  O394  1  0.12948418  0.87894943  0.12843754  1
  O  O395  1  0.13321676  0.88290188  0.62589349  1
  O  O396  1  0.63227513  0.38218118  0.12723865  1
  O  O397  1  0.62705317  0.38079562  0.63541953  1
  O  O398  1  0.63181978  0.88242268  0.12599047  1
  O  O399  1  0.63871639  0.87515801  0.62804771  1
  O  O400  1  0.11957592  0.25526653  0.25421277  1
  O  O401  1  0.12749846  0.25855773  0.75854436  1
  O  O402  1  0.11994296  0.75426297  0.25305062  1
  O  O403  1  0.11381126  0.75182217  0.75516606  1
  O  O404  1  0.61798966  0.25145742  0.25714796  1
  O  O405  1  0.61772930  0.25851676  0.75003718  1
  O  O406  1  0.61660155  0.75060438  0.25470779  1
  O  O407  1  0.61763678  0.75152329  0.75838169  1
  O  O408  1  0.38036692  0.24423253  0.24448795  1
  O  O409  1  0.38490057  0.24548512  0.74858997  1
  O  O410  1  0.38227937  0.75078614  0.24132351  1
  O  O411  1  0.38137650  0.74938407  0.74345800  1
  O  O412  1  0.87948209  0.24553552  0.24589399  1
  O  O413  1  0.87400572  0.24003943  0.75191114  1
  O  O414  1  0.87995874  0.74427804  0.24399867  1
  O  O415  1  0.88864075  0.74651984  0.74865618  1
  O  O416  1  0.38082176  0.49437350  0.49429328  1
  O  O417  1  0.38250070  0.49334689  1.00197336  1
  O  O418  1  0.38127948  0.99476835  0.49528480  1
  O  O419  1  0.38014141  0.99519515  0.99586690  1
  O  O420  1  0.87570078  0.49003849  0.49321540  1
  O  O421  1  0.87895182  0.49528780  0.99478635  1
  O  O422  1  0.88535991  1.00097974  0.49473752  1
  O  O423  1  0.87903657  0.99493606  0.99545974  1
  O  O424  1  0.11915570  0.00461595  0.00376330  1
  O  O425  1  0.11871059  0.00527830  0.50413232  1
  O  O426  1  0.11932999  0.50369408  0.00511827  1
  O  O427  1  0.12331725  0.51188298  0.50039607  1
  O  O428  1  0.61868517  0.00610252  0.00698085  1
  O  O429  1  0.61689437  0.00352110  0.50408977  1
  O  O430  1  0.61860155  0.50461210  0.00475358  1
  O  O431  1  0.62120241  0.50400925  0.50367573  1
  O  O432  1  0.36868003  0.36761003  0.11951058  1
  O  O433  1  0.36585220  0.37533121  0.61941672  1
  O  O434  1  0.36988704  0.86753776  0.12019667  1
  O  O435  1  0.36934531  0.86937130  0.61881793  1
  O  O436  1  0.86863891  0.37011922  0.11969116  1
  O  O437  1  0.87475800  0.37433053  0.61282230  1
  O  O438  1  0.86921569  0.86926225  0.11907017  1
  O  O439  1  0.86318592  0.87329621  0.62297267  1
  O  O440  1  0.13080965  0.12962365  0.37917774  1
  O  O441  1  0.12642770  0.13485087  0.88037889  1
  O  O442  1  0.12515693  0.63144910  0.38417035  1
  O  O443  1  0.12939824  0.62996406  0.87962413  1
  O  O444  1  0.63255357  0.13257024  0.37829372  1
  O  O445  1  0.63091977  0.12561955  0.88362990  1
  O  O446  1  0.63217034  0.62995051  0.38030004  1
  O  O447  1  0.63070153  0.63097289  0.88155093  1
