# generated using pymatgen
data_V3Zn3O8
_symmetry_space_group_name_H-M   'P 1'
_cell_length_a   17.08940276
_cell_length_b   17.08839109
_cell_length_c   17.09050579
_cell_angle_alpha   90.01235698
_cell_angle_beta   89.99531408
_cell_angle_gamma   90.01203012
_symmetry_Int_Tables_number   1
_chemical_formula_structural   V3Zn3O8
_chemical_formula_sum   'V96 Zn96 O256'
_cell_volume   4990.94696523
_cell_formula_units_Z   32
loop_
 _symmetry_equiv_pos_site_id
 _symmetry_equiv_pos_as_xyz
  1  'x, y, z'
loop_
 _atom_site_type_symbol
 _atom_site_label
 _atom_site_symmetry_multiplicity
 _atom_site_fract_x
 _atom_site_fract_y
 _atom_site_fract_z
 _atom_site_occupancy
  V  V0  1  0.49925726  0.75009432  0.24912070  1
  V  V1  1  0.12549672  -0.00071478  0.62569761  1
  V  V2  1  0.49933871  0.74944443  0.75013779  1
  V  V3  1  0.12659559  0.37397564  0.24972118  1
  V  V4  1  0.00008330  -0.00096131  0.49995319  1
  V  V5  1  0.25081166  0.50041717  0.75057041  1
  V  V6  1  0.12404957  0.87398518  0.25050072  1
  V  V7  1  0.25040493  0.37490461  0.62548928  1
  V  V8  1  0.12445527  0.50041262  0.62416996  1
  V  V9  1  0.25008408  -0.00046786  0.25050006  1
  V  V10  1  0.24968898  0.62366607  0.37402474  1
  V  V11  1  0.37503756  0.24968640  0.12550252  1
  V  V12  1  0.74992643  0.24879441  0.50035152  1
  V  V13  1  0.00024462  0.62511244  0.62315340  1
  V  V14  1  0.00017002  0.87428654  0.37523094  1
  V  V15  1  0.50107935  0.62489174  0.12412005  1
  V  V16  1  0.37495283  -0.00041984  0.87572460  1
  V  V17  1  0.62405946  0.87496151  0.75056552  1
  V  V18  1  0.50017976  -0.00075900  0.50070246  1
  V  V19  1  0.37453112  0.74997651  0.12543465  1
  V  V20  1  0.50065964  0.12470644  0.12536799  1
  V  V21  1  0.37461891  0.12417777  0.25062601  1
  V  V22  1  0.87397177  0.87631644  -0.00005487  1
  V  V23  1  0.50131390  0.37555310  0.87480381  1
  V  V24  1  0.37376441  0.87427735  0.50079490  1
  V  V25  1  0.00029830  0.37561718  0.87506470  1
  V  V26  1  0.87632782  0.37611824  -0.00004523  1
  V  V27  1  0.50189021  0.50111803  -0.00024378  1
  V  V28  1  0.49972666  0.12466899  0.62521706  1
  V  V29  1  0.49992609  0.24962857  0.25100335  1
  V  V30  1  0.62617254  0.37539096  0.75025694  1
  V  V31  1  0.12432539  -0.00006789  0.12477621  1
  V  V32  1  0.50093958  0.50029303  0.50031164  1
  V  V33  1  0.24767135  0.74923557  0.49980927  1
  V  V34  1  0.87596422  0.25002671  0.62581310  1
  V  V35  1  0.62545227  0.24949578  0.37609575  1
  V  V36  1  0.25035052  0.24977876  -0.00024283  1
  V  V37  1  0.75028800  0.00106014  0.25095276  1
  V  V38  1  -0.00026003  0.87558792  0.87443858  1
  V  V39  1  0.87431443  0.00115883  0.87464210  1
  V  V40  1  0.12423868  0.75079616  0.87484494  1
  V  V41  1  0.62489495  0.00025837  0.62588966  1
  V  V42  1  0.62467821  0.87525504  0.24993322  1
  V  V43  1  0.12441465  0.87583307  0.75040158  1
  V  V44  1  -0.00235527  0.74752088  0.24831790  1
  V  V45  1  0.62494312  0.12566323  0.00098834  1
  V  V46  1  0.12572683  0.37474833  0.74990743  1
  V  V47  1  0.24948147  -0.00084326  0.75010379  1
  V  V48  1  0.75008938  0.37518219  0.62617876  1
  V  V49  1  0.37567883  0.12501186  0.75020289  1
  V  V50  1  0.62473527  0.00111834  0.12503577  1
  V  V51  1  0.74928063  0.87546074  0.12489308  1
  V  V52  1  0.24826217  0.74893765  0.00003264  1
  V  V53  1  0.74986666  0.12468509  0.87528494  1
  V  V54  1  0.75002079  0.50086855  0.74885008  1
  V  V55  1  0.74947571  -0.00017287  0.75047306  1
  V  V56  1  0.00019696  0.12581282  0.62520692  1
  V  V57  1  0.37586466  0.24925172  0.62611786  1
  V  V58  1  0.74980640  0.12535644  0.37503621  1
  V  V59  1  0.37585631  0.37436232  0.50074144  1
  V  V60  1  0.87468834  0.74979567  0.12562065  1
  V  V61  1  0.25031985  0.24927701  0.50071998  1
  V  V62  1  0.00130872  0.24888608  0.25040351  1
  V  V63  1  0.62777739  0.37712183  0.24797284  1
  V  V64  1  0.37493164  0.87534890  -0.00013880  1
  V  V65  1  0.49946967  0.62475467  0.62513751  1
  V  V66  1  0.25092607  0.37519538  0.12531976  1
  V  V67  1  0.12417135  0.50128559  0.12288763  1
  V  V68  1  -0.00014291  0.00131503  0.00058704  1
  V  V69  1  0.49960125  0.87510156  0.37532137  1
  V  V70  1  -0.00001798  0.12495938  0.12587402  1
  V  V71  1  0.12529300  0.25046745  0.37490013  1
  V  V72  1  0.00044039  0.24988707  0.74948355  1
  V  V73  1  0.74946216  0.74978020  0.50050547  1
  V  V74  1  0.74906525  0.62657194  0.87487581  1
  V  V75  1  0.75101899  0.25201120  0.00074329  1
  V  V76  1  0.87514706  0.62715450  0.74857163  1
  V  V77  1  0.24867021  0.62531759  0.87439911  1
  V  V78  1  0.62519837  0.25075148  0.87490958  1
  V  V79  1  0.74963925  0.75015815  -0.00072113  1
  V  V80  1  0.25038739  0.12536325  0.87602279  1
  V  V81  1  0.87726526  0.37677356  0.49867444  1
  V  V82  1  0.37474628  0.62501389  0.74984526  1
  V  V83  1  0.87508594  0.12574202  0.25044941  1
  V  V84  1  0.12617801  0.24968031  0.87543200  1
  V  V85  1  0.87442178  0.50095942  0.37095849  1
  V  V86  1  0.12547470  0.12449390  0.50025205  1
  V  V87  1  0.37440820  0.49960251  0.37471225  1
  V  V88  1  0.87408018  0.87509163  0.50081681  1
  V  V89  1  0.25055820  0.12388703  0.37491345  1
  V  V90  1  0.49996285  0.37450681  0.37582647  1
  V  V91  1  0.62386809  0.62498815  0.49951513  1
  V  V92  1  0.37683427  0.37465346  -0.00004202  1
  V  V93  1  0.62405043  0.74969307  0.37538131  1
  V  V94  1  0.24986327  0.87415583  0.12583880  1
  V  V95  1  0.49876323  0.87454211  0.87482955  1
  Zn  Zn96  1  0.74902148  0.62315440  0.37205980  1
  Zn  Zn97  1  0.12302546  0.62362073  0.49807689  1
  Zn  Zn98  1  0.62606813  0.62625407  -0.00077437  1
  Zn  Zn99  1  -0.00209447  0.62351853  0.12122755  1
  Zn  Zn100  1  0.12470969  0.12555771  0.00060618  1
  Zn  Zn101  1  0.75216704  0.37759760  0.12481371  1
  Zn  Zn102  1  0.62498666  0.12418291  0.50077891  1
  Zn  Zn103  1  0.87468503  0.25159794  0.12631904  1
  Zn  Zn104  1  0.62563463  0.49945842  0.62344778  1
  Zn  Zn105  1  0.00229150  0.50088699  0.49654845  1
  Zn  Zn106  1  0.62369773  0.75100018  0.87612931  1
  Zn  Zn107  1  0.87477932  0.12518475  0.75017859  1
  Zn  Zn108  1  0.12258580  0.74639254  0.37403946  1
  Zn  Zn109  1  0.24875833  0.87303025  0.62551023  1
  Zn  Zn110  1  0.00012485  0.50315063  -0.00250243  1
  Zn  Zn111  1  -0.00030805  0.75174454  0.74903397  1
  Zn  Zn112  1  0.37337492  0.74948378  0.62569700  1
  Zn  Zn113  1  0.87472999  0.00123952  0.37565903  1
  Zn  Zn114  1  0.87122137  0.62260965  0.24718919  1
  Zn  Zn115  1  0.74974878  0.50360466  0.24598559  1
  Zn  Zn116  1  0.37437946  0.49995082  0.87480251  1
  Zn  Zn117  1  0.87779691  0.50113253  0.87550083  1
  Zn  Zn118  1  0.87568685  0.75055616  0.62395558  1
  Zn  Zn119  1  0.00215727  0.37639863  0.37389616  1
  Zn  Zn120  1  0.37536618  0.00005202  0.37485948  1
  Zn  Zn121  1  0.74984034  0.87564159  0.62632853  1
  Zn  Zn122  1  0.12216597  0.62487824  -0.00071340  1
  Zn  Zn123  1  0.25159599  0.50051509  0.24871311  1
  Zn  Zn124  1  0.62833741  0.50074581  0.12480319  1
  Zn  Zn125  1  0.50072098  0.25083124  0.75010405  1
  Zn  Zn126  1  0.50011849  -0.00040127  0.00023525  1
  Zn  Zn127  1  0.37510793  0.62311493  0.24982052  1
  Zn  Zn128  1  0.18707074  0.18662774  0.18700315  1
  Zn  Zn129  1  0.18816091  0.18658435  0.68833215  1
  Zn  Zn130  1  0.18583522  0.68609684  0.18853126  1
  Zn  Zn131  1  0.18632644  0.68829923  0.68774139  1
  Zn  Zn132  1  0.68920428  0.19061912  0.18696829  1
  Zn  Zn133  1  0.68720757  0.18685260  0.68850679  1
  Zn  Zn134  1  0.68797024  0.68692679  0.18801926  1
  Zn  Zn135  1  0.68480488  0.68865655  0.68593611  1
  Zn  Zn136  1  0.31176419  0.31215100  0.31256595  1
  Zn  Zn137  1  0.31435743  0.31273926  0.81330043  1
  Zn  Zn138  1  0.31287499  0.81082558  0.31334410  1
  Zn  Zn139  1  0.31181742  0.81168992  0.81246111  1
  Zn  Zn140  1  0.81303013  0.31228002  0.31305393  1
  Zn  Zn141  1  0.81330221  0.31231772  0.81371006  1
  Zn  Zn142  1  0.81233889  0.81294859  0.31421153  1
  Zn  Zn143  1  0.81201866  0.81277065  0.81236174  1
  Zn  Zn144  1  0.18735016  0.43826155  0.43837003  1
  Zn  Zn145  1  0.18816534  0.43728483  0.93783431  1
  Zn  Zn146  1  0.18635673  0.93638632  0.43564286  1
  Zn  Zn147  1  0.18706689  0.93732265  0.93826640  1
  Zn  Zn148  1  0.68908084  0.43772537  0.43581895  1
  Zn  Zn149  1  0.68947176  0.43970593  0.93618761  1
  Zn  Zn150  1  0.68687118  0.93815554  0.43781366  1
  Zn  Zn151  1  0.68560188  0.93810527  0.93712631  1
  Zn  Zn152  1  0.31228558  0.06217129  0.06248414  1
  Zn  Zn153  1  0.31288343  0.06070999  0.56348906  1
  Zn  Zn154  1  0.31254895  0.56254800  0.06085775  1
  Zn  Zn155  1  0.31320255  0.56260507  0.56270692  1
  Zn  Zn156  1  0.81268658  0.06450749  0.06362019  1
  Zn  Zn157  1  0.81218906  0.06275657  0.56361968  1
  Zn  Zn158  1  0.81300796  0.56107306  0.06390252  1
  Zn  Zn159  1  0.81218462  0.56204637  0.56075049  1
  Zn  Zn160  1  0.43830722  0.43842060  0.18850540  1
  Zn  Zn161  1  0.43864570  0.43884407  0.68795303  1
  Zn  Zn162  1  0.43731115  0.93825339  0.18721046  1
  Zn  Zn163  1  0.43717456  0.93705612  0.68713516  1
  Zn  Zn164  1  0.94043897  0.43536345  0.18686499  1
  Zn  Zn165  1  0.93777021  0.43969189  0.68803886  1
  Zn  Zn166  1  0.93649573  0.93786814  0.18821696  1
  Zn  Zn167  1  0.93705396  0.93874709  0.68739491  1
  Zn  Zn168  1  0.06242051  0.06167237  0.31335683  1
  Zn  Zn169  1  0.06261115  0.06363122  0.81283651  1
  Zn  Zn170  1  0.06253308  0.56057213  0.31028808  1
  Zn  Zn171  1  0.06263035  0.56256034  0.81176939  1
  Zn  Zn172  1  0.56292618  0.06215359  0.31406819  1
  Zn  Zn173  1  0.56163154  0.06207651  0.81283281  1
  Zn  Zn174  1  0.56181691  0.56274311  0.31297010  1
  Zn  Zn175  1  0.56365136  0.56170140  0.81133672  1
  Zn  Zn176  1  0.43786920  0.18625273  0.43834674  1
  Zn  Zn177  1  0.43900999  0.18773922  0.93763881  1
  Zn  Zn178  1  0.43593222  0.68742325  0.43749919  1
  Zn  Zn179  1  0.43492753  0.68784342  0.93630925  1
  Zn  Zn180  1  0.93757138  0.18772336  0.43637403  1
  Zn  Zn181  1  0.93750580  0.18835765  0.93810890  1
  Zn  Zn182  1  0.93567223  0.68622129  0.43537762  1
  Zn  Zn183  1  0.93845460  0.68830256  0.93854635  1
  Zn  Zn184  1  0.06220520  0.31274604  0.06294981  1
  Zn  Zn185  1  0.06262453  0.31276363  0.56229549  1
  Zn  Zn186  1  0.06195754  0.81330928  0.06188981  1
  Zn  Zn187  1  0.06293191  0.81078837  0.56336000  1
  Zn  Zn188  1  0.56304097  0.31209103  0.06312452  1
  Zn  Zn189  1  0.56369073  0.31165858  0.56387286  1
  Zn  Zn190  1  0.56316524  0.81179748  0.06038308  1
  Zn  Zn191  1  0.56159528  0.81237120  0.56524220  1
  O  O192  1  0.11886117  0.11707426  0.12413760  1
  O  O193  1  0.12018321  0.12002181  0.61927992  1
  O  O194  1  0.12508636  0.61302853  0.12379530  1
  O  O195  1  0.11534231  0.61902788  0.62609948  1
  O  O196  1  0.62023488  0.12101805  0.12111883  1
  O  O197  1  0.61784006  0.11863979  0.62418030  1
  O  O198  1  0.61098797  0.62521796  0.12245356  1
  O  O199  1  0.61753789  0.62272630  0.61731569  1
  O  O200  1  0.38009702  0.37811109  0.38159031  1
  O  O201  1  0.38244326  0.37622450  0.88234881  1
  O  O202  1  0.38056982  0.87552616  0.38490855  1
  O  O203  1  0.37879429  0.88038284  0.88032941  1
  O  O204  1  0.87627961  0.38109336  0.38443045  1
  O  O205  1  0.88188400  0.37564780  0.88264861  1
  O  O206  1  0.88020692  0.87711917  0.38646762  1
  O  O207  1  0.87952203  0.88131890  0.88060064  1
  O  O208  1  0.25054912  0.00644852  0.36820646  1
  O  O209  1  0.25512466  0.00540091  0.87020096  1
  O  O210  1  0.25599282  0.50862955  0.37593837  1
  O  O211  1  0.25055467  0.50594898  0.86795500  1
  O  O212  1  0.74987883  0.00662894  0.36824950  1
  O  O213  1  0.75485334  0.00539920  0.87069924  1
  O  O214  1  0.76162799  0.50015355  0.37236924  1
  O  O215  1  0.75310145  0.51142124  0.86820289  1
  O  O216  1  0.24339509  0.49338845  0.12542656  1
  O  O217  1  0.24505424  0.49403978  0.63028782  1
  O  O218  1  0.24487821  0.99386334  0.13081125  1
  O  O219  1  0.24275478  0.99869717  0.63186237  1
  O  O220  1  0.74475706  0.49511740  0.12767383  1
  O  O221  1  0.74913122  0.49303926  0.63046237  1
  O  O222  1  0.74414242  0.99518088  0.13102071  1
  O  O223  1  0.74328251  0.99930919  0.63206795  1
  O  O224  1  0.00920663  0.36593629  0.25144688  1
  O  O225  1  0.00622852  0.36936503  0.75381447  1
  O  O226  1  0.00385794  0.86805366  0.25484303  1
  O  O227  1  0.00558782  0.87536126  0.75670736  1
  O  O228  1  0.50629550  0.36857493  0.25639469  1
  O  O229  1  0.50714525  0.37486439  0.75669006  1
  O  O230  1  0.50524508  0.87013487  0.25466805  1
  O  O231  1  0.50330000  0.86965067  0.75539074  1
  O  O232  1  0.49489493  0.13032574  0.24556891  1
  O  O233  1  0.49269447  0.12635167  0.74387546  1
  O  O234  1  0.49881313  0.63116561  0.24042084  1
  O  O235  1  0.49490423  0.62905032  0.74565819  1
  O  O236  1  0.99520837  0.12876809  0.24577613  1
  O  O237  1  0.99949819  0.13200948  0.74303453  1
  O  O238  1  0.99860784  0.63874517  0.24752550  1
  O  O239  1  0.99039186  0.62563700  0.74218161  1
  O  O240  1  0.37073015  0.25493815  0.00632495  1
  O  O241  1  0.36943237  0.25490305  0.50585957  1
  O  O242  1  0.36805861  0.75609720  0.00593391  1
  O  O243  1  0.36608737  0.75846443  0.50022067  1
  O  O244  1  0.86927425  0.25958318  -0.00038635  1
  O  O245  1  0.87064681  0.25853027  0.50487886  1
  O  O246  1  0.86919235  0.75806705  0.00526878  1
  O  O247  1  0.86623461  0.75810509  0.49882779  1
  O  O248  1  0.13120024  0.24442541  0.49598921  1
  O  O249  1  0.13279699  0.24969607  0.99323041  1
  O  O250  1  0.13609500  0.74823938  0.49635041  1
  O  O251  1  0.13177507  0.75125804  0.99333168  1
  O  O252  1  0.63231901  0.24937585  0.49382792  1
  O  O253  1  0.63061320  0.24554277  0.99449947  1
  O  O254  1  0.63101212  0.74683662  0.49504968  1
  O  O255  1  0.63392678  0.74741228  0.99664326  1
  O  O256  1  0.49425015  0.24413662  0.13105035  1
  O  O257  1  0.49307551  0.24358961  0.62625728  1
  O  O258  1  0.49481122  0.74320837  0.12836065  1
  O  O259  1  0.49730309  0.74254524  0.63180076  1
  O  O260  1  1.00088139  0.24216333  0.13271372  1
  O  O261  1  0.99605488  0.24517592  0.62984012  1
  O  O262  1  0.99326545  0.75357487  0.13411043  1
  O  O263  1  0.99844592  0.73824366  0.62783386  1
  O  O264  1  0.00872155  0.25023754  0.36905708  1
  O  O265  1  0.00664360  0.25482496  0.86887654  1
  O  O266  1  -0.00040618  0.75541000  0.36514404  1
  O  O267  1  0.00559563  0.75863526  0.87301464  1
  O  O268  1  0.50464801  0.25498299  0.37061454  1
  O  O269  1  0.50759981  0.25723717  0.87449612  1
  O  O270  1  0.50444083  0.75555167  0.36956097  1
  O  O271  1  0.50026647  0.75629653  0.86834566  1
  O  O272  1  0.24511971  0.12961379  0.49566935  1
  O  O273  1  0.24939216  0.13190991  0.99401334  1
  O  O274  1  0.25087015  0.63325281  0.49167158  1
  O  O275  1  0.24860511  0.63205298  0.99283405  1
  O  O276  1  0.74926900  0.13151515  0.49380055  1
  O  O277  1  0.74438148  0.13097892  0.99499922  1
  O  O278  1  0.74413870  0.63476899  0.49792953  1
  O  O279  1  0.75138137  0.63029321  0.98943960  1
  O  O280  1  0.25747032  0.36894906  0.00513169  1
  O  O281  1  0.25607160  0.36873267  0.50611783  1
  O  O282  1  0.25522600  0.86943268  0.00642361  1
  O  O283  1  0.25708691  0.86652943  0.49806365  1
  O  O284  1  0.75982844  0.36977449  -0.00311432  1
  O  O285  1  0.75927723  0.36928732  0.50522861  1
  O  O286  1  0.75473751  0.87127594  0.00512786  1
  O  O287  1  0.75779405  0.86811461  0.50008892  1
  O  O288  1  0.12846828  0.49264759  0.24038887  1
  O  O289  1  0.13132573  0.49339805  0.74374425  1
  O  O290  1  0.13022896  0.99390073  0.24443423  1
  O  O291  1  0.13010841  0.99561795  0.74553710  1
  O  O292  1  0.62308732  0.48731600  0.25066805  1
  O  O293  1  0.63269173  0.49315435  0.74756791  1
  O  O294  1  0.63026126  0.99456863  0.24464586  1
  O  O295  1  0.62983814  0.99458048  0.74577436  1
  O  O296  1  0.36799727  0.00595697  0.25133374  1
  O  O297  1  0.36894486  0.00491378  0.75560957  1
  O  O298  1  0.37263313  0.50145833  0.25876625  1
  O  O299  1  0.36800326  0.50606953  0.75159583  1
  O  O300  1  0.86758015  0.00623952  0.25212510  1
  O  O301  1  0.86831565  0.00164627  0.75686165  1
  O  O302  1  0.87491041  0.49745580  0.25965758  1
  O  O303  1  0.86892016  0.51158092  0.75077025  1
  O  O304  1  0.12617796  0.36797469  0.36920766  1
  O  O305  1  0.12137139  0.36869075  0.86863151  1
  O  O306  1  0.11802024  0.87192403  0.36776973  1
  O  O307  1  0.11911938  0.87146477  0.86991427  1
  O  O308  1  0.61909671  0.36906856  0.36834634  1
  O  O309  1  0.62116408  0.37022799  0.87003445  1
  O  O310  1  0.61887307  0.86952941  0.36939032  1
  O  O311  1  0.61705225  0.87499925  0.86836732  1
  O  O312  1  0.37998155  0.13027698  0.13097256  1
  O  O313  1  0.37939863  0.12953203  0.63054037  1
  O  O314  1  0.38517923  0.63091470  0.12514193  1
  O  O315  1  0.38161609  0.62582873  0.63172716  1
  O  O316  1  0.88200310  0.12699543  0.13239051  1
  O  O317  1  0.88258628  0.13216400  0.62572193  1
  O  O318  1  0.87738043  0.63474286  0.12707010  1
  O  O319  1  0.88237952  0.62503272  0.63203825  1
  O  O320  1  0.25597778  0.25452089  0.11976225  1
  O  O321  1  0.25534156  0.25487637  0.61987543  1
  O  O322  1  0.25438411  0.75507511  0.12089313  1
  O  O323  1  0.25144254  0.75094967  0.61272246  1
  O  O324  1  0.75261420  0.25449008  0.11552947  1
  O  O325  1  0.75627241  0.25496107  0.62057376  1
  O  O326  1  0.75449021  0.75697286  0.11946453  1
  O  O327  1  0.75048276  0.75273225  0.61121348  1
  O  O328  1  0.24531148  0.24366253  0.38157448  1
  O  O329  1  0.24598466  0.24514339  0.88012327  1
  O  O330  1  0.24961690  0.74088780  0.38292369  1
  O  O331  1  0.24395562  0.74559982  0.88066352  1
  O  O332  1  0.74499881  0.24477118  0.38096439  1
  O  O333  1  0.74432727  0.24424806  0.88055256  1
  O  O334  1  0.74295465  0.75127304  0.38610851  1
  O  O335  1  0.75013637  0.74149215  0.88041091  1
  O  O336  1  0.00134720  0.11865850  0.00670013  1
  O  O337  1  0.00611822  0.11999896  0.50505768  1
  O  O338  1  0.00401835  0.62170999  0.00280116  1
  O  O339  1  0.00013458  0.62407644  0.51117105  1
  O  O340  1  0.50689300  0.12417645  0.00762843  1
  O  O341  1  0.50033359  0.11728218  0.50687815  1
  O  O342  1  0.49915375  0.61798003  0.00654929  1
  O  O343  1  0.50398755  0.62033087  0.50468251  1
  O  O344  1  0.49510294  0.37922391  0.49518941  1
  O  O345  1  0.49654973  0.38261263  0.99604278  1
  O  O346  1  0.49182717  0.87799550  0.49543571  1
  O  O347  1  0.49239753  0.87591400  0.99403342  1
  O  O348  1  0.98746098  0.37558513  0.49919019  1
  O  O349  1  0.99146847  0.37340237  0.99285503  1
  O  O350  1  0.99269375  0.87812788  0.49594494  1
  O  O351  1  0.99318177  0.88174152  0.99470142  1
  O  O352  1  0.49399191  0.49389106  0.38133958  1
  O  O353  1  0.49898823  0.49550695  0.88463180  1
  O  O354  1  0.49868154  0.99262551  0.38150920  1
  O  O355  1  0.49203538  0.99347038  0.87687528  1
  O  O356  1  0.99028685  0.49694251  0.37672090  1
  O  O357  1  0.99908447  0.49051517  0.87525077  1
  O  O358  1  0.99878942  0.99318820  0.38275654  1
  O  O359  1  0.99457521  0.99579356  0.88065863  1
  O  O360  1  0.00483409  0.00437493  0.12028154  1
  O  O361  1  0.00588840  0.00618393  0.61936913  1
  O  O362  1  0.01298895  0.50004494  0.12357484  1
  O  O363  1  0.00554652  0.50958786  0.62458109  1
  O  O364  1  0.50687121  0.00696236  0.12458368  1
  O  O365  1  0.50456705  0.00520595  0.62029016  1
  O  O366  1  0.49978402  0.50861601  0.11659224  1
  O  O367  1  0.50185299  0.50604465  0.61720560  1
  O  O368  1  0.24443906  0.37456014  0.24257326  1
  O  O369  1  0.24546296  0.37948316  0.74459001  1
  O  O370  1  0.24491242  0.87889088  0.24530322  1
  O  O371  1  0.24346762  0.88191693  0.74895678  1
  O  O372  1  0.73717097  0.37347143  0.25005163  1
  O  O373  1  0.74659132  0.38062257  0.74583946  1
  O  O374  1  0.74397696  0.87994021  0.24493152  1
  O  O375  1  0.74351901  0.88153957  0.74893292  1
  O  O376  1  0.25513874  0.11965301  0.25490877  1
  O  O377  1  0.25581114  0.11927524  0.75616897  1
  O  O378  1  0.25320421  0.62504752  0.26212583  1
  O  O379  1  0.25476971  0.61992016  0.75424609  1
  O  O380  1  0.75482678  0.12096884  0.25495718  1
  O  O381  1  0.75119074  0.11833073  0.75787216  1
  O  O382  1  0.75251067  0.62293665  0.25484047  1
  O  O383  1  0.75668041  0.62254502  0.75452385  1
  O  O384  1  0.36838926  0.12410082  0.36847433  1
  O  O385  1  0.37014487  0.12008765  0.87028543  1
  O  O386  1  0.36647179  0.61855673  0.37486128  1
  O  O387  1  0.36673527  0.62325811  0.86775299  1
  O  O388  1  0.86815201  0.12350901  0.36891764  1
  O  O389  1  0.86818959  0.11872277  0.87440832  1
  O  O390  1  0.87315491  0.61287024  0.37301192  1
  O  O391  1  0.86648777  0.62594405  0.86507514  1
  O  O392  1  0.13169468  0.38112629  0.12959643  1
  O  O393  1  0.13108321  0.37888895  0.63050977  1
  O  O394  1  0.13075516  0.88049730  0.13073736  1
  O  O395  1  0.12514276  0.88218767  0.63145312  1
  O  O396  1  0.62317611  0.37550806  0.13758523  1
  O  O397  1  0.63275879  0.37556140  0.63159112  1
  O  O398  1  0.62981297  0.88038915  0.13041145  1
  O  O399  1  0.62500096  0.88269125  0.63268373  1
  O  O400  1  0.12168227  0.25367221  0.25592890  1
  O  O401  1  0.12091582  0.25577402  0.75483842  1
  O  O402  1  0.11438405  0.75650731  0.24950723  1
  O  O403  1  0.12406814  0.75828728  0.75694559  1
  O  O404  1  0.61884851  0.25700319  0.25608360  1
  O  O405  1  0.62455543  0.25731658  0.75744949  1
  O  O406  1  0.61872410  0.75688826  0.25486831  1
  O  O407  1  0.61778958  0.75714657  0.75180359  1
  O  O408  1  0.38035295  0.24446864  0.24490973  1
  O  O409  1  0.37604303  0.24331235  0.74344215  1
  O  O410  1  0.38215689  0.74927962  0.24282272  1
  O  O411  1  0.38053371  0.74361585  0.74792481  1
  O  O412  1  0.88259000  0.24403210  0.24972570  1
  O  O413  1  0.88227004  0.24947386  0.74322412  1
  O  O414  1  0.88367271  0.75329991  0.24442143  1
  O  O415  1  0.87507409  0.73899294  0.74603388  1
  O  O416  1  0.38056332  0.49281577  0.49506996  1
  O  O417  1  0.38617630  0.49365850  0.99919380  1
  O  O418  1  0.37967089  0.99008691  0.49821854  1
  O  O419  1  0.37549148  0.99309754  0.99409617  1
  O  O420  1  0.87531101  0.49015622  0.49212800  1
  O  O421  1  0.87736783  0.48793467  0.99690725  1
  O  O422  1  0.88062163  0.99073744  0.49982064  1
  O  O423  1  0.87940675  0.99509326  0.99496193  1
  O  O424  1  0.11802159  0.00056568  0.00702892  1
  O  O425  1  0.12022192  0.00488571  0.50544091  1
  O  O426  1  0.12452378  0.49897684  0.01127243  1
  O  O427  1  0.12254432  0.50177514  0.50889321  1
  O  O428  1  0.62408055  0.00745039  0.00768857  1
  O  O429  1  0.61773011  0.00020441  0.50733100  1
  O  O430  1  0.61233547  0.50207094  0.00103097  1
  O  O431  1  0.61858860  0.50595014  0.49920618  1
  O  O432  1  0.37171146  0.36858801  0.12012405  1
  O  O433  1  0.36987904  0.36964783  0.62009735  1
  O  O434  1  0.36924582  0.86980437  0.12026783  1
  O  O435  1  0.37239539  0.87323498  0.61218366  1
  O  O436  1  0.87576041  0.37211313  0.11269433  1
  O  O437  1  0.87066802  0.37063236  0.61747620  1
  O  O438  1  0.86783730  0.87136607  0.11913783  1
  O  O439  1  0.87446634  0.87298245  0.61250113  1
  O  O440  1  0.13113860  0.13008170  0.38115150  1
  O  O441  1  0.13256519  0.13179718  0.87641750  1
  O  O442  1  0.13606480  0.62487427  0.37679313  1
  O  O443  1  0.13151496  0.63266609  0.87400898  1
  O  O444  1  0.63124528  0.13232110  0.37647276  1
  O  O445  1  0.62980591  0.12999166  0.88116533  1
  O  O446  1  0.62381792  0.63303738  0.38208736  1
  O  O447  1  0.63850378  0.62741745  0.87409099  1
