# generated using pymatgen
data_V3Zn3O8
_symmetry_space_group_name_H-M   'P 1'
_cell_length_a   17.09068159
_cell_length_b   17.08961737
_cell_length_c   17.09078448
_cell_angle_alpha   90.00636128
_cell_angle_beta   89.99221443
_cell_angle_gamma   90.01660104
_symmetry_Int_Tables_number   1
_chemical_formula_structural   V3Zn3O8
_chemical_formula_sum   'V96 Zn96 O256'
_cell_volume   4991.75998132
_cell_formula_units_Z   32
loop_
 _symmetry_equiv_pos_site_id
 _symmetry_equiv_pos_as_xyz
  1  'x, y, z'
loop_
 _atom_site_type_symbol
 _atom_site_label
 _atom_site_symmetry_multiplicity
 _atom_site_fract_x
 _atom_site_fract_y
 _atom_site_fract_z
 _atom_site_occupancy
  V  V0  1  0.62530677  0.25011190  0.87628629  1
  V  V1  1  0.74990054  0.62527234  0.37588695  1
  V  V2  1  0.74976909  0.74976988  0.49973945  1
  V  V3  1  0.12764769  0.49821382  0.12605461  1
  V  V4  1  0.00048043  0.25214838  0.75138956  1
  V  V5  1  0.00120927  0.37406217  0.37446121  1
  V  V6  1  0.37402456  0.12412198  0.75069227  1
  V  V7  1  0.12507656  0.50116850  0.62393072  1
  V  V8  1  0.62567318  0.12510364  -0.00022309  1
  V  V9  1  0.62561525  0.12524709  0.50103147  1
  V  V10  1  0.25082330  0.25034422  0.00010563  1
  V  V11  1  0.62518703  0.24927291  0.37510575  1
  V  V12  1  0.37564976  0.87575216  0.49790245  1
  V  V13  1  0.37423534  0.00114793  0.87366349  1
  V  V14  1  0.25104373  -0.00188445  0.25104348  1
  V  V15  1  0.62570235  0.00041289  0.62583227  1
  V  V16  1  0.37586129  0.49916573  0.87603956  1
  V  V17  1  0.24956078  0.37502262  0.62469712  1
  V  V18  1  0.50014894  0.12592479  0.62484744  1
  V  V19  1  0.12519858  0.12524950  -0.00184683  1
  V  V20  1  0.37533267  0.37434488  0.49985437  1
  V  V21  1  0.00071173  0.12420397  0.12581115  1
  V  V22  1  0.87483244  0.37561783  0.49976037  1
  V  V23  1  0.75036838  0.49929934  0.25059937  1
  V  V24  1  0.87495648  0.74959511  0.12474688  1
  V  V25  1  0.87547671  0.25018956  0.12445167  1
  V  V26  1  0.75009197  0.25088751  0.50018729  1
  V  V27  1  0.49930901  0.75024363  0.74957972  1
  V  V28  1  0.50009494  0.74960047  0.25073778  1
  V  V29  1  0.12571715  -0.00079591  0.12471924  1
  V  V30  1  0.87554646  0.50005726  0.37492006  1
  V  V31  1  0.62446922  0.49999492  0.12464088  1
  V  V32  1  0.50006943  0.00005761  0.49947904  1
  V  V33  1  0.50188219  0.50199999  0.50221941  1
  V  V34  1  0.00003786  0.75086422  0.74975809  1
  V  V35  1  0.74958397  0.87600833  0.62540911  1
  V  V36  1  0.12498034  0.62362212  0.49885975  1
  V  V37  1  0.37452034  0.24999107  0.62585451  1
  V  V38  1  0.49981386  -0.00108663  0.00076238  1
  V  V39  1  0.24966712  0.75102621  -0.00057104  1
  V  V40  1  0.87632733  -0.00042773  0.37534094  1
  V  V41  1  0.00106442  0.87468181  0.37452507  1
  V  V42  1  0.87549169  0.75080083  0.62569723  1
  V  V43  1  0.62561805  0.74981384  0.87542557  1
  V  V44  1  0.37500705  0.25008652  0.12497364  1
  V  V45  1  0.24984900  0.62572527  0.87331075  1
  V  V46  1  0.00134547  0.25011676  0.25107308  1
  V  V47  1  0.37426630  0.87418964  -0.00039386  1
  V  V48  1  0.50034929  0.87491060  0.87543281  1
  V  V49  1  0.12393714  0.75142914  0.87361506  1
  V  V50  1  0.75083920  0.87390729  0.12536442  1
  V  V51  1  0.62483541  -0.00094733  0.12536462  1
  V  V52  1  0.87518217  0.37547107  0.00026848  1
  V  V53  1  0.75105801  0.12500991  0.37566200  1
  V  V54  1  0.62509737  0.37605931  0.75017210  1
  V  V55  1  0.87526296  0.62604106  0.74975696  1
  V  V56  1  0.24995703  0.62372713  0.37370533  1
  V  V57  1  0.24968485  0.87380947  0.12442018  1
  V  V58  1  0.87408581  0.12600912  0.75197106  1
  V  V59  1  0.74885270  0.62638537  0.87523665  1
  V  V60  1  0.24801470  0.87721897  0.62727735  1
  V  V61  1  0.49991641  0.37389229  0.37528844  1
  V  V62  1  0.62570826  0.37400096  0.24985928  1
  V  V63  1  0.37445626  0.49968386  0.37399706  1
  V  V64  1  0.50036032  0.12414700  0.12603427  1
  V  V65  1  0.12548049  0.24973101  0.37481837  1
  V  V66  1  0.24959727  0.50107798  0.74949579  1
  V  V67  1  0.49994915  0.25150856  0.75032474  1
  V  V68  1  0.87544687  0.12487588  0.24984680  1
  V  V69  1  0.37601574  0.74802136  0.62546961  1
  V  V70  1  -0.00073440  0.62547036  0.12488825  1
  V  V71  1  0.62492455  0.87658757  0.74973892  1
  V  V72  1  -0.00108999  0.87447396  0.87495182  1
  V  V73  1  0.87448459  0.87450477  0.00074011  1
  V  V74  1  0.87370214  0.00103435  0.87569925  1
  V  V75  1  0.87459765  0.25078981  0.62596108  1
  V  V76  1  0.87512989  0.87534267  0.49957245  1
  V  V77  1  0.12491778  0.62525258  -0.00074253  1
  V  V78  1  0.74974622  -0.00009212  0.25036980  1
  V  V79  1  0.00135734  0.12367604  0.62379161  1
  V  V80  1  0.62549135  0.75015915  0.37518016  1
  V  V81  1  0.75096110  0.37442563  0.12499065  1
  V  V82  1  0.12532606  0.74983098  0.37417302  1
  V  V83  1  0.74997037  0.50009832  0.74962415  1
  V  V84  1  0.24988146  0.24897098  0.49920623  1
  V  V85  1  0.25067726  0.12337081  0.37539792  1
  V  V86  1  0.62428497  0.87430009  0.25053565  1
  V  V87  1  -0.00031059  0.50008792  -0.00124016  1
  V  V88  1  0.87522400  0.62487628  0.24884249  1
  V  V89  1  0.87537218  0.50001528  0.87516007  1
  V  V90  1  0.00051884  0.49994850  0.50017386  1
  V  V91  1  0.50006211  0.24825996  0.24975895  1
  V  V92  1  0.12365767  0.37539740  0.75079696  1
  V  V93  1  0.50037189  0.62342596  0.12318897  1
  V  V94  1  0.37487025  0.62411610  0.25037254  1
  V  V95  1  0.74952518  0.37650758  0.62541816  1
  Zn  Zn96  1  0.12431804  0.87866872  0.75025087  1
  Zn  Zn97  1  0.00056166  0.62613534  0.62443571  1
  Zn  Zn98  1  0.00025876  -0.00021978  0.00082440  1
  Zn  Zn99  1  0.12547489  0.25165005  0.87493214  1
  Zn  Zn100  1  0.75016734  0.12551064  0.87567983  1
  Zn  Zn101  1  0.37611909  0.62431135  0.74872052  1
  Zn  Zn102  1  0.25069952  0.37558606  0.12666420  1
  Zn  Zn103  1  0.50013710  0.87564396  0.37433416  1
  Zn  Zn104  1  0.37615241  0.12353741  0.25038631  1
  Zn  Zn105  1  0.00006170  0.74958474  0.24908246  1
  Zn  Zn106  1  0.74837677  0.00266734  0.75058931  1
  Zn  Zn107  1  0.50135480  0.49773837  -0.00174703  1
  Zn  Zn108  1  0.74775946  0.74840204  0.00097756  1
  Zn  Zn109  1  0.12487883  0.00010044  0.62593047  1
  Zn  Zn110  1  0.37456474  0.74867926  0.12484654  1
  Zn  Zn111  1  0.62493793  0.62588813  0.50178588  1
  Zn  Zn112  1  0.25076997  0.49689529  0.24928915  1
  Zn  Zn113  1  0.62555016  0.62432922  -0.00103995  1
  Zn  Zn114  1  0.75115505  0.24883658  0.00012800  1
  Zn  Zn115  1  0.37610056  0.37614245  0.00011724  1
  Zn  Zn116  1  0.24888853  0.12443044  0.87249057  1
  Zn  Zn117  1  0.12470892  0.87265302  0.24862191  1
  Zn  Zn118  1  0.12779519  0.37413705  0.24936824  1
  Zn  Zn119  1  0.37698597  -0.00054480  0.37357876  1
  Zn  Zn120  1  0.49945538  0.37697752  0.87722142  1
  Zn  Zn121  1  0.24586115  0.00256009  0.75155553  1
  Zn  Zn122  1  0.00101443  0.37426017  0.87535580  1
  Zn  Zn123  1  0.62504669  0.50310189  0.62584634  1
  Zn  Zn124  1  0.12497712  0.12217566  0.50174039  1
  Zn  Zn125  1  0.25066860  0.74969059  0.50013422  1
  Zn  Zn126  1  0.00257649  0.00068571  0.50119797  1
  Zn  Zn127  1  0.50303697  0.62517925  0.62577660  1
  Zn  Zn128  1  0.18782657  0.18576921  0.18818782  1
  Zn  Zn129  1  0.18673471  0.18841406  0.68905407  1
  Zn  Zn130  1  0.18827618  0.68547188  0.18811444  1
  Zn  Zn131  1  0.18759420  0.68914651  0.68722209  1
  Zn  Zn132  1  0.68825608  0.18724316  0.18654962  1
  Zn  Zn133  1  0.68877438  0.18804242  0.68970388  1
  Zn  Zn134  1  0.68730932  0.68719999  0.18822908  1
  Zn  Zn135  1  0.68587130  0.68681613  0.68662695  1
  Zn  Zn136  1  0.31144733  0.31342693  0.30955431  1
  Zn  Zn137  1  0.31079546  0.31310900  0.81337026  1
  Zn  Zn138  1  0.31217793  0.81008846  0.31169522  1
  Zn  Zn139  1  0.31195369  0.81398593  0.81121343  1
  Zn  Zn140  1  0.81398550  0.31222537  0.31191410  1
  Zn  Zn141  1  0.81197803  0.31359865  0.81400415  1
  Zn  Zn142  1  0.81266815  0.81133492  0.31133259  1
  Zn  Zn143  1  0.81099795  0.81346913  0.81192881  1
  Zn  Zn144  1  0.18766877  0.43654477  0.43651964  1
  Zn  Zn145  1  0.18871165  0.43609846  0.93766053  1
  Zn  Zn146  1  0.18603005  0.93866147  0.44254419  1
  Zn  Zn147  1  0.18745275  0.93851828  0.93615975  1
  Zn  Zn148  1  0.68675231  0.43763579  0.43732773  1
  Zn  Zn149  1  0.68755014  0.43815623  0.93861878  1
  Zn  Zn150  1  0.68740623  0.93669442  0.43778379  1
  Zn  Zn151  1  0.68879175  0.93650376  0.93875910  1
  Zn  Zn152  1  0.31258976  0.06278522  0.06210442  1
  Zn  Zn153  1  0.31280534  0.06117881  0.56286217  1
  Zn  Zn154  1  0.31271101  0.56438042  0.06063163  1
  Zn  Zn155  1  0.31168207  0.56270204  0.55939916  1
  Zn  Zn156  1  0.81140673  0.06261253  0.06114126  1
  Zn  Zn157  1  0.81446407  0.06152165  0.56318422  1
  Zn  Zn158  1  0.81089050  0.56264902  0.06103792  1
  Zn  Zn159  1  0.81276095  0.56384377  0.56353091  1
  Zn  Zn160  1  0.43809240  0.43628049  0.18800542  1
  Zn  Zn161  1  0.43702012  0.43700889  0.68906129  1
  Zn  Zn162  1  0.43614851  0.93510318  0.18678597  1
  Zn  Zn163  1  0.43682480  0.93787704  0.68708034  1
  Zn  Zn164  1  0.93986277  0.43732889  0.18714431  1
  Zn  Zn165  1  0.93785318  0.43852386  0.68725547  1
  Zn  Zn166  1  0.93865469  0.93713733  0.18834547  1
  Zn  Zn167  1  0.93642211  0.93853054  0.69011344  1
  Zn  Zn168  1  0.06488558  0.06139018  0.31216516  1
  Zn  Zn169  1  0.06108268  0.06117476  0.81037702  1
  Zn  Zn170  1  0.06187877  0.56239332  0.31062054  1
  Zn  Zn171  1  0.06145786  0.56350908  0.81173077  1
  Zn  Zn172  1  0.56238797  0.06128709  0.31373451  1
  Zn  Zn173  1  0.56070693  0.06358417  0.81262533  1
  Zn  Zn174  1  0.56274749  0.56311446  0.31295657  1
  Zn  Zn175  1  0.56164678  0.56493219  0.81023618  1
  Zn  Zn176  1  0.43630297  0.18660245  0.43779358  1
  Zn  Zn177  1  0.43851969  0.18648464  0.93736576  1
  Zn  Zn178  1  0.43788053  0.68784154  0.43656940  1
  Zn  Zn179  1  0.43657156  0.68671863  0.93692571  1
  Zn  Zn180  1  0.93776884  0.18825849  0.43863856  1
  Zn  Zn181  1  0.93978092  0.18857793  0.93770359  1
  Zn  Zn182  1  0.93794587  0.68751659  0.43786733  1
  Zn  Zn183  1  0.93614067  0.68787017  0.93808680  1
  Zn  Zn184  1  0.06117177  0.31320118  0.06234705  1
  Zn  Zn185  1  0.06342034  0.31099332  0.56234272  1
  Zn  Zn186  1  0.06135858  0.81290428  0.06081967  1
  Zn  Zn187  1  0.06238786  0.81106580  0.56066276  1
  Zn  Zn188  1  0.56031222  0.31466336  0.06004144  1
  Zn  Zn189  1  0.56305432  0.31420375  0.56400880  1
  Zn  Zn190  1  0.56276700  0.81006503  0.06225357  1
  Zn  Zn191  1  0.56245592  0.81309263  0.56208452  1
  O  O192  1  0.12058752  0.11956337  0.11752762  1
  O  O193  1  0.11143599  0.12778765  0.62500923  1
  O  O194  1  0.11978999  0.61794701  0.11886520  1
  O  O195  1  0.12489545  0.61916748  0.61713520  1
  O  O196  1  0.61992234  0.11854786  0.12085215  1
  O  O197  1  0.62011505  0.12146224  0.61978376  1
  O  O198  1  0.61563312  0.61861427  0.12730717  1
  O  O199  1  0.62150305  0.62134208  0.61948890  1
  O  O200  1  0.38111616  0.37829725  0.38048789  1
  O  O201  1  0.37464491  0.38736045  0.87478349  1
  O  O202  1  0.37510646  0.87460138  0.38750490  1
  O  O203  1  0.38123100  0.88021154  0.88032530  1
  O  O204  1  0.88028183  0.38021565  0.38049996  1
  O  O205  1  0.87550644  0.38270086  0.88199550  1
  O  O206  1  0.88215694  0.87902941  0.37885559  1
  O  O207  1  0.87876302  0.88217026  0.87986836  1
  O  O208  1  0.24956736  0.00665671  0.36767483  1
  O  O209  1  0.25960654  0.00281838  0.87363018  1
  O  O210  1  0.25715162  0.50574992  0.37484956  1
  O  O211  1  0.25597415  0.50571567  0.86946586  1
  O  O212  1  0.75553719  0.00577008  0.37005168  1
  O  O213  1  0.76226356  0.00060715  0.87409417  1
  O  O214  1  0.75609336  0.50413086  0.37009030  1
  O  O215  1  0.75592931  0.50572685  0.86875354  1
  O  O216  1  0.23860199  0.50058497  0.12340062  1
  O  O217  1  0.24543216  0.49439925  0.62854291  1
  O  O218  1  0.24599830  0.99513303  0.13251548  1
  O  O219  1  0.25139762  0.98835746  0.62706104  1
  O  O220  1  0.74522711  0.49445609  0.13220024  1
  O  O221  1  0.75064598  0.49326840  0.63147539  1
  O  O222  1  0.74451186  0.99469846  0.13160360  1
  O  O223  1  0.74341214  0.99390174  0.62530981  1
  O  O224  1  0.00124771  0.36776118  0.25722126  1
  O  O225  1  0.00602260  0.36969498  0.74959485  1
  O  O226  1  0.00240257  0.87256854  0.26230922  1
  O  O227  1  -0.00039690  0.86758939  0.75710425  1
  O  O228  1  0.50644839  0.36806601  0.25619769  1
  O  O229  1  0.50683203  0.36812538  0.75154309  1
  O  O230  1  0.50625839  0.86843152  0.25040443  1
  O  O231  1  0.50534082  0.87067872  0.75596650  1
  O  O232  1  0.49974554  0.13028535  0.24421255  1
  O  O233  1  0.49501848  0.13199966  0.74296578  1
  O  O234  1  0.49529485  0.62943117  0.24280682  1
  O  O235  1  0.49566205  0.63479103  0.74557423  1
  O  O236  1  0.99458722  0.12955835  0.24592662  1
  O  O237  1  0.99352260  0.13256427  0.74223815  1
  O  O238  1  0.99205322  0.62545575  0.24298865  1
  O  O239  1  0.99276509  0.63235175  0.74798210  1
  O  O240  1  0.36733761  0.24706127  0.00849250  1
  O  O241  1  0.37021411  0.25535475  0.50598056  1
  O  O242  1  0.36770663  0.75684316  0.00028599  1
  O  O243  1  0.37600393  0.75914361  0.50815909  1
  O  O244  1  0.87489508  0.25624782  0.00731490  1
  O  O245  1  0.86865743  0.25644686  0.50497571  1
  O  O246  1  0.87278307  0.75683764  0.00712178  1
  O  O247  1  0.86953360  0.75590297  0.50500197  1
  O  O248  1  0.13278384  0.24764427  0.49300530  1
  O  O249  1  0.13329841  0.24147946  1.00283844  1
  O  O250  1  0.12565888  0.74337275  0.48826233  1
  O  O251  1  0.12984139  0.74427621  0.99349412  1
  O  O252  1  0.63040995  0.24528354  0.49481399  1
  O  O253  1  0.62448097  0.24442411  0.99139658  1
  O  O254  1  0.63218009  0.75073903  0.49328960  1
  O  O255  1  0.62676408  0.74711117  0.99110565  1
  O  O256  1  0.49394304  0.24396849  0.12991058  1
  O  O257  1  0.49433175  0.24538989  0.62945968  1
  O  O258  1  0.49973556  0.73949307  0.13174945  1
  O  O259  1  0.49031699  0.75218817  0.63029317  1
  O  O260  1  0.99474578  0.24383739  0.13136895  1
  O  O261  1  0.99326345  0.24394481  0.63008701  1
  O  O262  1  0.99413787  0.74320417  0.12648289  1
  O  O263  1  0.99293277  0.74957847  0.63065175  1
  O  O264  1  0.00485522  0.25430588  0.37049948  1
  O  O265  1  0.00304366  0.25293395  0.86632340  1
  O  O266  1  0.00749807  0.75756917  0.37407898  1
  O  O267  1  0.00431173  0.75475386  0.86985124  1
  O  O268  1  0.50556193  0.25383643  0.37060042  1
  O  O269  1  0.50994254  0.25029351  0.86865818  1
  O  O270  1  0.50720734  0.75151610  0.36827021  1
  O  O271  1  0.50449948  0.75621206  0.86986071  1
  O  O272  1  0.25067437  0.13021896  0.49130986  1
  O  O273  1  0.24068805  0.13297672  1.00103999  1
  O  O274  1  0.24312786  0.62707736  0.49169571  1
  O  O275  1  0.24372441  0.63183183  0.99343658  1
  O  O276  1  0.74579659  0.13116622  0.49536501  1
  O  O277  1  0.74105492  0.12802927  0.99785932  1
  O  O278  1  0.75049240  0.63174048  0.49274633  1
  O  O279  1  0.74783106  0.62744526  0.99104287  1
  O  O280  1  0.25191789  0.36201700  0.00473710  1
  O  O281  1  0.25643316  0.36927797  0.50486400  1
  O  O282  1  0.25490704  0.87010208  0.00469263  1
  O  O283  1  0.26040656  0.87329428  0.50805174  1
  O  O284  1  0.75721696  0.37366255  0.00828029  1
  O  O285  1  0.75529867  0.37005029  0.50404760  1
  O  O286  1  0.75640974  0.87351935  0.00873737  1
  O  O287  1  0.75571020  0.86953414  0.50529505  1
  O  O288  1  0.12537404  0.49992410  0.23738484  1
  O  O289  1  0.12995972  0.49600278  0.74345727  1
  O  O290  1  0.13665304  0.99808080  0.24450582  1
  O  O291  1  0.12739021  0.99640047  0.74435389  1
  O  O292  1  0.63078075  0.49289918  0.24626701  1
  O  O293  1  0.63213246  0.49344788  0.74948309  1
  O  O294  1  0.63058516  0.99483835  0.24492858  1
  O  O295  1  0.62444591  0.99475003  0.74351952  1
  O  O296  1  0.36335905  0.00100546  0.25107793  1
  O  O297  1  0.37651276  0.00702528  0.75655222  1
  O  O298  1  0.37572902  0.50573229  0.25739173  1
  O  O299  1  0.36750379  0.50169399  0.75718722  1
  O  O300  1  0.86905767  0.00562917  0.25553749  1
  O  O301  1  0.87325454  0.00642890  0.76064587  1
  O  O302  1  0.86998686  0.50433938  0.25549031  1
  O  O303  1  0.87005643  0.50553703  0.75501940  1
  O  O304  1  0.11814049  0.36797554  0.37414719  1
  O  O305  1  0.12275680  0.37417302  0.86645351  1
  O  O306  1  0.11788318  0.86635248  0.37652350  1
  O  O307  1  0.11698596  0.86864112  0.87609727  1
  O  O308  1  0.62037063  0.36816813  0.36938191  1
  O  O309  1  0.62464434  0.36598993  0.86918867  1
  O  O310  1  0.62495483  0.86868073  0.36771203  1
  O  O311  1  0.61924652  0.87129105  0.86996089  1
  O  O312  1  0.38172833  0.13392919  0.12582991  1
  O  O313  1  0.38107010  0.13102832  0.62922453  1
  O  O314  1  0.38431808  0.62509207  0.13093981  1
  O  O315  1  0.37459223  0.63840768  0.62337037  1
  O  O316  1  0.88014810  0.12913830  0.13084300  1
  O  O317  1  0.88110715  0.13184721  0.63050222  1
  O  O318  1  0.87966670  0.62897984  0.12945596  1
  O  O319  1  0.87611212  0.63305496  0.63183708  1
  O  O320  1  0.25898519  0.24708884  0.11804719  1
  O  O321  1  0.25551639  0.25560484  0.61922487  1
  O  O322  1  0.24983134  0.75529823  0.11768888  1
  O  O323  1  0.25970514  0.75855014  0.62331627  1
  O  O324  1  0.75766421  0.25676334  0.12574678  1
  O  O325  1  0.75510199  0.25601895  0.61917627  1
  O  O326  1  0.75630899  0.75639421  0.12524829  1
  O  O327  1  0.75563298  0.75689733  0.61977145  1
  O  O328  1  0.24642340  0.24163945  0.37876976  1
  O  O329  1  0.24894809  0.24627121  0.88765563  1
  O  O330  1  0.24039273  0.74402924  0.37640578  1
  O  O331  1  0.24424635  0.74614570  0.87957997  1
  O  O332  1  0.74537896  0.24474850  0.38000824  1
  O  O333  1  0.73692356  0.24865992  0.87700037  1
  O  O334  1  0.74585044  0.74487188  0.37993976  1
  O  O335  1  0.74326874  0.74440407  0.87503597  1
  O  O336  1  0.01015975  0.12502087  0.00769972  1
  O  O337  1  -0.00053250  0.12564329  0.51162776  1
  O  O338  1  0.00554138  0.61973065  0.00516202  1
  O  O339  1  0.00625689  0.61731957  0.50028652  1
  O  O340  1  0.50603780  0.11811609  0.00666850  1
  O  O341  1  0.50605915  0.12125039  0.50548693  1
  O  O342  1  0.50041004  0.62349790  0.01310807  1
  O  O343  1  0.49993674  0.61255665  0.49954102  1
  O  O344  1  0.49493146  0.38107836  0.49471434  1
  O  O345  1  0.49407769  0.37970745  0.99541201  1
  O  O346  1  0.49079794  0.88134203  0.50006859  1
  O  O347  1  0.49477538  0.87993422  0.99564228  1
  O  O348  1  0.99385317  0.37941729  0.49457300  1
  O  O349  1  0.99290230  0.38238219  0.99880279  1
  O  O350  1  0.99345665  0.87484557  0.48908343  1
  O  O351  1  0.99221613  0.87746582  0.99332287  1
  O  O352  1  0.49513909  0.49345408  0.38228642  1
  O  O353  1  0.48763804  0.50196072  0.87424229  1
  O  O354  1  0.49726113  0.99732869  0.38289826  1
  O  O355  1  0.49517885  0.99404795  0.88176884  1
  O  O356  1  0.99469957  0.49434144  0.38038609  1
  O  O357  1  0.99281614  0.50015808  0.88138724  1
  O  O358  1  0.99515699  0.99099536  0.37467232  1
  O  O359  1  0.98844368  0.99428938  0.87643813  1
  O  O360  1  0.00715046  0.00647348  0.12514354  1
  O  O361  1  -0.00367146  0.01313926  0.62494202  1
  O  O362  1  0.00742813  0.50603043  0.11876479  1
  O  O363  1  0.00688941  0.50159207  0.61769218  1
  O  O364  1  0.50553407  0.00387053  0.12054304  1
  O  O365  1  0.50600915  0.00649596  0.61927509  1
  O  O366  1  0.50568749  0.50922288  0.12724382  1
  O  O367  1  0.49860037  0.49985159  0.61318701  1
  O  O368  1  0.24562628  0.37891615  0.24449795  1
  O  O369  1  0.24390780  0.38053523  0.74298072  1
  O  O370  1  0.24875097  0.88277450  0.24497680  1
  O  O371  1  0.24890638  0.87724637  0.73895278  1
  O  O372  1  0.74545167  0.37994443  0.24569283  1
  O  O373  1  0.74552430  0.38049296  0.74446214  1
  O  O374  1  0.74499208  0.88119149  0.24518150  1
  O  O375  1  0.74267572  0.87782693  0.74278305  1
  O  O376  1  0.25122340  0.11544397  0.25818203  1
  O  O377  1  0.25893201  0.12467595  0.75174239  1
  O  O378  1  0.25725127  0.62139444  0.25612230  1
  O  O379  1  0.25105584  0.61884812  0.75590568  1
  O  O380  1  0.75524519  0.11968457  0.25604986  1
  O  O381  1  0.75821811  0.12311061  0.75355420  1
  O  O382  1  0.75575109  0.61806552  0.25568747  1
  O  O383  1  0.75613682  0.61991085  0.75507719  1
  O  O384  1  0.36230458  0.12345202  0.37313466  1
  O  O385  1  0.37633499  0.11822349  0.86850251  1
  O  O386  1  0.36983330  0.61970851  0.37015342  1
  O  O387  1  0.36750803  0.61697380  0.87312668  1
  O  O388  1  0.87012186  0.12053190  0.36974015  1
  O  O389  1  0.87568020  0.11641647  0.87162923  1
  O  O390  1  0.86999056  0.61918398  0.36950685  1
  O  O391  1  0.86936303  0.61988467  0.86912959  1
  O  O392  1  0.12397687  0.38756768  0.12480175  1
  O  O393  1  0.13107602  0.38105820  0.62904301  1
  O  O394  1  0.13123693  0.88076674  0.12566171  1
  O  O395  1  0.13775013  0.87165795  0.62372103  1
  O  O396  1  0.63008791  0.37893414  0.13177260  1
  O  O397  1  0.63264692  0.37649242  0.63177382  1
  O  O398  1  0.63008671  0.88017930  0.13067638  1
  O  O399  1  0.62978400  0.88108770  0.62982464  1
  O  O400  1  0.11819208  0.24949014  0.25623275  1
  O  O401  1  0.11873279  0.25786051  0.75103070  1
  O  O402  1  0.12312798  0.74988982  0.26264378  1
  O  O403  1  0.11809205  0.75212657  0.75690387  1
  O  O404  1  0.62026367  0.25405947  0.25575099  1
  O  O405  1  0.62014788  0.25459860  0.75766009  1
  O  O406  1  0.62051182  0.75556660  0.25557034  1
  O  O407  1  0.61892010  0.75769758  0.75495265  1
  O  O408  1  0.38135007  0.24690269  0.24117446  1
  O  O409  1  0.37986773  0.24549056  0.74457604  1
  O  O410  1  0.38165568  0.74252489  0.24820163  1
  O  O411  1  0.38060161  0.75128388  0.74026703  1
  O  O412  1  0.88099238  0.24370813  0.24520811  1
  O  O413  1  0.87972507  0.24665014  0.74497170  1
  O  O414  1  0.87612519  0.74230804  0.24327396  1
  O  O415  1  0.87998462  0.74567697  0.74511610  1
  O  O416  1  0.38266187  0.49353007  0.49426852  1
  O  O417  1  0.37385395  0.49913732  0.98788466  1
  O  O418  1  0.38134795  0.99042179  0.50012484  1
  O  O419  1  0.38093521  0.99447763  0.99514449  1
  O  O420  1  0.87993033  0.49459439  0.49434281  1
  O  O421  1  0.88049766  0.49532714  0.99533336  1
  O  O422  1  0.87668253  0.99317699  0.49216379  1
  O  O423  1  0.87696687  0.99474390  0.99212871  1
  O  O424  1  0.12493652  0.00999060  0.00616454  1
  O  O425  1  0.11992526  0.00469175  0.50746453  1
  O  O426  1  0.12047426  0.50600018  0.00640175  1
  O  O427  1  0.11977538  0.50377952  0.50447958  1
  O  O428  1  0.61894484  0.00370645  0.00598692  1
  O  O429  1  0.62071603  0.00615853  0.50557854  1
  O  O430  1  0.62286251  0.50313030  0.00911485  1
  O  O431  1  0.61311978  0.49921131  0.50031431  1
  O  O432  1  0.37567306  0.36067174  0.12435050  1
  O  O433  1  0.36888379  0.36912915  0.61991817  1
  O  O434  1  0.36790407  0.87232159  0.11708224  1
  O  O435  1  0.36907787  0.86746774  0.61748948  1
  O  O436  1  0.87076172  0.37026238  0.12065774  1
  O  O437  1  0.86957389  0.37005735  0.61890236  1
  O  O438  1  0.87054968  0.87034704  0.12143859  1
  O  O439  1  0.86975735  0.87064701  0.61969785  1
  O  O440  1  0.13643347  0.13001267  0.37582619  1
  O  O441  1  0.12463540  0.12603962  0.88793305  1
  O  O442  1  0.12863436  0.63124853  0.37884542  1
  O  O443  1  0.13006009  0.63069532  0.88025029  1
  O  O444  1  0.63150377  0.13004332  0.38133162  1
  O  O445  1  0.62434178  0.13376454  0.88051055  1
  O  O446  1  0.63283932  0.63150026  0.37613987  1
  O  O447  1  0.63128084  0.63218759  0.87416597  1
