# generated using pymatgen
data_V3Zn3O8
_symmetry_space_group_name_H-M   'P 1'
_cell_length_a   17.09151958
_cell_length_b   17.09133028
_cell_length_c   17.09161587
_cell_angle_alpha   90.00101683
_cell_angle_beta   90.00352631
_cell_angle_gamma   90.00573581
_symmetry_Int_Tables_number   1
_chemical_formula_structural   V3Zn3O8
_chemical_formula_sum   'V96 Zn96 O256'
_cell_volume   4992.74820373
_cell_formula_units_Z   32
loop_
 _symmetry_equiv_pos_site_id
 _symmetry_equiv_pos_as_xyz
  1  'x, y, z'
loop_
 _atom_site_type_symbol
 _atom_site_label
 _atom_site_symmetry_multiplicity
 _atom_site_fract_x
 _atom_site_fract_y
 _atom_site_fract_z
 _atom_site_occupancy
  V  V0  1  -0.00010500  0.87498070  0.87437537  1
  V  V1  1  0.62426844  0.25031584  0.87592278  1
  V  V2  1  0.37440023  0.74967930  0.62474519  1
  V  V3  1  0.87487201  0.74950609  0.12480129  1
  V  V4  1  0.87661277  0.49878524  0.37531389  1
  V  V5  1  0.24898218  0.87470773  0.62475720  1
  V  V6  1  -0.00026406  0.25042643  0.74866961  1
  V  V7  1  0.37574271  0.62605086  0.24996429  1
  V  V8  1  0.49905342  0.87372581  0.87529027  1
  V  V9  1  0.87366838  0.87582643  0.50147242  1
  V  V10  1  0.49887591  0.24981390  0.75154270  1
  V  V11  1  0.49997244  0.50046071  0.50022851  1
  V  V12  1  0.37292465  0.12536840  0.75086383  1
  V  V13  1  0.12514331  0.12533781  0.49938206  1
  V  V14  1  -0.00014598  -0.00098697  -0.00139251  1
  V  V15  1  0.62411440  -0.00071607  0.62649600  1
  V  V16  1  0.62542895  0.75060580  0.37488708  1
  V  V17  1  0.24967729  0.62558989  0.37549276  1
  V  V18  1  0.37363849  0.00008658  0.87591405  1
  V  V19  1  0.12574489  -0.00138684  0.12555256  1
  V  V20  1  0.62594913  0.37478679  0.25070235  1
  V  V21  1  0.50222315  0.37523577  0.37467843  1
  V  V22  1  0.12557937  0.87552380  0.74835618  1
  V  V23  1  0.49913277  0.12501006  0.62620349  1
  V  V24  1  0.37596281  0.50078843  0.37483755  1
  V  V25  1  0.87495112  0.12479241  0.25023804  1
  V  V26  1  0.24911365  0.24886171  -0.00073899  1
  V  V27  1  -0.00030318  0.12420854  0.12335243  1
  V  V28  1  0.62587646  0.62614590  0.50000194  1
  V  V29  1  0.75097571  0.49946864  0.25040052  1
  V  V30  1  0.24921338  0.62469817  0.87534063  1
  V  V31  1  0.49976233  0.37582970  0.87743670  1
  V  V32  1  0.00039494  0.37486982  0.37551205  1
  V  V33  1  0.75107223  0.37478066  0.12493386  1
  V  V34  1  0.62403319  0.12412783  0.00073731  1
  V  V35  1  0.37474836  0.37539745  0.00069745  1
  V  V36  1  0.37653201  0.12548107  0.25025412  1
  V  V37  1  0.49949011  -0.00010058  0.50026983  1
  V  V38  1  0.75016977  0.37285511  0.62353998  1
  V  V39  1  0.50072840  0.87422616  0.37362815  1
  V  V40  1  0.12680822  0.25038698  0.37339489  1
  V  V41  1  -0.00051773  0.37473360  0.87430463  1
  V  V42  1  0.87591557  0.37511973  -0.00119683  1
  V  V43  1  0.74905489  -0.00134929  0.74991016  1
  V  V44  1  0.12697667  0.37475105  0.24939377  1
  V  V45  1  0.12337392  0.62463489  0.00020854  1
  V  V46  1  0.75050710  0.62581418  0.37603262  1
  V  V47  1  0.00087833  0.00171794  0.50009076  1
  V  V48  1  0.74907370  0.87480333  0.12498130  1
  V  V49  1  0.75020703  0.24956785  -0.00078292  1
  V  V50  1  0.87367153  0.62541716  0.75008655  1
  V  V51  1  -0.00008195  0.74999625  0.74934232  1
  V  V52  1  0.24820241  -0.00002545  0.24980216  1
  V  V53  1  0.25092947  0.49938620  0.24945597  1
  V  V54  1  0.37376461  0.87436170  0.00043552  1
  V  V55  1  0.74882385  -0.00034808  0.24902677  1
  V  V56  1  0.62536919  0.50129174  0.12451609  1
  V  V57  1  0.12394660  0.37499409  0.74956602  1
  V  V58  1  0.37568575  0.37472912  0.50091092  1
  V  V59  1  0.12544167  0.12439452  -0.00124054  1
  V  V60  1  0.62390181  0.75024781  0.87488964  1
  V  V61  1  0.25041653  0.37544634  0.12521628  1
  V  V62  1  0.25289149  0.25113687  0.49978039  1
  V  V63  1  0.24886401  0.49889800  0.75043982  1
  V  V64  1  0.50196948  0.24994857  0.25115390  1
  V  V65  1  0.50104589  0.12398362  0.12480218  1
  V  V66  1  0.00040656  0.12653526  0.62396461  1
  V  V67  1  0.00050977  0.75021875  0.25064779  1
  V  V68  1  0.25097420  0.12506248  0.37491719  1
  V  V69  1  0.74971168  0.75017782  -0.00013812  1
  V  V70  1  -0.00014205  0.62392509  0.62438059  1
  V  V71  1  0.49991954  0.75002077  0.75070485  1
  V  V72  1  0.62472642  0.50007723  0.62662156  1
  V  V73  1  0.37523905  -0.00000760  0.37587813  1
  V  V74  1  0.37430074  0.62442626  0.75095930  1
  V  V75  1  0.37497770  0.49953527  0.87635733  1
  V  V76  1  -0.00070665  0.49978915  -0.00036813  1
  V  V77  1  0.12517774  0.49990521  0.62520580  1
  V  V78  1  0.87574494  0.62468498  0.25052771  1
  V  V79  1  0.24955481  0.75000154  0.00030639  1
  V  V80  1  0.24965915  0.74887573  0.49988735  1
  V  V81  1  0.62460955  0.37563740  0.75096499  1
  V  V82  1  0.50007380  0.62531174  0.62542645  1
  V  V83  1  0.75069808  0.62505229  0.87384685  1
  V  V84  1  0.74936351  0.12476830  0.87437747  1
  V  V85  1  0.87482447  0.75039142  0.62398379  1
  V  V86  1  0.87500077  0.12632983  0.74844711  1
  V  V87  1  0.62486435  0.62400890  0.00119999  1
  V  V88  1  0.12477557  0.62382714  0.50004285  1
  V  V89  1  0.87515217  0.87511940  -0.00128503  1
  V  V90  1  0.12482346  0.74976349  0.87458540  1
  V  V91  1  0.37528651  0.74938991  0.12643692  1
  V  V92  1  0.00026959  0.62444025  0.12482471  1
  V  V93  1  0.00095709  0.87520417  0.37381078  1
  V  V94  1  0.62718875  0.12722488  0.49842736  1
  V  V95  1  0.87588787  0.24911813  0.12341810  1
  Zn  Zn96  1  0.25150552  0.37414957  0.62580296  1
  Zn  Zn97  1  0.62352767  -0.00357460  0.12337531  1
  Zn  Zn98  1  0.74737384  0.87340309  0.62497825  1
  Zn  Zn99  1  0.62432084  0.87421494  0.74915197  1
  Zn  Zn100  1  0.50077868  0.62390272  0.12578395  1
  Zn  Zn101  1  0.87371234  0.00241686  0.37634183  1
  Zn  Zn102  1  0.00188655  0.24900637  0.24804283  1
  Zn  Zn103  1  0.24821096  0.87487162  0.12732229  1
  Zn  Zn104  1  0.75373852  0.24882516  0.49721385  1
  Zn  Zn105  1  0.87337896  0.49998596  0.87312150  1
  Zn  Zn106  1  0.37585890  0.25077183  0.12546282  1
  Zn  Zn107  1  0.87491030  0.25143222  0.62146014  1
  Zn  Zn108  1  0.12606676  0.87299811  0.24913397  1
  Zn  Zn109  1  0.62837634  0.25082037  0.37586599  1
  Zn  Zn110  1  0.49940317  0.50099979  0.00243652  1
  Zn  Zn111  1  0.75007040  0.75101060  0.50090003  1
  Zn  Zn112  1  0.50019783  -0.00123581  0.00178916  1
  Zn  Zn113  1  0.87389130  0.37347170  0.49961185  1
  Zn  Zn114  1  0.12673865  0.00124455  0.62612039  1
  Zn  Zn115  1  0.24766287  0.12440770  0.87388029  1
  Zn  Zn116  1  0.12499234  0.49979563  0.12487011  1
  Zn  Zn117  1  0.75080794  0.50018483  0.75081351  1
  Zn  Zn118  1  0.75075413  0.12703166  0.37503915  1
  Zn  Zn119  1  0.50203927  0.74945335  0.24876712  1
  Zn  Zn120  1  0.62511796  0.87392664  0.24797340  1
  Zn  Zn121  1  0.24808035  0.00117221  0.74814327  1
  Zn  Zn122  1  0.12530899  0.74895647  0.37422130  1
  Zn  Zn123  1  0.12453610  0.24774016  0.87319033  1
  Zn  Zn124  1  0.37431240  0.25189214  0.62580089  1
  Zn  Zn125  1  0.37340691  0.87490153  0.50013585  1
  Zn  Zn126  1  -0.00110475  0.49905735  0.50096862  1
  Zn  Zn127  1  0.87529032  0.00012488  0.87403884  1
  Zn  Zn128  1  0.18799302  0.18689119  0.18583839  1
  Zn  Zn129  1  0.18733192  0.19023698  0.68471748  1
  Zn  Zn130  1  0.18671698  0.68766429  0.18849757  1
  Zn  Zn131  1  0.18679628  0.68722843  0.68690293  1
  Zn  Zn132  1  0.68724484  0.18801413  0.18671569  1
  Zn  Zn133  1  0.68612933  0.18803685  0.68699765  1
  Zn  Zn134  1  0.68724667  0.68813473  0.18914985  1
  Zn  Zn135  1  0.68866590  0.68909964  0.68716045  1
  Zn  Zn136  1  0.31558087  0.31234839  0.31260029  1
  Zn  Zn137  1  0.31124619  0.31326708  0.81444411  1
  Zn  Zn138  1  0.31187038  0.81372631  0.31270600  1
  Zn  Zn139  1  0.31186799  0.81261953  0.81146377  1
  Zn  Zn140  1  0.81227673  0.30917124  0.31384482  1
  Zn  Zn141  1  0.81304760  0.31225445  0.81040018  1
  Zn  Zn142  1  0.81334108  0.81253234  0.31356398  1
  Zn  Zn143  1  0.81254291  0.81248597  0.81262582  1
  Zn  Zn144  1  0.18833308  0.43803428  0.43818238  1
  Zn  Zn145  1  0.18524538  0.43647585  0.93712706  1
  Zn  Zn146  1  0.18667223  0.93775159  0.43865420  1
  Zn  Zn147  1  0.18806111  0.93665809  0.93768759  1
  Zn  Zn148  1  0.68776112  0.43893303  0.43872876  1
  Zn  Zn149  1  0.68845681  0.43938659  0.93751735  1
  Zn  Zn150  1  0.68744944  0.94074641  0.43552943  1
  Zn  Zn151  1  0.68550765  0.93789677  0.93738252  1
  Zn  Zn152  1  0.31292133  0.06261467  0.06393508  1
  Zn  Zn153  1  0.31215927  0.06180172  0.56298801  1
  Zn  Zn154  1  0.31160610  0.56249591  0.06305513  1
  Zn  Zn155  1  0.31147515  0.56149997  0.56317064  1
  Zn  Zn156  1  0.81238788  0.06064842  0.06272861  1
  Zn  Zn157  1  0.81300340  0.06180411  0.56502462  1
  Zn  Zn158  1  0.81283706  0.56199293  0.06124476  1
  Zn  Zn159  1  0.81271494  0.55930165  0.56174115  1
  Zn  Zn160  1  0.43869051  0.43787169  0.18652186  1
  Zn  Zn161  1  0.43680307  0.43712441  0.68818844  1
  Zn  Zn162  1  0.43482714  0.93756500  0.18858059  1
  Zn  Zn163  1  0.43620445  0.93661912  0.68820815  1
  Zn  Zn164  1  0.93912517  0.43718590  0.18785833  1
  Zn  Zn165  1  0.93567330  0.43912471  0.68802528  1
  Zn  Zn166  1  0.93668913  0.93779433  0.18612723  1
  Zn  Zn167  1  0.93820306  0.94023559  0.68615461  1
  Zn  Zn168  1  0.06203870  0.06157618  0.31264374  1
  Zn  Zn169  1  0.06311098  0.06215208  0.81167096  1
  Zn  Zn170  1  0.06441208  0.56089849  0.31228893  1
  Zn  Zn171  1  0.06038316  0.56108630  0.81263666  1
  Zn  Zn172  1  0.56413052  0.06113308  0.31274000  1
  Zn  Zn173  1  0.56085332  0.06170230  0.81385781  1
  Zn  Zn174  1  0.56251612  0.56367809  0.31105556  1
  Zn  Zn175  1  0.56257423  0.56200849  0.81390381  1
  Zn  Zn176  1  0.43982958  0.18859352  0.43727593  1
  Zn  Zn177  1  0.43627090  0.18837364  0.93867380  1
  Zn  Zn178  1  0.43732043  0.68873305  0.43803743  1
  Zn  Zn179  1  0.43841527  0.68614405  0.93974330  1
  Zn  Zn180  1  0.93688675  0.19148105  0.43723060  1
  Zn  Zn181  1  0.93745876  0.18709763  0.93436283  1
  Zn  Zn182  1  0.93856990  0.68830572  0.43831036  1
  Zn  Zn183  1  0.93673936  0.68753479  0.93680402  1
  Zn  Zn184  1  0.06347943  0.31224294  0.06236472  1
  Zn  Zn185  1  0.06473440  0.31186905  0.56239165  1
  Zn  Zn186  1  0.06244717  0.81297942  0.06328344  1
  Zn  Zn187  1  0.06317422  0.81130456  0.56169457  1
  Zn  Zn188  1  0.56279275  0.31225290  0.06396437  1
  Zn  Zn189  1  0.56166310  0.31138915  0.56461040  1
  Zn  Zn190  1  0.56140034  0.81192103  0.06142260  1
  Zn  Zn191  1  0.56249103  0.81336533  0.56150096  1
  O  O192  1  0.11901069  0.11875577  0.11888551  1
  O  O193  1  0.11889777  0.12467350  0.61655895  1
  O  O194  1  0.11792902  0.62467471  0.11783348  1
  O  O195  1  0.11928306  0.61957725  0.62065364  1
  O  O196  1  0.61559315  0.12453358  0.11940065  1
  O  O197  1  0.61836890  0.11883953  0.61889469  1
  O  O198  1  0.62613044  0.61947798  0.11930890  1
  O  O199  1  0.61898923  0.62074467  0.62036496  1
  O  O200  1  0.38267974  0.38198114  0.38001467  1
  O  O201  1  0.38015282  0.38051248  0.88076211  1
  O  O202  1  0.38420173  0.88106353  0.37713618  1
  O  O203  1  0.37882955  0.88147278  0.87932705  1
  O  O204  1  0.88551252  0.37966581  0.37194586  1
  O  O205  1  0.88076717  0.37543321  0.88160529  1
  O  O206  1  0.88495628  0.87561142  0.38437219  1
  O  O207  1  0.88220996  0.87531327  0.88127685  1
  O  O208  1  0.25498756  0.00634958  0.37105205  1
  O  O209  1  0.26303709  0.00029444  0.87242149  1
  O  O210  1  0.25734411  0.50548110  0.36942933  1
  O  O211  1  0.25470155  0.50565742  0.87019661  1
  O  O212  1  0.75405106  0.00356592  0.36232513  1
  O  O213  1  0.74954238  0.00623409  0.86534750  1
  O  O214  1  0.75605623  0.50528406  0.36898155  1
  O  O215  1  0.75223867  0.50911561  0.87233523  1
  O  O216  1  0.24871687  0.49358123  0.13189424  1
  O  O217  1  0.24348716  0.49954857  0.63355680  1
  O  O218  1  0.24420880  0.99937428  0.13170798  1
  O  O219  1  0.24869967  0.98963605  0.62636516  1
  O  O220  1  0.74650355  0.49412881  0.13107036  1
  O  O221  1  0.74193719  0.49116056  0.62710032  1
  O  O222  1  0.74924029  0.99296474  0.13282690  1
  O  O223  1  0.74351970  0.99931417  0.63638522  1
  O  O224  1  0.00709075  0.37320021  0.25884741  1
  O  O225  1  0.00413942  0.37040820  0.75436572  1
  O  O226  1  -0.00270988  0.87020724  0.25935733  1
  O  O227  1  0.00472329  0.86928755  0.75413121  1
  O  O228  1  0.50600942  0.37031141  0.25506050  1
  O  O229  1  0.50428444  0.36962977  0.75727965  1
  O  O230  1  0.50137908  0.87539645  0.26305634  1
  O  O231  1  0.49955925  0.86726192  0.75733040  1
  O  O232  1  0.49705478  0.12907566  0.24347054  1
  O  O233  1  0.49181293  0.12988126  0.74718184  1
  O  O234  1  0.49086546  0.62825983  0.24812986  1
  O  O235  1  0.49356969  0.62997153  0.74535039  1
  O  O236  1  0.99027270  0.12424971  0.24258864  1
  O  O237  1  0.99524726  0.13004577  0.74441885  1
  O  O238  1  0.99460145  0.62926288  0.24511245  1
  O  O239  1  0.99484456  0.63164418  0.74478107  1
  O  O240  1  0.36516503  0.25613375  0.00141103  1
  O  O241  1  0.37072934  0.25646030  0.50010032  1
  O  O242  1  0.36882457  0.75320365  0.00739571  1
  O  O243  1  0.36781069  0.74971098  0.50783350  1
  O  O244  1  0.86938790  0.25464869  0.00425539  1
  O  O245  1  0.87150676  0.25561371  0.50404352  1
  O  O246  1  0.86948089  0.75503562  0.00555819  1
  O  O247  1  0.87548656  0.76023160  0.50552714  1
  O  O248  1  0.13247811  0.24494230  0.49225463  1
  O  O249  1  0.13414616  0.24362972  0.99954316  1
  O  O250  1  0.13176157  0.74124999  0.49866478  1
  O  O251  1  0.12918886  0.74458027  0.99394886  1
  O  O252  1  0.62378532  0.23658295  0.50099819  1
  O  O253  1  0.63134881  0.24486894  0.99513923  1
  O  O254  1  0.62643862  0.74355756  0.49338367  1
  O  O255  1  0.63118376  0.74434868  0.99453085  1
  O  O256  1  0.49941578  0.23988600  0.13163871  1
  O  O257  1  0.49719428  0.24310011  0.63416882  1
  O  O258  1  0.48651281  0.74887419  0.12611075  1
  O  O259  1  0.49467116  0.74421017  0.63000726  1
  O  O260  1  0.99375869  0.24264837  0.12540445  1
  O  O261  1  0.99998344  0.24420274  0.63111511  1
  O  O262  1  0.99348961  0.74449114  0.12993801  1
  O  O263  1  0.99486648  0.74395726  0.63051008  1
  O  O264  1  0.00783428  0.25900138  0.37092827  1
  O  O265  1  0.00146747  0.25682183  0.86733491  1
  O  O266  1  -0.00015878  0.75908714  0.36915159  1
  O  O267  1  0.00571857  0.75507924  0.86929873  1
  O  O268  1  0.50411159  0.25758682  0.36871111  1
  O  O269  1  0.50519400  0.25574298  0.87117499  1
  O  O270  1  0.50501822  0.75947253  0.37520174  1
  O  O271  1  0.50375405  0.75395368  0.86997353  1
  O  O272  1  0.24591840  0.13029946  0.49351685  1
  O  O273  1  0.24543751  0.13405040  1.00047536  1
  O  O274  1  0.24512564  0.62914968  0.49491693  1
  O  O275  1  0.24355177  0.63012959  0.99401765  1
  O  O276  1  0.73820245  0.12285611  0.50068193  1
  O  O277  1  0.74512428  0.13023578  0.99505802  1
  O  O278  1  0.74353320  0.62527429  0.49321578  1
  O  O279  1  0.74570746  0.63184521  0.99474146  1
  O  O280  1  0.25376775  0.36774172  0.00467719  1
  O  O281  1  0.25805416  0.36891745  0.49908071  1
  O  O282  1  0.25630364  0.86665333  0.00102797  1
  O  O283  1  0.25039452  0.86767596  0.50683866  1
  O  O284  1  0.75543564  0.36882420  0.00517231  1
  O  O285  1  0.74716814  0.37373234  0.51241145  1
  O  O286  1  0.75521134  0.86931235  0.00416610  1
  O  O287  1  0.76345000  0.87685786  0.49942746  1
  O  O288  1  0.13371151  0.49304130  0.24826965  1
  O  O289  1  0.12979089  0.49556893  0.74521991  1
  O  O290  1  0.13082714  1.00021044  0.24318773  1
  O  O291  1  0.12808240  0.99125951  0.74771562  1
  O  O292  1  0.63241840  0.49506780  0.24511510  1
  O  O293  1  0.62447816  0.49323713  0.74380124  1
  O  O294  1  0.63763669  0.99856518  0.24711891  1
  O  O295  1  0.63307260  1.00069985  0.74567399  1
  O  O296  1  0.36870844  0.00662061  0.25672063  1
  O  O297  1  0.37484351  0.00908477  0.75878972  1
  O  O298  1  0.37031623  0.50519380  0.25582571  1
  O  O299  1  0.36932679  0.50544003  0.75658881  1
  O  O300  1  0.86669327  0.00988562  0.24759416  1
  O  O301  1  0.86506927  0.00643405  0.75041235  1
  O  O302  1  0.87011554  0.50550968  0.25487520  1
  O  O303  1  0.87240523  0.51076556  0.75242641  1
  O  O304  1  0.11961237  0.37070294  0.36904969  1
  O  O305  1  0.11692870  0.37357476  0.86740435  1
  O  O306  1  0.11078662  0.87335683  0.37528349  1
  O  O307  1  0.11982887  0.86830166  0.86962103  1
  O  O308  1  0.61896913  0.37702630  0.36800383  1
  O  O309  1  0.62019295  0.36936999  0.87131305  1
  O  O310  1  0.61615848  0.87003661  0.37520103  1
  O  O311  1  0.61709523  0.86758372  0.87458928  1
  O  O312  1  0.38528749  0.12645772  0.13128272  1
  O  O313  1  0.38071822  0.12459719  0.63631674  1
  O  O314  1  0.37431741  0.63439487  0.13020576  1
  O  O315  1  0.38036042  0.62906552  0.63150281  1
  O  O316  1  0.88000369  0.12954155  0.13056710  1
  O  O317  1  0.88238900  0.12692050  0.63132735  1
  O  O318  1  0.87985541  0.63046125  0.13051387  1
  O  O319  1  0.88019814  0.63029540  0.62918049  1
  O  O320  1  0.25199456  0.25543114  0.11464764  1
  O  O321  1  0.25413260  0.25318294  0.61524448  1
  O  O322  1  0.25952130  0.75049681  0.11949769  1
  O  O323  1  0.25521162  0.75452387  0.62018996  1
  O  O324  1  0.75562940  0.25530592  0.11828949  1
  O  O325  1  0.74847491  0.26195086  0.62416529  1
  O  O326  1  0.75621743  0.75471441  0.11981609  1
  O  O327  1  0.75822181  0.75425077  0.62170757  1
  O  O328  1  0.24662621  0.24397270  0.37949581  1
  O  O329  1  0.24784929  0.24883496  0.88871618  1
  O  O330  1  0.24942994  0.74328862  0.38150169  1
  O  O331  1  0.24445301  0.74390758  0.87984668  1
  O  O332  1  0.74481197  0.24491880  0.37872083  1
  O  O333  1  0.74370814  0.24465397  0.87985151  1
  O  O334  1  0.74429159  0.74359549  0.37691009  1
  O  O335  1  0.74396289  0.74568045  0.88077141  1
  O  O336  1  0.00434790  0.11904662  0.00409067  1
  O  O337  1  0.00547347  0.12137484  0.50300996  1
  O  O338  1  0.00392076  0.62077941  0.00507078  1
  O  O339  1  0.00648208  0.62359989  0.50664439  1
  O  O340  1  0.50434378  0.12611573  0.00976438  1
  O  O341  1  0.50682003  0.11921700  0.50596104  1
  O  O342  1  0.50938148  0.62241532  0.00293298  1
  O  O343  1  0.50527907  0.61975416  0.50586227  1
  O  O344  1  0.49661416  0.38134462  0.49505866  1
  O  O345  1  0.49337180  0.37476404  0.99449659  1
  O  O346  1  0.49821589  0.88121803  0.48959462  1
  O  O347  1  0.49116792  0.87576275  0.99321329  1
  O  O348  1  1.00268492  0.37624548  0.48512181  1
  O  O349  1  0.99523042  0.37942486  0.99512463  1
  O  O350  1  0.99287333  0.87970362  0.49333423  1
  O  O351  1  0.99480017  0.87904603  0.99400519  1
  O  O352  1  0.49534487  0.49566429  0.38067576  1
  O  O353  1  0.49275590  0.49321727  0.87714563  1
  O  O354  1  0.49560576  0.99249571  0.37950053  1
  O  O355  1  0.48824997  0.99389173  0.87628096  1
  O  O356  1  0.99523986  0.49031865  0.37423189  1
  O  O357  1  0.99695030  0.49337271  0.88195530  1
  O  O358  1  0.99657081  0.99131530  0.38034715  1
  O  O359  1  0.99859407  0.99235087  0.88102173  1
  O  O360  1  0.00476488  0.00474287  0.11790062  1
  O  O361  1  0.00298994  0.00801695  0.61764040  1
  O  O362  1  0.00133884  0.50693757  0.11858329  1
  O  O363  1  0.00691116  0.50662241  0.62394163  1
  O  O364  1  0.50039013  0.01202984  0.12538248  1
  O  O365  1  0.50402062  0.00524821  0.62077054  1
  O  O366  1  0.50958149  0.50217934  0.12310594  1
  O  O367  1  0.50452989  0.50627003  0.62018813  1
  O  O368  1  0.24716823  0.37970343  0.24552069  1
  O  O369  1  0.24314090  0.38153475  0.75038994  1
  O  O370  1  0.24671690  0.88459327  0.24990111  1
  O  O371  1  0.24376513  0.87338710  0.74168428  1
  O  O372  1  0.74658647  0.38015117  0.24403343  1
  O  O373  1  0.74218153  0.37596385  0.74206898  1
  O  O374  1  0.75314450  0.88443650  0.24408652  1
  O  O375  1  0.74851671  0.88733179  0.74996812  1
  O  O376  1  0.25620745  0.12061892  0.25562724  1
  O  O377  1  0.26133986  0.12517545  0.75151403  1
  O  O378  1  0.25566509  0.61939825  0.25578572  1
  O  O379  1  0.25472343  0.61989404  0.75640798  1
  O  O380  1  0.75908530  0.11654372  0.24594724  1
  O  O381  1  0.75336779  0.11783940  0.75442469  1
  O  O382  1  0.75675644  0.61912985  0.25604695  1
  O  O383  1  0.75618025  0.62603154  0.75629831  1
  O  O384  1  0.37113206  0.11950765  0.36985613  1
  O  O385  1  0.37541919  0.11665561  0.86755920  1
  O  O386  1  0.36967944  0.61974519  0.37055798  1
  O  O387  1  0.36875307  0.62029375  0.87050724  1
  O  O388  1  0.87542942  0.12441663  0.36112967  1
  O  O389  1  0.86684582  0.12309757  0.86747226  1
  O  O390  1  0.87112516  0.61980826  0.36960074  1
  O  O391  1  0.86818368  0.62663760  0.86810948  1
  O  O392  1  0.13209656  0.37619653  0.13155062  1
  O  O393  1  0.12671990  0.38235058  0.63164105  1
  O  O394  1  0.12661636  0.88299553  0.12720862  1
  O  O395  1  0.13199203  0.87425185  0.63062548  1
  O  O396  1  0.63241843  0.38015791  0.13054446  1
  O  O397  1  0.62951029  0.38034227  0.63143406  1
  O  O398  1  0.63240191  0.87561231  0.12707668  1
  O  O399  1  0.62654978  0.88351727  0.62739668  1
  O  O400  1  0.12561110  0.25588068  0.25610387  1
  O  O401  1  0.11854019  0.25684331  0.75096603  1
  O  O402  1  0.11633500  0.75234769  0.25319252  1
  O  O403  1  0.11894169  0.75427671  0.75563751  1
  O  O404  1  0.61965508  0.25750953  0.25039813  1
  O  O405  1  0.61811953  0.25469214  0.75722308  1
  O  O406  1  0.62274726  0.75297326  0.25920459  1
  O  O407  1  0.61739747  0.75077641  0.75679476  1
  O  O408  1  0.38334950  0.24282091  0.24895617  1
  O  O409  1  0.38018067  0.24017289  0.75308284  1
  O  O410  1  0.37418855  0.74515941  0.24096391  1
  O  O411  1  0.37988291  0.74281727  0.74517637  1
  O  O412  1  0.87509350  0.23923758  0.24158790  1
  O  O413  1  0.88170569  0.24333485  0.74650778  1
  O  O414  1  0.88000120  0.74367426  0.24429771  1
  O  O415  1  0.88110581  0.74595909  0.74379903  1
  O  O416  1  0.38098389  0.49613477  0.49422614  1
  O  O417  1  0.37468872  0.49364936  0.99342090  1
  O  O418  1  0.38205023  0.99983589  0.49296711  1
  O  O419  1  0.37576155  0.99472293  0.99106743  1
  O  O420  1  0.87845932  0.49481532  0.49047086  1
  O  O421  1  0.88128264  0.49249015  0.99861514  1
  O  O422  1  0.88173863  0.99184611  0.49919665  1
  O  O423  1  0.88138990  0.99282877  0.99796199  1
  O  O424  1  0.11983746  0.00445837  0.00498235  1
  O  O425  1  0.11837091  0.00841195  0.50039112  1
  O  O426  1  0.11796890  0.50717181  0.00127199  1
  O  O427  1  0.12479339  0.50672150  0.50709140  1
  O  O428  1  0.62095225  0.00856846  0.00209117  1
  O  O429  1  0.61916243  0.00787403  0.50593265  1
  O  O430  1  0.62565159  0.50623948  0.00746183  1
  O  O431  1  0.61819901  0.50686313  0.50608660  1
  O  O432  1  0.36859100  0.37311823  0.11902611  1
  O  O433  1  0.37345768  0.37357852  0.61709082  1
  O  O434  1  0.37297279  0.86598004  0.11977252  1
  O  O435  1  0.36769568  0.86742869  0.62366827  1
  O  O436  1  0.87039540  0.36919339  0.11959210  1
  O  O437  1  0.86240960  0.37564201  0.62449084  1
  O  O438  1  0.87014995  0.86824273  0.11821790  1
  O  O439  1  0.87676420  0.86994704  0.61479223  1
  O  O440  1  0.13096285  0.13081342  0.37908740  1
  O  O441  1  0.12819616  0.12645238  0.88285077  1
  O  O442  1  0.13226100  0.62490051  0.38148193  1
  O  O443  1  0.12943125  0.63066546  0.87979659  1
  O  O444  1  0.62499397  0.12468450  0.38758473  1
  O  O445  1  0.62873494  0.13141659  0.88041037  1
  O  O446  1  0.63032975  0.62991072  0.38034152  1
  O  O447  1  0.63032747  0.63107108  0.88042411  1
