# generated using pymatgen
data_V3Zn3O8
_symmetry_space_group_name_H-M   'P 1'
_cell_length_a   17.08825512
_cell_length_b   17.08792495
_cell_length_c   17.08928644
_cell_angle_alpha   89.99108568
_cell_angle_beta   89.99394456
_cell_angle_gamma   89.98283345
_symmetry_Int_Tables_number   1
_chemical_formula_structural   V3Zn3O8
_chemical_formula_sum   'V96 Zn96 O256'
_cell_volume   4990.11953712
_cell_formula_units_Z   32
loop_
 _symmetry_equiv_pos_site_id
 _symmetry_equiv_pos_as_xyz
  1  'x, y, z'
loop_
 _atom_site_type_symbol
 _atom_site_label
 _atom_site_symmetry_multiplicity
 _atom_site_fract_x
 _atom_site_fract_y
 _atom_site_fract_z
 _atom_site_occupancy
  V  V0  1  0.12673910  0.50043842  0.12640505  1
  V  V1  1  0.87492355  0.75015420  0.62422467  1
  V  V2  1  -0.00001966  0.37537005  0.37531816  1
  V  V3  1  0.74953140  0.12581724  0.87546325  1
  V  V4  1  0.24924272  0.62591896  0.87568402  1
  V  V5  1  0.37493309  0.00063393  0.37499190  1
  V  V6  1  0.87313734  0.12551846  0.74976996  1
  V  V7  1  0.37493205  0.50042803  0.87554472  1
  V  V8  1  0.75089096  0.62595188  0.37421645  1
  V  V9  1  0.74933482  0.00060978  0.75018519  1
  V  V10  1  0.87425921  0.24979669  0.62493052  1
  V  V11  1  0.00093875  0.87505722  0.37358310  1
  V  V12  1  0.37575630  0.62526819  0.74997871  1
  V  V13  1  0.25072965  0.12502395  0.37456042  1
  V  V14  1  0.75013458  -0.00025153  0.24819417  1
  V  V15  1  0.00146189  0.00041452  0.49880001  1
  V  V16  1  0.12657194  0.37589295  0.25066267  1
  V  V17  1  0.49974276  0.87595942  0.37616218  1
  V  V18  1  0.50018461  0.24923089  0.24973600  1
  V  V19  1  0.50017366  0.75081969  0.25054238  1
  V  V20  1  0.24923024  0.87356171  0.62400513  1
  V  V21  1  0.24860927  -0.00096271  0.74966877  1
  V  V22  1  0.25055063  0.62417642  0.37568560  1
  V  V23  1  0.87378162  0.62416338  0.74984113  1
  V  V24  1  0.12527361  0.12518791  -0.00036179  1
  V  V25  1  0.50055532  0.49985319  0.00273961  1
  V  V26  1  0.50002780  0.00040117  0.50189101  1
  V  V27  1  0.49992333  0.87385272  0.87419554  1
  V  V28  1  0.25084949  0.49953051  0.25142600  1
  V  V29  1  0.37488337  0.74908577  0.62536954  1
  V  V30  1  0.37677464  0.12631052  0.24839707  1
  V  V31  1  0.49825331  0.25010116  0.75074312  1
  V  V32  1  0.37343817  -0.00068883  0.87370731  1
  V  V33  1  0.49933493  0.37518866  0.87555561  1
  V  V34  1  0.49969736  0.12401016  0.62569003  1
  V  V35  1  0.50041010  0.37517324  0.37641650  1
  V  V36  1  0.62512731  0.37537407  0.74999962  1
  V  V37  1  -0.00042520  0.25029005  0.74997553  1
  V  V38  1  0.12551219  0.74878665  0.87521189  1
  V  V39  1  0.37434601  0.87351906  0.00055969  1
  V  V40  1  0.25131706  0.25183610  0.00034728  1
  V  V41  1  0.12587414  -0.00073886  0.12392631  1
  V  V42  1  0.37506248  0.37417273  0.50101992  1
  V  V43  1  0.87391187  0.37409430  0.50002735  1
  V  V44  1  -0.00068095  0.62473245  0.62475089  1
  V  V45  1  0.74998262  0.75096929  0.49968735  1
  V  V46  1  0.25005105  0.87471805  0.12472525  1
  V  V47  1  0.37510551  0.49921861  0.37638001  1
  V  V48  1  0.12342340  0.87452173  0.74851406  1
  V  V49  1  0.87543479  0.75119094  0.12339341  1
  V  V50  1  0.24997254  0.24963995  0.50144421  1
  V  V51  1  0.87491525  0.87487486  -0.00115247  1
  V  V52  1  0.62560159  0.74975486  0.87533749  1
  V  V53  1  0.00092665  0.25048903  0.24920409  1
  V  V54  1  0.74994149  0.50042205  0.75104216  1
  V  V55  1  0.24858405  0.49923335  0.74969190  1
  V  V56  1  0.62463094  0.24922542  0.87657344  1
  V  V57  1  0.87482517  0.62553763  0.25029533  1
  V  V58  1  0.37649005  0.74882973  0.12656640  1
  V  V59  1  0.00062072  0.75014987  0.24866239  1
  V  V60  1  -0.00124887  0.87535180  0.87383212  1
  V  V61  1  0.12398745  0.12357463  0.49931567  1
  V  V62  1  0.87518948  0.87509868  0.49885488  1
  V  V63  1  0.74906127  0.87619614  0.62512479  1
  V  V64  1  0.87571236  0.00003921  0.37360753  1
  V  V65  1  0.62583911  0.87668837  0.25007774  1
  V  V66  1  0.87653334  0.25089629  0.12535022  1
  V  V67  1  0.62522317  0.87485092  0.74918210  1
  V  V68  1  -0.00068973  0.50005839  0.50034269  1
  V  V69  1  0.74946874  0.37604121  0.12662551  1
  V  V70  1  0.87565460  0.37636874  0.00034855  1
  V  V71  1  0.00131984  0.62504849  0.12492342  1
  V  V72  1  0.75036807  0.75098426  -0.00039996  1
  V  V73  1  0.62618228  0.37581894  0.25019754  1
  V  V74  1  0.00060503  0.49999830  -0.00077639  1
  V  V75  1  0.50167687  0.00203693  0.00149555  1
  V  V76  1  0.62611786  0.24981518  0.37614466  1
  V  V77  1  -0.00108424  0.75012101  0.74919948  1
  V  V78  1  -0.00035604  -0.00022888  -0.00155454  1
  V  V79  1  0.75049201  0.12598911  0.37629212  1
  V  V80  1  0.12584749  0.87548931  0.24833118  1
  V  V81  1  0.62561579  0.62537301  0.00171182  1
  V  V82  1  0.49983345  0.74849069  0.74985715  1
  V  V83  1  0.12474745  0.62532199  0.49931049  1
  V  V84  1  0.00087225  0.12644519  0.12449546  1
  V  V85  1  0.62287537  0.62315052  0.50176145  1
  V  V86  1  0.12472728  0.49914727  0.62624114  1
  V  V87  1  0.74969181  0.25018704  0.00043617  1
  V  V88  1  0.87489252  0.50104606  0.37435697  1
  V  V89  1  0.62498924  0.75119627  0.37515104  1
  V  V90  1  0.12493397  0.25011486  0.37540674  1
  V  V91  1  0.37404332  0.87392023  0.50030466  1
  V  V92  1  0.74928753  0.37393418  0.62496611  1
  V  V93  1  0.12411257  0.25072255  0.87394969  1
  V  V94  1  0.12604268  0.74937416  0.37461534  1
  V  V95  1  0.37390405  0.25065921  0.62602303  1
  Zn  Zn96  1  0.62540134  0.12487523  0.50125447  1
  Zn  Zn97  1  0.87421334  0.00079526  0.87475397  1
  Zn  Zn98  1  0.74899427  0.24950699  0.50095099  1
  Zn  Zn99  1  0.62468104  0.00047243  0.62419644  1
  Zn  Zn100  1  0.62569022  0.50079062  0.12817961  1
  Zn  Zn101  1  0.62170459  0.49860809  0.62460856  1
  Zn  Zn102  1  0.49900486  0.49943134  0.50278925  1
  Zn  Zn103  1  0.74830345  0.50144647  0.24923017  1
  Zn  Zn104  1  0.37752487  0.62328845  0.25182430  1
  Zn  Zn105  1  0.25011225  0.74955046  0.49975460  1
  Zn  Zn106  1  0.50074553  0.62383742  0.12919980  1
  Zn  Zn107  1  0.12521999  0.37456696  0.74850626  1
  Zn  Zn108  1  0.75250034  0.62438167  0.87563847  1
  Zn  Zn109  1  0.74898197  0.87684974  0.12297785  1
  Zn  Zn110  1  0.24899083  0.74771816  0.00075621  1
  Zn  Zn111  1  -0.00037603  0.12282554  0.62372920  1
  Zn  Zn112  1  0.25103762  0.00095061  0.24850004  1
  Zn  Zn113  1  0.62603211  0.12459570  0.00328678  1
  Zn  Zn114  1  -0.00130944  0.37679491  0.87414048  1
  Zn  Zn115  1  0.37680733  0.25133572  0.12254692  1
  Zn  Zn116  1  0.37232919  0.12591730  0.75007108  1
  Zn  Zn117  1  0.37489051  0.37471317  0.00220505  1
  Zn  Zn118  1  0.50227991  0.12641181  0.12382447  1
  Zn  Zn119  1  0.24937113  0.12459650  0.87398765  1
  Zn  Zn120  1  0.87596978  0.49990695  0.87513519  1
  Zn  Zn121  1  0.25337960  0.37617083  0.12559606  1
  Zn  Zn122  1  0.49928638  0.62201877  0.62533562  1
  Zn  Zn123  1  0.24809771  0.37389881  0.62678397  1
  Zn  Zn124  1  0.12293673  -0.00027339  0.62353193  1
  Zn  Zn125  1  0.12724591  0.62554494  0.00085259  1
  Zn  Zn126  1  0.87659653  0.12532480  0.24914312  1
  Zn  Zn127  1  0.62490855  0.00140436  0.12474886  1
  Zn  Zn128  1  0.18882190  0.18796778  0.18610258  1
  Zn  Zn129  1  0.18581678  0.18391935  0.68532408  1
  Zn  Zn130  1  0.18973167  0.68583879  0.18872143  1
  Zn  Zn131  1  0.18797791  0.68646643  0.68797233  1
  Zn  Zn132  1  0.68554890  0.18651620  0.18639926  1
  Zn  Zn133  1  0.68584930  0.18822826  0.68884642  1
  Zn  Zn134  1  0.68879059  0.68999876  0.18651154  1
  Zn  Zn135  1  0.68754627  0.68752888  0.68626950  1
  Zn  Zn136  1  0.31305580  0.31250824  0.31419346  1
  Zn  Zn137  1  0.31205447  0.31514668  0.81286659  1
  Zn  Zn138  1  0.31142046  0.81254408  0.31172976  1
  Zn  Zn139  1  0.31145663  0.81176311  0.81187777  1
  Zn  Zn140  1  0.81308844  0.31263476  0.31119696  1
  Zn  Zn141  1  0.81347607  0.31396145  0.81481887  1
  Zn  Zn142  1  0.81263706  0.81277589  0.31167144  1
  Zn  Zn143  1  0.81188703  0.81250087  0.81302840  1
  Zn  Zn144  1  0.18852778  0.43713167  0.43950095  1
  Zn  Zn145  1  0.18653340  0.43663391  0.93649137  1
  Zn  Zn146  1  0.18885977  0.93809421  0.43613905  1
  Zn  Zn147  1  0.18669695  0.93359758  0.93787631  1
  Zn  Zn148  1  0.68877022  0.43836823  0.43624757  1
  Zn  Zn149  1  0.68746359  0.43676078  0.93732737  1
  Zn  Zn150  1  0.68594547  0.93994086  0.43813714  1
  Zn  Zn151  1  0.68778636  0.93790404  0.93543271  1
  Zn  Zn152  1  0.31200537  0.06413207  0.06237180  1
  Zn  Zn153  1  0.31243841  0.06216570  0.56282710  1
  Zn  Zn154  1  0.31266173  0.56395724  0.06330895  1
  Zn  Zn155  1  0.31142392  0.56185044  0.56307773  1
  Zn  Zn156  1  0.81478282  0.06417781  0.06200764  1
  Zn  Zn157  1  0.81407600  0.06180582  0.56304059  1
  Zn  Zn158  1  0.81247757  0.56234012  0.06455063  1
  Zn  Zn159  1  0.81041300  0.56144003  0.56323177  1
  Zn  Zn160  1  0.43591265  0.43404010  0.18743304  1
  Zn  Zn161  1  0.43757006  0.43876950  0.68610366  1
  Zn  Zn162  1  0.43757244  0.93767733  0.18766515  1
  Zn  Zn163  1  0.43643912  0.93555878  0.68696795  1
  Zn  Zn164  1  0.93760142  0.43826058  0.18737795  1
  Zn  Zn165  1  0.93652517  0.43596302  0.68693453  1
  Zn  Zn166  1  0.93763314  0.93783225  0.18517988  1
  Zn  Zn167  1  0.93587676  0.93973118  0.68591342  1
  Zn  Zn168  1  0.06392432  0.06276743  0.31051193  1
  Zn  Zn169  1  0.06146426  0.06389032  0.81281060  1
  Zn  Zn170  1  0.06281367  0.56266155  0.31239788  1
  Zn  Zn171  1  0.06304648  0.56374416  0.81278111  1
  Zn  Zn172  1  0.56355897  0.06279189  0.31424652  1
  Zn  Zn173  1  0.56359645  0.06315749  0.81240119  1
  Zn  Zn174  1  0.56162323  0.56163724  0.31403071  1
  Zn  Zn175  1  0.56331667  0.56274954  0.81482583  1
  Zn  Zn176  1  0.43802035  0.18824849  0.43799361  1
  Zn  Zn177  1  0.43584331  0.18529875  0.93513407  1
  Zn  Zn178  1  0.43708061  0.68757768  0.43751653  1
  Zn  Zn179  1  0.43780568  0.68624662  0.93841284  1
  Zn  Zn180  1  0.93684000  0.18720980  0.43722635  1
  Zn  Zn181  1  0.93600898  0.18757889  0.93720033  1
  Zn  Zn182  1  0.93848903  0.68793947  0.43669321  1
  Zn  Zn183  1  0.93723072  0.68587742  0.93595579  1
  Zn  Zn184  1  0.06511330  0.31542817  0.06331825  1
  Zn  Zn185  1  0.06216922  0.31211428  0.56374756  1
  Zn  Zn186  1  0.06293214  0.81214398  0.05990689  1
  Zn  Zn187  1  0.06334847  0.81293843  0.56173386  1
  Zn  Zn188  1  0.56307064  0.31197329  0.06495882  1
  Zn  Zn189  1  0.56311392  0.31112845  0.56203833  1
  Zn  Zn190  1  0.56323958  0.81571774  0.06429887  1
  Zn  Zn191  1  0.56114867  0.81136143  0.56408626  1
  O  O192  1  0.11995104  0.11956276  0.11908200  1
  O  O193  1  0.12136213  0.12054797  0.61470097  1
  O  O194  1  0.11868283  0.61875344  0.12493312  1
  O  O195  1  0.11794937  0.62024666  0.61954545  1
  O  O196  1  0.62048934  0.11882123  0.12129844  1
  O  O197  1  0.61135811  0.12473261  0.62481136  1
  O  O198  1  0.62283774  0.62578688  0.11278491  1
  O  O199  1  0.62490879  0.62536497  0.61217296  1
  O  O200  1  0.38082977  0.37908362  0.38153692  1
  O  O201  1  0.38246613  0.38307572  0.87795277  1
  O  O202  1  0.38024313  0.88031936  0.37989353  1
  O  O203  1  0.37968102  0.88188543  0.87942305  1
  O  O204  1  0.88098042  0.38051348  0.37990179  1
  O  O205  1  0.87845362  0.37804338  0.88486403  1
  O  O206  1  0.88131050  0.87923866  0.37979158  1
  O  O207  1  0.88207362  0.87570805  0.88062761  1
  O  O208  1  0.25733932  0.00709600  0.37212190  1
  O  O209  1  0.25706267  -0.00366606  0.86679989  1
  O  O210  1  0.25499852  0.50463002  0.37094180  1
  O  O211  1  0.25471171  0.50549614  0.87026028  1
  O  O212  1  0.75519768  0.00667727  0.36775040  1
  O  O213  1  0.75141229  0.00726015  0.86788995  1
  O  O214  1  0.75834867  0.50820958  0.37339091  1
  O  O215  1  0.75167896  0.50034894  0.86217143  1
  O  O216  1  0.24435266  0.50042963  0.13270685  1
  O  O217  1  0.24209194  0.49997470  0.63231034  1
  O  O218  1  0.24350276  0.99339832  0.12518673  1
  O  O219  1  0.25017901  0.99283047  0.63515953  1
  O  O220  1  0.74752956  0.49199421  0.12794528  1
  O  O221  1  0.74829941  0.49345161  0.63581576  1
  O  O222  1  0.75120097  1.00003557  0.13759954  1
  O  O223  1  0.74838009  0.99370646  0.63103498  1
  O  O224  1  0.00642196  0.37060020  0.25619402  1
  O  O225  1  0.00026567  0.36172914  0.75180213  1
  O  O226  1  0.00558703  0.86974657  0.25394057  1
  O  O227  1  0.00325358  0.86960189  0.75342693  1
  O  O228  1  0.50581251  0.36857233  0.25704785  1
  O  O229  1  0.50509305  0.36999766  0.75615463  1
  O  O230  1  0.50576628  0.87158260  0.25741143  1
  O  O231  1  0.50488100  0.86898767  0.75517202  1
  O  O232  1  0.49047962  0.13002983  0.25298753  1
  O  O233  1  0.49725216  0.13019227  0.74187814  1
  O  O234  1  0.49874162  0.63461755  0.24907857  1
  O  O235  1  0.49415130  0.63161109  0.75117649  1
  O  O236  1  1.00022839  0.13221589  0.24272174  1
  O  O237  1  0.99337012  0.13528946  0.74923801  1
  O  O238  1  0.99490215  0.63124934  0.24515490  1
  O  O239  1  0.99401374  0.63065875  0.74346553  1
  O  O240  1  0.36301839  0.24918701  -0.00274271  1
  O  O241  1  0.36904048  0.25444107  0.50535755  1
  O  O242  1  0.37668489  0.75583911  0.01005731  1
  O  O243  1  0.37353667  0.75688870  0.50646217  1
  O  O244  1  0.87040699  0.25629459  0.00629930  1
  O  O245  1  0.87415312  0.25673642  0.50626077  1
  O  O246  1  0.87074168  0.75462995  0.00407633  1
  O  O247  1  0.87024060  0.75543271  0.50414582  1
  O  O248  1  0.12918795  0.24455103  0.49406753  1
  O  O249  1  0.13036957  0.24571805  0.99227575  1
  O  O250  1  0.12492811  0.74315461  0.49248944  1
  O  O251  1  0.12673366  0.74715482  0.99102894  1
  O  O252  1  0.62898864  0.24612909  0.49158462  1
  O  O253  1  0.63164534  0.24948004  0.99339630  1
  O  O254  1  0.63067547  0.74420004  0.49460880  1
  O  O255  1  0.62861658  0.74402575  0.99572034  1
  O  O256  1  0.49746452  0.24668049  0.13377750  1
  O  O257  1  0.49400758  0.24219690  0.63067833  1
  O  O258  1  0.49088792  0.75241075  0.13131656  1
  O  O259  1  0.49260781  0.74791066  0.63266690  1
  O  O260  1  0.99701923  0.24606819  0.12941164  1
  O  O261  1  0.99386341  0.24813955  0.63463704  1
  O  O262  1  0.99565555  0.74505819  0.12977064  1
  O  O263  1  0.99421211  0.74479665  0.62939973  1
  O  O264  1  0.00549223  0.25585699  0.36969107  1
  O  O265  1  0.00758833  0.24993826  0.86741932  1
  O  O266  1  0.00547947  0.75553664  0.36831863  1
  O  O267  1  0.00459860  0.75512347  0.86768401  1
  O  O268  1  0.50615958  0.25518454  0.37007446  1
  O  O269  1  0.50380174  0.25479776  0.87039240  1
  O  O270  1  0.50530354  0.75742565  0.37047967  1
  O  O271  1  0.50500165  0.75533897  0.87017756  1
  O  O272  1  0.24527530  0.12986282  0.49385608  1
  O  O273  1  0.24312171  0.13309492  0.99671175  1
  O  O274  1  0.24188872  0.62623656  0.49354128  1
  O  O275  1  0.24821804  0.62714816  0.99130006  1
  O  O276  1  0.74949767  0.12413991  0.48711705  1
  O  O277  1  0.75030043  0.13241966  0.99363810  1
  O  O278  1  0.74360700  0.63168527  0.49473281  1
  O  O279  1  0.74131763  0.63032101  0.99890462  1
  O  O280  1  0.25050330  0.36361167  -0.00031920  1
  O  O281  1  0.25649941  0.36663287  0.50162497  1
  O  O282  1  0.25695089  0.87173070  0.00668533  1
  O  O283  1  0.25628508  0.87374224  0.50578993  1
  O  O284  1  0.75524206  0.36983875  0.00585040  1
  O  O285  1  0.75696893  0.37426481  0.50617960  1
  O  O286  1  0.75649944  0.86939168  0.00013171  1
  O  O287  1  0.75525656  0.87056384  0.50393160  1
  O  O288  1  0.13022624  0.49488006  0.24663496  1
  O  O289  1  0.12951807  0.49936967  0.74386600  1
  O  O290  1  0.12619886  0.99332533  0.24178919  1
  O  O291  1  0.13375656  0.99373441  0.75056307  1
  O  O292  1  0.62684824  0.49238175  0.24888421  1
  O  O293  1  0.63416638  0.49455714  0.75059139  1
  O  O294  1  0.63535659  0.99480630  0.25301653  1
  O  O295  1  0.63072054  0.99225548  0.74845827  1
  O  O296  1  0.37553047  0.00985481  0.25662140  1
  O  O297  1  0.36538417  -0.00406270  0.75856132  1
  O  O298  1  0.36913725  0.49987908  0.25817917  1
  O  O299  1  0.36978238  0.50592155  0.75642667  1
  O  O300  1  0.86694496  0.00035306  0.25542449  1
  O  O301  1  0.86762061  0.00702957  0.75123868  1
  O  O302  1  0.87553983  0.50816504  0.25696558  1
  O  O303  1  0.86629294  0.50493535  0.74945572  1
  O  O304  1  0.11879182  0.36992982  0.37123782  1
  O  O305  1  0.12108418  0.36121352  0.87277498  1
  O  O306  1  0.12003286  0.86968126  0.36853592  1
  O  O307  1  0.11828084  0.86869730  0.86815313  1
  O  O308  1  0.62098924  0.36930951  0.37043338  1
  O  O309  1  0.61911132  0.36883573  0.86943019  1
  O  O310  1  0.61948780  0.86991590  0.37093203  1
  O  O311  1  0.61920112  0.86859845  0.86884275  1
  O  O312  1  0.37670047  0.12664791  0.13771913  1
  O  O313  1  0.38450850  0.13041787  0.62663783  1
  O  O314  1  0.37765275  0.63765879  0.12791317  1
  O  O315  1  0.37484584  0.63156322  0.63216441  1
  O  O316  1  0.88339562  0.13314282  0.12632259  1
  O  O317  1  0.87582457  0.13219060  0.63173185  1
  O  O318  1  0.88136585  0.63173631  0.13068875  1
  O  O319  1  0.87997811  0.63094831  0.62894709  1
  O  O320  1  0.24946415  0.25136837  0.11159723  1
  O  O321  1  0.25613734  0.24880622  0.61922399  1
  O  O322  1  0.26052567  0.75532031  0.12555923  1
  O  O323  1  0.25621621  0.75622372  0.62464140  1
  O  O324  1  0.75643060  0.25555509  0.12037449  1
  O  O325  1  0.75632775  0.25608269  0.62485098  1
  O  O326  1  0.75794933  0.75310846  0.11770183  1
  O  O327  1  0.75628170  0.75636535  0.61918894  1
  O  O328  1  0.24396049  0.24445072  0.38132917  1
  O  O329  1  0.24061318  0.24755518  0.88069587  1
  O  O330  1  0.24303115  0.74342456  0.37557445  1
  O  O331  1  0.24375225  0.74411666  0.87503785  1
  O  O332  1  0.74668140  0.23976321  0.37424548  1
  O  O333  1  0.74437089  0.24597983  0.88068031  1
  O  O334  1  0.74512311  0.74617394  0.38058178  1
  O  O335  1  0.74278438  0.74817967  0.88133745  1
  O  O336  1  0.00545706  0.12036438  0.00488254  1
  O  O337  1  0.00609690  0.11792096  0.49803881  1
  O  O338  1  0.00048929  0.61512072  0.00645899  1
  O  O339  1  0.00408893  0.61962404  0.50514166  1
  O  O340  1  0.49908169  0.11221900  -0.00130936  1
  O  O341  1  0.49905373  0.11956639  0.51005571  1
  O  O342  1  0.50926281  0.61669283  0.00085780  1
  O  O343  1  0.51258484  0.62540700  0.49977795  1
  O  O344  1  0.49325957  0.37416955  0.49337898  1
  O  O345  1  0.50203221  0.38526810  0.99396119  1
  O  O346  1  0.49394161  0.87981640  0.49553279  1
  O  O347  1  0.49439125  0.88271694  0.99332308  1
  O  O348  1  0.99433004  0.38068567  0.49457540  1
  O  O349  1  0.99511901  0.38570992  1.00188231  1
  O  O350  1  0.99467247  0.87929894  0.49265661  1
  O  O351  1  0.99501713  0.88039297  0.99328879  1
  O  O352  1  0.49304852  0.49235103  0.37818399  1
  O  O353  1  0.49558337  0.49566743  0.88373754  1
  O  O354  1  0.49456825  0.99497487  0.38143557  1
  O  O355  1  0.49148731  0.99397327  0.87984287  1
  O  O356  1  0.99481167  0.49534393  0.38110079  1
  O  O357  1  1.00018075  0.49882928  0.88660540  1
  O  O358  1  0.99514757  0.99400869  0.37767465  1
  O  O359  1  0.99862783  0.99362331  0.88048242  1
  O  O360  1  0.00610298  0.00577625  0.11820156  1
  O  O361  1  0.00149077  0.00155053  0.61503357  1
  O  O362  1  0.00588081  0.50547624  0.11858665  1
  O  O363  1  0.00335664  0.50573190  0.61957357  1
  O  O364  1  0.49835755  0.00002075  0.11169235  1
  O  O365  1  0.49803665  0.00853545  0.62132884  1
  O  O366  1  0.50183698  0.50160162  0.11390878  1
  O  O367  1  0.50428857  0.50445820  0.62079468  1
  O  O368  1  0.24301948  0.38126959  0.25225933  1
  O  O369  1  0.24658646  0.38389370  0.74787910  1
  O  O370  1  0.24323133  0.87746317  0.24305060  1
  O  O371  1  0.24397546  0.88179315  0.74506152  1
  O  O372  1  0.74417156  0.37608262  0.24459834  1
  O  O373  1  0.74572048  0.38197869  0.74547464  1
  O  O374  1  0.74551820  0.88515370  0.25155412  1
  O  O375  1  0.74515104  0.87982085  0.74458268  1
  O  O376  1  0.25975920  0.12554982  0.25601379  1
  O  O377  1  0.25092829  0.11105073  0.75164890  1
  O  O378  1  0.25206887  0.61716712  0.25861932  1
  O  O379  1  0.25601612  0.61937320  0.75628562  1
  O  O380  1  0.75207285  0.11626162  0.25964317  1
  O  O381  1  0.75374176  0.12073752  0.75536417  1
  O  O382  1  0.75685169  0.62673883  0.25670745  1
  O  O383  1  0.75472728  0.61609633  0.74924769  1
  O  O384  1  0.37048363  0.12038882  0.36817804  1
  O  O385  1  0.37223741  0.10977300  0.87150743  1
  O  O386  1  0.36857684  0.61824713  0.37515909  1
  O  O387  1  0.36989418  0.62024235  0.86943731  1
  O  O388  1  0.86673844  0.11919308  0.37224599  1
  O  O389  1  0.86718903  0.12508506  0.86764855  1
  O  O390  1  0.87074339  0.62148447  0.37016580  1
  O  O391  1  0.87228257  0.62172150  0.86555537  1
  O  O392  1  0.12809034  0.38271884  0.13374195  1
  O  O393  1  0.12617441  0.38342676  0.62673819  1
  O  O394  1  0.12957581  0.87939604  0.12899675  1
  O  O395  1  0.13059028  0.87623375  0.63117125  1
  O  O396  1  0.63234657  0.37545330  0.13293807  1
  O  O397  1  0.63130002  0.37460742  0.63260839  1
  O  O398  1  0.62866544  0.88019619  0.13409782  1
  O  O399  1  0.63157809  0.87500935  0.63162816  1
  O  O400  1  0.12061066  0.25553575  0.25586579  1
  O  O401  1  0.11691847  0.24724126  0.75737464  1
  O  O402  1  0.11922567  0.75544522  0.25441787  1
  O  O403  1  0.11787188  0.75496358  0.75408234  1
  O  O404  1  0.61996528  0.25512008  0.25709729  1
  O  O405  1  0.61831906  0.25634883  0.75691444  1
  O  O406  1  0.62088230  0.75657047  0.25611649  1
  O  O407  1  0.62035900  0.75474816  0.75549116  1
  O  O408  1  0.38113960  0.23972621  0.25282766  1
  O  O409  1  0.38044398  0.24824694  0.74559864  1
  O  O410  1  0.38162098  0.75126212  0.24143826  1
  O  O411  1  0.38061147  0.74515648  0.74569963  1
  O  O412  1  0.88373602  0.24988612  0.24321264  1
  O  O413  1  0.88173099  0.24595170  0.74596547  1
  O  O414  1  0.88142813  0.74586857  0.24464934  1
  O  O415  1  0.87947328  0.74527444  0.74306397  1
  O  O416  1  0.37457537  0.49241721  0.49400979  1
  O  O417  1  0.38600981  0.50192680  0.99432994  1
  O  O418  1  0.37998510  0.99383442  0.49469977  1
  O  O419  1  0.38016700  0.99439107  0.99142128  1
  O  O420  1  0.88041167  0.49511346  0.49504613  1
  O  O421  1  0.88533007  0.49566515  1.00129858  1
  O  O422  1  0.88037034  0.99359677  0.49283942  1
  O  O423  1  0.88229619  0.99370641  0.99836933  1
  O  O424  1  0.11953725  0.00434963  0.00395350  1
  O  O425  1  0.11887267  0.00563796  0.49808951  1
  O  O426  1  0.11574000  0.50038957  0.00636997  1
  O  O427  1  0.11801640  0.50573431  0.50478429  1
  O  O428  1  0.61261767  -0.00015176  -0.00163155  1
  O  O429  1  0.61585266  0.00315247  0.50363153  1
  O  O430  1  0.61692693  0.50871044  -0.00051453  1
  O  O431  1  0.62554255  0.51230765  0.49999946  1
  O  O432  1  0.37044814  0.36951206  0.11997032  1
  O  O433  1  0.37361133  0.36711729  0.61904565  1
  O  O434  1  0.37022424  0.86753678  0.12103549  1
  O  O435  1  0.36930630  0.86853113  0.61986950  1
  O  O436  1  0.87018565  0.36986035  0.12018617  1
  O  O437  1  0.86915584  0.36935272  0.61940396  1
  O  O438  1  0.87491182  0.86812609  0.11707693  1
  O  O439  1  0.86923280  0.86911591  0.61817844  1
  O  O440  1  0.13079301  0.13103543  0.37886816  1
  O  O441  1  0.12511230  0.13520982  0.88085068  1
  O  O442  1  0.12944789  0.62986051  0.38005194  1
  O  O443  1  0.13157693  0.63215632  0.87510073  1
  O  O444  1  0.63552274  0.13064574  0.37562334  1
  O  O445  1  0.63144527  0.13240808  0.87666454  1
  O  O446  1  0.63079602  0.63199614  0.38270920  1
  O  O447  1  0.62668239  0.63127368  0.88652803  1
