# generated using pymatgen
data_V3Zn3O8
_symmetry_space_group_name_H-M   'P 1'
_cell_length_a   17.09048656
_cell_length_b   17.08998971
_cell_length_c   17.09015520
_cell_angle_alpha   89.99320662
_cell_angle_beta   90.00393861
_cell_angle_gamma   89.99780045
_symmetry_Int_Tables_number   1
_chemical_formula_structural   V3Zn3O8
_chemical_formula_sum   'V96 Zn96 O256'
_cell_volume   4991.62821226
_cell_formula_units_Z   32
loop_
 _symmetry_equiv_pos_site_id
 _symmetry_equiv_pos_as_xyz
  1  'x, y, z'
loop_
 _atom_site_type_symbol
 _atom_site_label
 _atom_site_symmetry_multiplicity
 _atom_site_fract_x
 _atom_site_fract_y
 _atom_site_fract_z
 _atom_site_occupancy
  V  V0  1  0.75108761  0.49886591  0.74997264  1
  V  V1  1  -0.00026070  0.87477250  0.87483092  1
  V  V2  1  -0.00004779  0.62458924  0.12439543  1
  V  V3  1  0.12595435  0.74978963  0.87517795  1
  V  V4  1  0.62595785  0.62454588  0.50023693  1
  V  V5  1  0.50137252  0.50030472  0.00037518  1
  V  V6  1  0.37336406  0.12481093  0.25003509  1
  V  V7  1  0.87517871  0.37554452  0.50030436  1
  V  V8  1  -0.00084771  0.12647743  0.12550006  1
  V  V9  1  0.74966076  0.37526881  0.12483414  1
  V  V10  1  0.37523300  0.87618032  0.49841922  1
  V  V11  1  0.37565357  0.49896389  0.37585185  1
  V  V12  1  0.24927834  0.62535130  0.37499967  1
  V  V13  1  0.00018989  0.74921871  0.74960758  1
  V  V14  1  0.12454894  0.00069440  0.12494574  1
  V  V15  1  0.87432745  0.00010041  0.87445772  1
  V  V16  1  0.25035455  0.25198603  0.50180336  1
  V  V17  1  0.37538637  0.50008058  0.87385481  1
  V  V18  1  0.50018100  0.24914036  0.75040836  1
  V  V19  1  0.12515781  0.00015429  0.62413751  1
  V  V20  1  0.50047908  0.49878978  0.50019073  1
  V  V21  1  0.49986075  0.87396202  0.87455888  1
  V  V22  1  0.87645774  0.49888174  0.87454171  1
  V  V23  1  0.74769881  0.24806454  0.49871846  1
  V  V24  1  0.12455238  0.24974130  0.87534602  1
  V  V25  1  0.37451298  -0.00049622  0.87459124  1
  V  V26  1  0.49905917  0.00028851  0.00056184  1
  V  V27  1  0.87433509  0.75035676  0.12440650  1
  V  V28  1  0.50066426  0.62512114  0.12420506  1
  V  V29  1  0.74911115  0.00065031  0.25041117  1
  V  V30  1  0.74836805  0.62627751  0.87658806  1
  V  V31  1  0.62558578  0.50000217  0.62462587  1
  V  V32  1  0.25055516  0.87566049  0.62382387  1
  V  V33  1  0.24949471  0.25089814  0.00037121  1
  V  V34  1  0.75023590  -0.00008328  0.75127725  1
  V  V35  1  0.37463258  0.24969207  0.62458704  1
  V  V36  1  0.24962841  0.74988824  0.49867231  1
  V  V37  1  -0.00051009  0.24882683  0.74964139  1
  V  V38  1  0.87367179  0.25076990  0.12513317  1
  V  V39  1  0.00169269  0.62483969  0.62545003  1
  V  V40  1  0.62556494  0.24833361  0.87595749  1
  V  V41  1  0.24950494  0.37689267  0.12531941  1
  V  V42  1  0.75053240  0.75062598  0.50041204  1
  V  V43  1  0.87484977  0.62487117  0.25056393  1
  V  V44  1  0.87455549  0.87450426  0.50038161  1
  V  V45  1  0.24978505  0.00051464  0.74926080  1
  V  V46  1  0.62305286  0.37369718  0.25230919  1
  V  V47  1  0.12795374  0.37706436  0.74786542  1
  V  V48  1  0.74996718  0.12454678  0.87597469  1
  V  V49  1  0.00020122  0.87557249  0.37418743  1
  V  V50  1  0.87338958  0.12610499  0.25153323  1
  V  V51  1  0.50080899  0.12345939  0.62452969  1
  V  V52  1  0.37818635  0.74863092  0.62658121  1
  V  V53  1  0.75147918  0.37396026  0.62531220  1
  V  V54  1  0.37442473  0.25042209  0.12624963  1
  V  V55  1  0.50040204  0.37443698  0.87566855  1
  V  V56  1  0.00052659  0.50045747  0.50074852  1
  V  V57  1  0.87517387  0.50110155  0.37571645  1
  V  V58  1  0.49967932  0.74897801  0.24909436  1
  V  V59  1  0.49883043  0.87489156  0.37441665  1
  V  V60  1  0.37511141  0.12477079  0.75018189  1
  V  V61  1  -0.00099502  0.12537754  0.62622911  1
  V  V62  1  0.37478445  0.87514160  -0.00036024  1
  V  V63  1  0.24931473  0.00029829  0.24989475  1
  V  V64  1  0.62620705  0.37403352  0.75059601  1
  V  V65  1  0.62424566  0.87211369  0.75137207  1
  V  V66  1  0.00018556  0.37490192  0.87554816  1
  V  V67  1  0.00005455  0.75096640  0.24972221  1
  V  V68  1  0.62422041  0.74950827  0.37517881  1
  V  V69  1  0.24934257  0.87463971  0.12451473  1
  V  V70  1  0.75083924  0.62496032  0.37451488  1
  V  V71  1  0.12335566  0.87529017  0.24961192  1
  V  V72  1  0.24991106  0.50067661  0.25005609  1
  V  V73  1  0.25195846  0.62419478  0.87270665  1
  V  V74  1  0.62514155  0.00015638  0.62278751  1
  V  V75  1  0.12454913  0.37550656  0.25022568  1
  V  V76  1  0.24980141  0.75005384  -0.00048719  1
  V  V77  1  0.12463230  0.12549709  0.00047131  1
  V  V78  1  0.12399152  0.12558719  0.49950128  1
  V  V79  1  0.12295197  0.25107962  0.37471366  1
  V  V80  1  0.87686418  0.62475959  0.74923935  1
  V  V81  1  0.37431148  -0.00035891  0.37397024  1
  V  V82  1  0.37501645  0.37505668  0.00019385  1
  V  V83  1  0.12509210  0.62502288  0.50015823  1
  V  V84  1  0.62526027  0.50037978  0.12453229  1
  V  V85  1  0.50002207  0.12527652  0.12507416  1
  V  V86  1  0.75020574  0.87427677  0.12483314  1
  V  V87  1  0.37554517  0.74970767  0.12531211  1
  V  V88  1  0.74947052  0.24970539  0.00010407  1
  V  V89  1  0.12473172  0.87546358  0.74946885  1
  V  V90  1  0.00139924  0.50036172  0.00103721  1
  V  V91  1  0.87417084  0.87454000  0.00056648  1
  V  V92  1  0.62533232  0.87478873  0.24907456  1
  V  V93  1  -0.00019355  0.00009240  -0.00032751  1
  V  V94  1  0.24985471  0.12491432  0.87549355  1
  V  V95  1  -0.00025179  -0.00032064  0.49960872  1
  Zn  Zn96  1  0.49776641  0.25045219  0.25441654  1
  Zn  Zn97  1  0.62604622  0.62708968  0.00028107  1
  Zn  Zn98  1  0.25323168  0.50009965  0.74671449  1
  Zn  Zn99  1  0.62468687  0.12333948  0.00097011  1
  Zn  Zn100  1  -0.00163438  0.37645679  0.37424093  1
  Zn  Zn101  1  0.12580114  0.50177595  0.12593673  1
  Zn  Zn102  1  0.37444017  0.62515251  0.24941614  1
  Zn  Zn103  1  0.87414909  0.00255763  0.37640313  1
  Zn  Zn104  1  0.37635821  0.37430486  0.50212627  1
  Zn  Zn105  1  0.74612933  0.12572770  0.37571864  1
  Zn  Zn106  1  0.37913454  0.62241198  0.74853601  1
  Zn  Zn107  1  0.50043968  0.74653186  0.75197490  1
  Zn  Zn108  1  0.50157950  0.62555345  0.62788711  1
  Zn  Zn109  1  0.75023260  0.50013683  0.24954241  1
  Zn  Zn110  1  0.25346832  0.37875151  0.62591965  1
  Zn  Zn111  1  0.50032020  0.00149316  0.49779573  1
  Zn  Zn112  1  0.62391514  -0.00057343  0.12356184  1
  Zn  Zn113  1  -0.00211078  0.25271742  0.25057865  1
  Zn  Zn114  1  0.12536858  0.75032141  0.37443175  1
  Zn  Zn115  1  0.87482739  0.24813718  0.62596032  1
  Zn  Zn116  1  0.87431926  0.74998874  0.62572419  1
  Zn  Zn117  1  0.74817272  0.75037241  -0.00064759  1
  Zn  Zn118  1  0.12927343  0.50019924  0.62445357  1
  Zn  Zn119  1  0.62359875  0.12452454  0.49563985  1
  Zn  Zn120  1  0.62011961  0.24691357  0.37548162  1
  Zn  Zn121  1  0.87474117  0.12554076  0.74949609  1
  Zn  Zn122  1  0.87537427  0.37415572  0.00122647  1
  Zn  Zn123  1  0.75064839  0.87371732  0.62615088  1
  Zn  Zn124  1  0.12568802  0.62513026  0.00112951  1
  Zn  Zn125  1  0.25024893  0.12469853  0.37439593  1
  Zn  Zn126  1  0.49956190  0.37230382  0.37499857  1
  Zn  Zn127  1  0.62287203  0.74821602  0.87682494  1
  Zn  Zn128  1  0.18769362  0.18890184  0.18819989  1
  Zn  Zn129  1  0.18630949  0.18857639  0.68676351  1
  Zn  Zn130  1  0.18596625  0.68629624  0.18779632  1
  Zn  Zn131  1  0.18865635  0.68788239  0.68649813  1
  Zn  Zn132  1  0.68555257  0.18939596  0.18734030  1
  Zn  Zn133  1  0.68874400  0.18609486  0.68716290  1
  Zn  Zn134  1  0.68778015  0.68728983  0.18733081  1
  Zn  Zn135  1  0.68982561  0.68703989  0.68638457  1
  Zn  Zn136  1  0.31093503  0.31315198  0.31356005  1
  Zn  Zn137  1  0.31286664  0.31210780  0.81282855  1
  Zn  Zn138  1  0.31200802  0.81208738  0.31111094  1
  Zn  Zn139  1  0.31274605  0.81203184  0.81110980  1
  Zn  Zn140  1  0.80910054  0.31418552  0.31409855  1
  Zn  Zn141  1  0.81449777  0.31093342  0.81332756  1
  Zn  Zn142  1  0.81326534  0.81260274  0.31339695  1
  Zn  Zn143  1  0.81230952  0.81169160  0.81212105  1
  Zn  Zn144  1  0.18695893  0.43758053  0.43729394  1
  Zn  Zn145  1  0.18705491  0.43842736  0.93621626  1
  Zn  Zn146  1  0.18740114  0.93698037  0.43592393  1
  Zn  Zn147  1  0.18707507  0.93737801  0.93739915  1
  Zn  Zn148  1  0.68924497  0.43652076  0.43654423  1
  Zn  Zn149  1  0.68787958  0.43740952  0.93869489  1
  Zn  Zn150  1  0.68806694  0.93652638  0.43600296  1
  Zn  Zn151  1  0.68586202  0.93833742  0.93888008  1
  Zn  Zn152  1  0.31281483  0.06257172  0.06309532  1
  Zn  Zn153  1  0.31273462  0.06429885  0.56047352  1
  Zn  Zn154  1  0.31395484  0.56328154  0.06110490  1
  Zn  Zn155  1  0.31151550  0.56291237  0.56292297  1
  Zn  Zn156  1  0.81181373  0.06266204  0.06291498  1
  Zn  Zn157  1  0.81227848  0.06280793  0.56437520  1
  Zn  Zn158  1  0.81382451  0.56063329  0.06233756  1
  Zn  Zn159  1  0.81378489  0.56324987  0.56303535  1
  Zn  Zn160  1  0.43798321  0.43839794  0.18816132  1
  Zn  Zn161  1  0.43746895  0.43661935  0.68728903  1
  Zn  Zn162  1  0.43717391  0.93755550  0.18801360  1
  Zn  Zn163  1  0.43906520  0.93634785  0.68701317  1
  Zn  Zn164  1  0.93755835  0.43730360  0.18894003  1
  Zn  Zn165  1  0.93963380  0.43726221  0.68594554  1
  Zn  Zn166  1  0.93613993  0.93901769  0.18704742  1
  Zn  Zn167  1  0.93686704  0.93789408  0.68673085  1
  Zn  Zn168  1  0.06111986  0.06370144  0.31346141  1
  Zn  Zn169  1  0.06199964  0.06261667  0.81217067  1
  Zn  Zn170  1  0.06251787  0.56276566  0.31376122  1
  Zn  Zn171  1  0.06490217  0.56218838  0.81331615  1
  Zn  Zn172  1  0.56228387  0.06331857  0.31225031  1
  Zn  Zn173  1  0.56365739  0.06116238  0.81239915  1
  Zn  Zn174  1  0.56279552  0.56184064  0.31108293  1
  Zn  Zn175  1  0.56204538  0.56249121  0.81065103  1
  Zn  Zn176  1  0.43897811  0.18587032  0.43704574  1
  Zn  Zn177  1  0.43719132  0.18765326  0.93868771  1
  Zn  Zn178  1  0.43737423  0.68580578  0.43886326  1
  Zn  Zn179  1  0.43839030  0.68756990  0.93775780  1
  Zn  Zn180  1  0.93523210  0.18859010  0.43866479  1
  Zn  Zn181  1  0.93567921  0.18760626  0.93742802  1
  Zn  Zn182  1  0.93895050  0.68855558  0.43711731  1
  Zn  Zn183  1  0.93592901  0.68696162  0.93733982  1
  Zn  Zn184  1  0.06163772  0.31372809  0.06443066  1
  Zn  Zn185  1  0.06104350  0.31353251  0.56376486  1
  Zn  Zn186  1  0.06212015  0.81161480  0.06206308  1
  Zn  Zn187  1  0.06224899  0.81079426  0.56233784  1
  Zn  Zn188  1  0.56336461  0.31156638  0.06386218  1
  Zn  Zn189  1  0.56316075  0.31256960  0.56354266  1
  Zn  Zn190  1  0.56497712  0.81082536  0.06040149  1
  Zn  Zn191  1  0.56200367  0.81420601  0.56145777  1
  O  O192  1  0.11985747  0.12054072  0.11968058  1
  O  O193  1  0.11979076  0.11895178  0.61932232  1
  O  O194  1  0.11639937  0.62231980  0.12130205  1
  O  O195  1  0.11950203  0.62461747  0.61868309  1
  O  O196  1  0.61113827  0.12391637  0.12439120  1
  O  O197  1  0.61925234  0.11347062  0.62728767  1
  O  O198  1  0.61893053  0.61832054  0.12444053  1
  O  O199  1  0.62607056  0.61745703  0.61777151  1
  O  O200  1  0.37448261  0.38855957  0.37834918  1
  O  O201  1  0.38098552  0.37859967  0.88101096  1
  O  O202  1  0.37944415  0.87952473  0.37876241  1
  O  O203  1  0.37835502  0.88089054  0.87979493  1
  O  O204  1  0.87531397  0.38251406  0.38186438  1
  O  O205  1  0.88269923  0.38160382  0.87641303  1
  O  O206  1  0.88114552  0.87699206  0.38467817  1
  O  O207  1  0.88091401  0.88016177  0.88029026  1
  O  O208  1  0.25545419  0.00096055  0.36731428  1
  O  O209  1  0.25445154  0.00532973  0.86945891  1
  O  O210  1  0.25808230  0.50500341  0.37160386  1
  O  O211  1  0.25622319  0.50941891  0.87595408  1
  O  O212  1  0.75201112  0.00031002  0.36111090  1
  O  O213  1  0.75512252  0.00489715  0.87121998  1
  O  O214  1  0.75735216  0.50840108  0.37479703  1
  O  O215  1  0.75591148  0.50565492  0.86922927  1
  O  O216  1  0.25000792  0.49434132  0.13053786  1
  O  O217  1  0.24728461  0.49641057  0.62886455  1
  O  O218  1  0.24403878  0.99405196  0.12900126  1
  O  O219  1  0.24489473  0.99565943  0.62985466  1
  O  O220  1  0.74387123  0.49359670  0.12568633  1
  O  O221  1  0.74516035  0.49451966  0.63057288  1
  O  O222  1  0.74937799  0.99402221  0.13532822  1
  O  O223  1  0.74028597  0.99797283  0.63181263  1
  O  O224  1  0.00817382  0.37218022  0.25332890  1
  O  O225  1  0.00883099  0.36978526  0.75572935  1
  O  O226  1  0.00391580  0.87142574  0.25356142  1
  O  O227  1  0.00566092  0.87050075  0.75540083  1
  O  O228  1  0.51018060  0.37403913  0.25007384  1
  O  O229  1  0.50654112  0.36851172  0.75610278  1
  O  O230  1  0.50520284  0.86890022  0.25447244  1
  O  O231  1  0.50937800  0.87513978  0.75620055  1
  O  O232  1  0.49188079  0.12493446  0.23911627  1
  O  O233  1  0.49397195  0.12983498  0.74598547  1
  O  O234  1  0.49847422  0.63192564  0.24317261  1
  O  O235  1  0.49736343  0.62912865  0.74550087  1
  O  O236  1  0.98934524  0.12578628  0.24398019  1
  O  O237  1  1.00115408  0.13097590  0.74417108  1
  O  O238  1  0.99450698  0.63088235  0.24470578  1
  O  O239  1  0.99664502  0.62972499  0.74647747  1
  O  O240  1  0.36838297  0.25569950  0.00498449  1
  O  O241  1  0.36502367  0.24911384  0.50497534  1
  O  O242  1  0.36927648  0.75684596  0.00560214  1
  O  O243  1  0.36988771  0.75604357  0.50685252  1
  O  O244  1  0.86806237  0.25109388  0.00711251  1
  O  O245  1  0.86557963  0.25666023  0.50219932  1
  O  O246  1  0.87390207  0.75730314  0.00630667  1
  O  O247  1  0.87009303  0.75952333  0.49987405  1
  O  O248  1  0.13101113  0.24600181  0.49374741  1
  O  O249  1  0.13002431  0.24485251  0.99525261  1
  O  O250  1  0.13227676  0.74434499  0.49821898  1
  O  O251  1  0.13186004  0.75035527  0.99262727  1
  O  O252  1  0.63631415  0.24952961  0.50109254  1
  O  O253  1  0.63093716  0.24799198  0.99314262  1
  O  O254  1  0.62974419  0.74546266  0.49404988  1
  O  O255  1  0.63074623  0.74558117  0.99474582  1
  O  O256  1  0.49197735  0.24034460  0.12451263  1
  O  O257  1  0.49544111  0.24401060  0.63154139  1
  O  O258  1  0.49480303  0.74551006  0.12953559  1
  O  O259  1  0.48882387  0.75018686  0.62402468  1
  O  O260  1  0.99310001  0.24326260  0.12655724  1
  O  O261  1  0.99997717  0.24245998  0.63135396  1
  O  O262  1  0.99370816  0.74540687  0.12990030  1
  O  O263  1  0.99921456  0.74336348  0.63264481  1
  O  O264  1  0.01243169  0.25150845  0.37517270  1
  O  O265  1  0.00615986  0.25447021  0.87126374  1
  O  O266  1  0.00166958  0.75735725  0.36698115  1
  O  O267  1  0.00551613  0.75537214  0.86980717  1
  O  O268  1  0.50149950  0.25535401  0.37250732  1
  O  O269  1  0.50450743  0.25471443  0.87015956  1
  O  O270  1  0.50471151  0.75435204  0.36983723  1
  O  O271  1  0.50115363  0.75901495  0.87266860  1
  O  O272  1  0.24275232  0.13547976  0.49894206  1
  O  O273  1  0.24445069  0.13029458  0.99538195  1
  O  O274  1  0.24450077  0.63078276  0.49422359  1
  O  O275  1  0.24957698  0.63139020  0.98961748  1
  O  O276  1  0.74913483  0.13528691  0.49983843  1
  O  O277  1  0.74781123  0.13089091  0.99450220  1
  O  O278  1  0.74540402  0.63053392  0.49414839  1
  O  O279  1  0.75165963  0.62379898  0.98724437  1
  O  O280  1  0.25492368  0.37007649  0.00412225  1
  O  O281  1  0.24980811  0.36170919  0.50205762  1
  O  O282  1  0.25498370  0.87046806  0.00493911  1
  O  O283  1  0.25499986  0.87029600  0.50503624  1
  O  O284  1  0.75197944  0.36803422  0.00641659  1
  O  O285  1  0.75465204  0.36847913  0.50630328  1
  O  O286  1  0.75737010  0.87581703  0.00651167  1
  O  O287  1  0.75942953  0.86967729  0.49924501  1
  O  O288  1  0.13215787  0.49316491  0.25056175  1
  O  O289  1  0.12722674  0.48761203  0.75117713  1
  O  O290  1  0.12879052  0.99576934  0.24353831  1
  O  O291  1  0.13049583  0.99492098  0.74449296  1
  O  O292  1  0.62649035  0.49166269  0.24291605  1
  O  O293  1  0.63133441  0.49274006  0.74481964  1
  O  O294  1  0.63384147  0.99356208  0.24731627  1
  O  O295  1  0.62945624  0.99129510  0.74301590  1
  O  O296  1  0.36791288  0.00397120  0.25417324  1
  O  O297  1  0.36898498  0.00476652  0.75468574  1
  O  O298  1  0.36942345  0.50157588  0.25980468  1
  O  O299  1  0.37371164  0.50059538  0.75890606  1
  O  O300  1  0.86650524  0.00927229  0.24938296  1
  O  O301  1  0.86862212  -0.00092365  0.75730209  1
  O  O302  1  0.87393584  0.50769820  0.25705047  1
  O  O303  1  0.87074686  0.50466393  0.75512053  1
  O  O304  1  0.12475992  0.36548103  0.36944344  1
  O  O305  1  0.12019872  0.36866131  0.86830149  1
  O  O306  1  0.11833479  0.87394240  0.36719231  1
  O  O307  1  0.11982259  0.87069006  0.86907717  1
  O  O308  1  0.62448357  0.37632681  0.36259953  1
  O  O309  1  0.61999444  0.36894187  0.86965181  1
  O  O310  1  0.61910253  0.86885030  0.36908974  1
  O  O311  1  0.61915373  0.87654820  0.86504990  1
  O  O312  1  0.38085407  0.13015544  0.12934998  1
  O  O313  1  0.38018821  0.12906876  0.63182832  1
  O  O314  1  0.38180801  0.63228846  0.12565157  1
  O  O315  1  0.37537782  0.63804213  0.62475868  1
  O  O316  1  0.87934526  0.12988868  0.13310061  1
  O  O317  1  0.88430739  0.12548857  0.62895747  1
  O  O318  1  0.88010572  0.63031787  0.13065857  1
  O  O319  1  0.88264367  0.62612728  0.63236622  1
  O  O320  1  0.25462040  0.25620491  0.11882414  1
  O  O321  1  0.25531581  0.24926691  0.61625564  1
  O  O322  1  0.25475808  0.75555217  0.11982747  1
  O  O323  1  0.25785735  0.75670973  0.61912842  1
  O  O324  1  0.75427911  0.25491472  0.11914342  1
  O  O325  1  0.75107651  0.25599520  0.61757525  1
  O  O326  1  0.75772958  0.75657897  0.12501727  1
  O  O327  1  0.75347375  0.75311583  0.61624633  1
  O  O328  1  0.24040192  0.24847004  0.38393709  1
  O  O329  1  0.24501936  0.24365023  0.88130881  1
  O  O330  1  0.25013650  0.74399525  0.38104938  1
  O  O331  1  0.24662466  0.74378211  0.87970579  1
  O  O332  1  0.74679999  0.25014373  0.38785652  1
  O  O333  1  0.74488935  0.24476901  0.87991667  1
  O  O334  1  0.74358530  0.74499788  0.37998601  1
  O  O335  1  0.75031517  0.73692844  0.87472927  1
  O  O336  1  0.00555515  0.11951227  0.00487213  1
  O  O337  1  0.00464697  0.11942545  0.50523910  1
  O  O338  1  -0.00008021  0.61606709  0.00458009  1
  O  O339  1  0.00520533  0.62113387  0.50548812  1
  O  O340  1  0.49738595  0.11916420  0.00958542  1
  O  O341  1  0.50246379  0.12103153  0.50982222  1
  O  O342  1  0.50135042  0.61754061  0.00595554  1
  O  O343  1  0.50733344  0.61437050  0.50135700  1
  O  O344  1  0.50068474  0.38824469  0.49838310  1
  O  O345  1  0.49434272  0.37920812  0.99508062  1
  O  O346  1  0.49319083  0.87729698  0.49154456  1
  O  O347  1  0.49306435  0.88048536  0.99527903  1
  O  O348  1  0.99339447  0.38201447  0.49906656  1
  O  O349  1  0.99932875  0.38346720  0.99440046  1
  O  O350  1  0.99354095  0.87940135  0.49530100  1
  O  O351  1  0.99499437  0.88090546  0.99447089  1
  O  O352  1  0.49187019  0.50080824  0.38326207  1
  O  O353  1  0.49586898  0.49303155  0.88042021  1
  O  O354  1  0.49236986  0.99211194  0.37406277  1
  O  O355  1  0.49260759  0.99512508  0.87977620  1
  O  O356  1  0.99251768  0.50052144  0.38310722  1
  O  O357  1  0.99606723  0.49577409  0.88226306  1
  O  O358  1  0.99825022  0.99388615  0.38207475  1
  O  O359  1  0.99577584  0.99423683  0.88039651  1
  O  O360  1  0.00518594  0.00591349  0.11891683  1
  O  O361  1  0.00698562  0.00436239  0.61948177  1
  O  O362  1  -0.00028329  0.50531853  0.11593238  1
  O  O363  1  0.00356984  0.50756250  0.61851928  1
  O  O364  1  0.49721060  0.00964601  0.11950121  1
  O  O365  1  0.50933436  0.00477183  0.62515843  1
  O  O366  1  0.50435198  0.50544480  0.11921578  1
  O  O367  1  0.50636091  0.50028792  0.61561665  1
  O  O368  1  0.24458155  0.38094871  0.24455373  1
  O  O369  1  0.23881551  0.37386203  0.75116965  1
  O  O370  1  0.24369230  0.88020075  0.24319799  1
  O  O371  1  0.24420154  0.88138967  0.74433504  1
  O  O372  1  0.74047604  0.37708403  0.24295867  1
  O  O373  1  0.74546797  0.37939377  0.74610666  1
  O  O374  1  0.74646105  0.88220997  0.24546669  1
  O  O375  1  0.74075479  0.88099881  0.75020049  1
  O  O376  1  0.25539180  0.11737118  0.24931133  1
  O  O377  1  0.25449820  0.12012694  0.75572411  1
  O  O378  1  0.25156233  0.61893181  0.25650149  1
  O  O379  1  0.25250779  0.62556502  0.76307943  1
  O  O380  1  0.75753539  0.11709954  0.24696155  1
  O  O381  1  0.75104400  0.11769628  0.75788287  1
  O  O382  1  0.75720599  0.62468911  0.25709409  1
  O  O383  1  0.75614222  0.61817344  0.75676081  1
  O  O384  1  0.37279003  0.11758724  0.36754433  1
  O  O385  1  0.36922582  0.11973272  0.86989060  1
  O  O386  1  0.36912821  0.61424061  0.37498910  1
  O  O387  1  0.36639851  0.61971715  0.87516913  1
  O  O388  1  0.87197378  0.12430490  0.36286432  1
  O  O389  1  0.86873719  0.11705418  0.87382276  1
  O  O390  1  0.87027598  0.62142004  0.37014221  1
  O  O391  1  0.86847916  0.61849236  0.86857137  1
  O  O392  1  0.13236635  0.37632798  0.13201067  1
  O  O393  1  0.12666056  0.37463775  0.63768300  1
  O  O394  1  0.12932057  0.88146174  0.12923289  1
  O  O395  1  0.13053731  0.88054094  0.62980374  1
  O  O396  1  0.62940105  0.38019232  0.13209455  1
  O  O397  1  0.63123726  0.38061830  0.63201047  1
  O  O398  1  0.63147292  0.87557187  0.13238468  1
  O  O399  1  0.62453279  0.88386393  0.63377739  1
  O  O400  1  0.12550286  0.25536953  0.25978473  1
  O  O401  1  0.12029581  0.25655481  0.75665033  1
  O  O402  1  0.11791647  0.75813240  0.24984102  1
  O  O403  1  0.12065590  0.75677974  0.75545900  1
  O  O404  1  0.62240058  0.26220405  0.24993554  1
  O  O405  1  0.61965739  0.25481506  0.75552115  1
  O  O406  1  0.61962335  0.75533002  0.25613551  1
  O  O407  1  0.62524872  0.76264106  0.75001822  1
  O  O408  1  0.37303913  0.24389516  0.24314666  1
  O  O409  1  0.38062659  0.24357525  0.74616506  1
  O  O410  1  0.38165244  0.74921721  0.24289214  1
  O  O411  1  0.37567539  0.75157886  0.73683175  1
  O  O412  1  0.87305448  0.24061561  0.24496782  1
  O  O413  1  0.88436710  0.24749059  0.74818626  1
  O  O414  1  0.88080287  0.74531493  0.24441250  1
  O  O415  1  0.88291608  0.74360868  0.74931902  1
  O  O416  1  0.38379522  0.50002932  0.49301735  1
  O  O417  1  0.38136851  0.49312535  0.99427813  1
  O  O418  1  0.37452415  0.99346109  0.49278808  1
  O  O419  1  0.37797178  0.99431393  0.99368871  1
  O  O420  1  0.88025540  0.49577364  0.49513683  1
  O  O421  1  0.88672295  0.49781402  0.99394144  1
  O  O422  1  0.88025227  0.99095980  0.49881274  1
  O  O423  1  0.88119778  0.99465188  0.99516773  1
  O  O424  1  0.11988383  0.00550202  0.00510379  1
  O  O425  1  0.12034092  0.00491271  0.50508862  1
  O  O426  1  0.11222220  0.50119147  0.00057620  1
  O  O427  1  0.11861526  0.50692152  0.50017288  1
  O  O428  1  0.61507542  0.00262277  0.00363521  1
  O  O429  1  0.62508306  -0.00129502  0.51228905  1
  O  O430  1  0.61791391  0.50053725  0.00662887  1
  O  O431  1  0.61905980  0.50443610  0.50413459  1
  O  O432  1  0.36932971  0.37048768  0.11932165  1
  O  O433  1  0.37389053  0.36469137  0.62284302  1
  O  O434  1  0.36873529  0.87006342  0.11932487  1
  O  O435  1  0.36969098  0.86948466  0.61905021  1
  O  O436  1  0.86795562  0.36828877  0.12547993  1
  O  O437  1  0.86839987  0.37440393  0.61846379  1
  O  O438  1  0.87050781  0.87013228  0.12006278  1
  O  O439  1  0.87426603  0.87338082  0.61232173  1
  O  O440  1  0.12630955  0.13428197  0.38040709  1
  O  O441  1  0.13042039  0.12944773  0.88108332  1
  O  O442  1  0.13175904  0.62772337  0.38173886  1
  O  O443  1  0.13492053  0.63162069  0.87677224  1
  O  O444  1  0.62853008  0.12785985  0.37753575  1
  O  O445  1  0.63088321  0.13106054  0.87630035  1
  O  O446  1  0.63034356  0.63029325  0.38019123  1
  O  O447  1  0.63782382  0.62366810  0.87416822  1
