# generated using pymatgen
data_V3Zn3O8
_symmetry_space_group_name_H-M   'P 1'
_cell_length_a   17.08814471
_cell_length_b   17.09010997
_cell_length_c   17.09029710
_cell_angle_alpha   90.01206617
_cell_angle_beta   89.99571801
_cell_angle_gamma   89.99519217
_symmetry_Int_Tables_number   1
_chemical_formula_structural   V3Zn3O8
_chemical_formula_sum   'V96 Zn96 O256'
_cell_volume   4991.02069510
_cell_formula_units_Z   32
loop_
 _symmetry_equiv_pos_site_id
 _symmetry_equiv_pos_as_xyz
  1  'x, y, z'
loop_
 _atom_site_type_symbol
 _atom_site_label
 _atom_site_symmetry_multiplicity
 _atom_site_fract_x
 _atom_site_fract_y
 _atom_site_fract_z
 _atom_site_occupancy
  V  V0  1  -0.00059434  0.62629426  0.62587049  1
  V  V1  1  0.62861034  -0.00050358  0.62658975  1
  V  V2  1  -0.00009369  0.62488601  0.12499010  1
  V  V3  1  0.74934704  0.87380669  0.12627693  1
  V  V4  1  0.62429676  0.24930234  0.37543559  1
  V  V5  1  0.25028110  0.50137935  0.24892083  1
  V  V6  1  0.50041833  0.37539559  0.87498754  1
  V  V7  1  0.00048756  0.49963092  -0.00033571  1
  V  V8  1  0.12606451  0.50029013  0.12450641  1
  V  V9  1  0.87611955  0.87483877  0.00030628  1
  V  V10  1  0.50013036  0.00016373  0.50058596  1
  V  V11  1  0.87537913  0.24903354  0.12527609  1
  V  V12  1  0.62466816  0.74976999  0.87483695  1
  V  V13  1  0.87501109  0.12532236  0.25035560  1
  V  V14  1  -0.00023077  -0.00037479  0.50004590  1
  V  V15  1  0.62564187  0.24867060  0.87492680  1
  V  V16  1  0.75042029  0.75023207  0.50098329  1
  V  V17  1  0.50060580  0.75012688  0.74977499  1
  V  V18  1  0.37391434  0.25079801  0.62384453  1
  V  V19  1  0.00070404  0.12483824  0.62513663  1
  V  V20  1  0.62496748  0.37539122  0.24930506  1
  V  V21  1  0.24983505  0.75065182  -0.00054729  1
  V  V22  1  0.12397688  0.87529759  0.75040950  1
  V  V23  1  0.12562541  0.75053442  0.37580388  1
  V  V24  1  -0.00140184  0.49810248  0.49740455  1
  V  V25  1  0.37559915  0.75040906  0.12522132  1
  V  V26  1  0.24758570  0.12746523  0.37616429  1
  V  V27  1  -0.00063362  0.12525498  0.12607669  1
  V  V28  1  -0.00079129  0.87481042  0.37533139  1
  V  V29  1  0.75031467  0.24897398  -0.00025296  1
  V  V30  1  0.37557201  -0.00029533  0.37597469  1
  V  V31  1  0.49959743  0.75011265  0.25010473  1
  V  V32  1  0.62584989  0.12519281  -0.00026270  1
  V  V33  1  0.87413573  0.62321977  0.25087642  1
  V  V34  1  0.87538250  0.37318441  0.00044055  1
  V  V35  1  0.74898094  0.49948859  0.24982432  1
  V  V36  1  0.37479050  0.12579790  0.75049385  1
  V  V37  1  0.25001310  0.75081661  0.50056518  1
  V  V38  1  0.50081204  0.12464444  0.12563437  1
  V  V39  1  0.87506027  0.49907339  0.87507121  1
  V  V40  1  0.24980460  0.00039897  0.25061427  1
  V  V41  1  0.12464560  0.12417763  0.00014725  1
  V  V42  1  0.49985507  0.24943754  0.24935506  1
  V  V43  1  0.62385927  0.75052307  0.37485797  1
  V  V44  1  0.12432775  0.87478817  0.24989796  1
  V  V45  1  0.87466815  0.74923987  0.12561436  1
  V  V46  1  0.62586742  0.37446273  0.74907337  1
  V  V47  1  0.87367635  0.87347048  0.50085290  1
  V  V48  1  0.00071112  0.25026544  0.75039379  1
  V  V49  1  0.50024487  0.49985228  -0.00098085  1
  V  V50  1  0.49947427  0.50075501  0.49962491  1
  V  V51  1  0.37463491  0.50069519  0.87452001  1
  V  V52  1  -0.00023220  0.74922570  0.25052909  1
  V  V53  1  0.62481538  0.49933019  0.62547258  1
  V  V54  1  0.87401547  0.00073541  0.37490926  1
  V  V55  1  0.62515802  0.62336211  0.00043594  1
  V  V56  1  0.25035904  0.50082190  0.74861837  1
  V  V57  1  0.74969375  0.49862550  0.74960611  1
  V  V58  1  0.87319572  0.25242519  0.62228943  1
  V  V59  1  0.62560184  0.12610424  0.49912272  1
  V  V60  1  0.12398299  0.75093634  0.87439406  1
  V  V61  1  0.37552618  0.75109008  0.62491171  1
  V  V62  1  0.62488383  0.87405304  0.25056240  1
  V  V63  1  0.50127162  0.87381967  0.87455819  1
  V  V64  1  0.62491516  0.62509113  0.49988741  1
  V  V65  1  0.12488962  0.62606227  0.49991084  1
  V  V66  1  0.25045042  0.12398329  0.87516171  1
  V  V67  1  0.74972054  0.62356363  0.37463290  1
  V  V68  1  0.12593941  -0.00008987  0.62567924  1
  V  V69  1  0.75019275  0.74860666  0.00067315  1
  V  V70  1  0.24977718  0.25064359  -0.00001884  1
  V  V71  1  0.49913932  0.37508583  0.37402078  1
  V  V72  1  -0.00155690  -0.00139238  0.00019048  1
  V  V73  1  0.87604920  0.62493557  0.75026299  1
  V  V74  1  0.12283978  0.37448357  0.25121142  1
  V  V75  1  0.74995083  0.12573043  0.37496481  1
  V  V76  1  0.62430986  0.49905342  0.12422339  1
  V  V77  1  0.62513934  -0.00137816  0.12568699  1
  V  V78  1  0.12598791  0.37537327  0.74911415  1
  V  V79  1  0.50064129  -0.00054496  0.00020074  1
  V  V80  1  0.37369267  0.37520755  0.49945134  1
  V  V81  1  0.37527792  0.25048955  0.12446186  1
  V  V82  1  0.75065883  0.62402482  0.87550665  1
  V  V83  1  0.12535238  0.62564368  -0.00088331  1
  V  V84  1  0.25015499  0.87603328  0.12496199  1
  V  V85  1  0.25033681  0.87516792  0.62467067  1
  V  V86  1  0.49972937  0.25023294  0.75040852  1
  V  V87  1  0.87327040  0.12143913  0.75202288  1
  V  V88  1  0.37523147  0.87514256  -0.00038331  1
  V  V89  1  0.37578011  0.00054665  0.87434108  1
  V  V90  1  0.37424193  0.50118926  0.37347349  1
  V  V91  1  0.37477169  0.62583509  0.24955264  1
  V  V92  1  0.12541182  0.12610311  0.50040016  1
  V  V93  1  0.00036218  0.37469217  0.87445142  1
  V  V94  1  0.49946824  0.62631517  0.62533100  1
  V  V95  1  0.12493013  0.00024557  0.12518071  1
  Zn  Zn96  1  0.24788331  0.25363436  0.49941707  1
  Zn  Zn97  1  0.25120521  0.00106398  0.74958741  1
  Zn  Zn98  1  0.37532192  0.87515444  0.50115658  1
  Zn  Zn99  1  0.87268218  0.75171572  0.62805165  1
  Zn  Zn100  1  0.87375757  0.49606365  0.37476374  1
  Zn  Zn101  1  0.75024774  0.12171441  0.87508320  1
  Zn  Zn102  1  0.87318893  -0.00257480  0.87582935  1
  Zn  Zn103  1  0.75187641  0.87317573  0.62805657  1
  Zn  Zn104  1  0.12308232  0.25319364  0.37735474  1
  Zn  Zn105  1  0.75006198  0.37538549  0.62292691  1
  Zn  Zn106  1  0.49999317  0.87497189  0.37527727  1
  Zn  Zn107  1  0.37368225  0.62643459  0.74920308  1
  Zn  Zn108  1  0.24894872  0.37636437  0.62150100  1
  Zn  Zn109  1  0.75026258  0.37392111  0.12538272  1
  Zn  Zn110  1  0.49954075  0.62462771  0.12416615  1
  Zn  Zn111  1  0.24991514  0.37629504  0.12391629  1
  Zn  Zn112  1  -0.00258837  0.87645340  0.87416284  1
  Zn  Zn113  1  -0.00221412  0.75015608  0.75059539  1
  Zn  Zn114  1  0.74924048  0.25353983  0.49978092  1
  Zn  Zn115  1  0.50073653  0.12527242  0.62615615  1
  Zn  Zn116  1  0.62868388  0.87514177  0.74985169  1
  Zn  Zn117  1  -0.00312964  0.37151506  0.37620313  1
  Zn  Zn118  1  0.12683282  0.50045958  0.62302040  1
  Zn  Zn119  1  0.12514594  0.24831103  0.87505471  1
  Zn  Zn120  1  0.74935565  -0.00078865  0.25072035  1
  Zn  Zn121  1  0.74997618  -0.00382843  0.75395205  1
  Zn  Zn122  1  0.87164799  0.37623187  0.49718343  1
  Zn  Zn123  1  0.37385156  0.37662258  -0.00001398  1
  Zn  Zn124  1  0.25059551  0.62599554  0.87386345  1
  Zn  Zn125  1  0.37435296  0.12522585  0.25033605  1
  Zn  Zn126  1  0.00024090  0.25065361  0.25307149  1
  Zn  Zn127  1  0.25019325  0.62681535  0.37545964  1
  Zn  Zn128  1  0.18717691  0.18795194  0.18846520  1
  Zn  Zn129  1  0.18894973  0.18823059  0.68782076  1
  Zn  Zn130  1  0.18833210  0.68741589  0.18740893  1
  Zn  Zn131  1  0.18716502  0.68727147  0.68647050  1
  Zn  Zn132  1  0.68938639  0.18742373  0.18794413  1
  Zn  Zn133  1  0.68901029  0.18524749  0.68648665  1
  Zn  Zn134  1  0.68617839  0.68583953  0.18772567  1
  Zn  Zn135  1  0.68807043  0.68706953  0.68764395  1
  Zn  Zn136  1  0.31097244  0.31441858  0.30993352  1
  Zn  Zn137  1  0.31230398  0.31323432  0.81263712  1
  Zn  Zn138  1  0.31242676  0.81352034  0.31314404  1
  Zn  Zn139  1  0.31229930  0.81363951  0.81084446  1
  Zn  Zn140  1  0.81286322  0.31295024  0.31362380  1
  Zn  Zn141  1  0.81182744  0.31033087  0.81171322  1
  Zn  Zn142  1  0.81121554  0.81148038  0.31389227  1
  Zn  Zn143  1  0.81205667  0.81307006  0.81203573  1
  Zn  Zn144  1  0.18713524  0.43994969  0.43570378  1
  Zn  Zn145  1  0.18776421  0.43647836  0.93567618  1
  Zn  Zn146  1  0.18740451  0.93782455  0.43881414  1
  Zn  Zn147  1  0.18771405  0.93840261  0.93705394  1
  Zn  Zn148  1  0.68861927  0.43571038  0.43807087  1
  Zn  Zn149  1  0.68831512  0.43515402  0.93750717  1
  Zn  Zn150  1  0.68851924  0.93716762  0.43800853  1
  Zn  Zn151  1  0.69027744  0.93730465  0.93692840  1
  Zn  Zn152  1  0.31330528  0.06351692  0.06205662  1
  Zn  Zn153  1  0.31186945  0.06386650  0.56295637  1
  Zn  Zn154  1  0.31201480  0.56472611  0.06227700  1
  Zn  Zn155  1  0.31272221  0.56442947  0.56252556  1
  Zn  Zn156  1  0.81141031  0.06144723  0.06349213  1
  Zn  Zn157  1  0.81168340  0.06435925  0.56160402  1
  Zn  Zn158  1  0.81210611  0.56035614  0.06396339  1
  Zn  Zn159  1  0.81329857  0.56294467  0.56314013  1
  Zn  Zn160  1  0.43779767  0.43744386  0.18606607  1
  Zn  Zn161  1  0.43796831  0.43645259  0.68721811  1
  Zn  Zn162  1  0.43813328  0.93684000  0.18925127  1
  Zn  Zn163  1  0.43941743  0.93689782  0.68823499  1
  Zn  Zn164  1  0.93702800  0.43711385  0.18694510  1
  Zn  Zn165  1  0.93856969  0.43859198  0.68564600  1
  Zn  Zn166  1  0.93641034  0.93843607  0.18761887  1
  Zn  Zn167  1  0.93811704  0.93699235  0.68575763  1
  Zn  Zn168  1  0.06135476  0.06276317  0.31253981  1
  Zn  Zn169  1  0.06041166  0.06129237  0.81442000  1
  Zn  Zn170  1  0.06327087  0.56219530  0.31390133  1
  Zn  Zn171  1  0.06330728  0.56242319  0.81263463  1
  Zn  Zn172  1  0.56304801  0.06279855  0.31139554  1
  Zn  Zn173  1  0.56154135  0.06352142  0.81189335  1
  Zn  Zn174  1  0.56167389  0.56354852  0.31129114  1
  Zn  Zn175  1  0.56250121  0.56373139  0.81144617  1
  Zn  Zn176  1  0.43731780  0.18662320  0.43828537  1
  Zn  Zn177  1  0.43845930  0.18710213  0.93778746  1
  Zn  Zn178  1  0.43666951  0.68795630  0.43720674  1
  Zn  Zn179  1  0.43790967  0.68564406  0.93706811  1
  Zn  Zn180  1  0.93940486  0.18879207  0.43596265  1
  Zn  Zn181  1  0.93859774  0.18721815  0.93681679  1
  Zn  Zn182  1  0.93584825  0.68612920  0.43802030  1
  Zn  Zn183  1  0.93801023  0.68801997  0.93717295  1
  Zn  Zn184  1  0.06265192  0.31201808  0.06520075  1
  Zn  Zn185  1  0.06186471  0.31191007  0.56310592  1
  Zn  Zn186  1  0.06199133  0.81280436  0.06277401  1
  Zn  Zn187  1  0.06182687  0.81194265  0.56298851  1
  Zn  Zn188  1  0.56252521  0.31369741  0.06138088  1
  Zn  Zn189  1  0.56051948  0.31331340  0.56229697  1
  Zn  Zn190  1  0.56255726  0.81152811  0.06278002  1
  Zn  Zn191  1  0.56351501  0.81502644  0.56237963  1
  O  O192  1  0.12042815  0.11882645  0.12028390  1
  O  O193  1  0.12057055  0.11988873  0.62130425  1
  O  O194  1  0.11903193  0.62106109  0.11905373  1
  O  O195  1  0.11555507  0.62415419  0.61929239  1
  O  O196  1  0.61948864  0.11943044  0.11992870  1
  O  O197  1  0.62218652  0.11737018  0.61792987  1
  O  O198  1  0.62346215  0.61766514  0.11762173  1
  O  O199  1  0.61892060  0.61893894  0.61909899  1
  O  O200  1  0.38043620  0.38057566  0.37863629  1
  O  O201  1  0.38099581  0.38545090  0.87519993  1
  O  O202  1  0.37486384  0.88926523  0.37770707  1
  O  O203  1  0.38041759  0.88016541  0.88064635  1
  O  O204  1  0.87905442  0.37870142  0.37855084  1
  O  O205  1  0.88083729  0.37986687  0.87969959  1
  O  O206  1  0.88070321  0.88002711  0.37977613  1
  O  O207  1  0.87810267  0.87422374  0.88520805  1
  O  O208  1  0.25652131  0.00735559  0.37175851  1
  O  O209  1  0.25824701  0.00630862  0.87500714  1
  O  O210  1  0.25761172  0.50380670  0.36717705  1
  O  O211  1  0.25827028  0.50034307  0.86702306  1
  O  O212  1  0.75657991  0.00704390  0.37407108  1
  O  O213  1  0.75502070  0.00454472  0.87287905  1
  O  O214  1  0.74842069  0.50728729  0.36761146  1
  O  O215  1  0.75575023  0.50470258  0.87012274  1
  O  O216  1  0.24380572  0.49938700  0.12990324  1
  O  O217  1  0.24977575  0.49768419  0.63634165  1
  O  O218  1  0.24529603  0.99562103  0.12989499  1
  O  O219  1  0.24336761  0.99407391  0.62631118  1
  O  O220  1  0.74245859  0.49746704  0.13137027  1
  O  O221  1  0.74249630  0.50054816  0.63242461  1
  O  O222  1  0.74230417  0.99168730  0.12666488  1
  O  O223  1  0.73794664  0.99992309  0.62387543  1
  O  O224  1  0.01214037  0.37653684  0.24985545  1
  O  O225  1  0.00810410  0.37208757  0.75474219  1
  O  O226  1  0.00467331  0.86902364  0.25505836  1
  O  O227  1  0.01282873  0.87225395  0.75010924  1
  O  O228  1  0.50486026  0.36945048  0.25524574  1
  O  O229  1  0.50602105  0.36987020  0.75610419  1
  O  O230  1  0.50667270  0.86822123  0.25225222  1
  O  O231  1  0.50336965  0.86796788  0.75762944  1
  O  O232  1  0.49831049  0.13177624  0.24327059  1
  O  O233  1  0.49209399  0.13348077  0.74935317  1
  O  O234  1  0.49296478  0.63219925  0.24737505  1
  O  O235  1  0.49863607  0.63166462  0.74272298  1
  O  O236  1  0.99369047  0.12483548  0.24286582  1
  O  O237  1  0.99434389  0.13020374  0.74434637  1
  O  O238  1  0.99523222  0.63006146  0.24423269  1
  O  O239  1  0.99564059  0.62358820  0.74140976  1
  O  O240  1  0.36707356  0.24970520  0.00769428  1
  O  O241  1  0.37534490  0.25552571  0.50846021  1
  O  O242  1  0.37000889  0.75565127  0.00415164  1
  O  O243  1  0.36915462  0.75271789  0.50632253  1
  O  O244  1  0.87069428  0.25400134  0.00485686  1
  O  O245  1  0.87628856  0.24886700  0.51331001  1
  O  O246  1  0.86983104  0.75309924  0.00680075  1
  O  O247  1  0.86791322  0.75587088  0.49960486  1
  O  O248  1  0.12834148  0.24187368  0.49963657  1
  O  O249  1  0.13477473  0.24361844  1.00063693  1
  O  O250  1  0.12975265  0.74620321  0.49478254  1
  O  O251  1  0.12993803  0.74678458  0.99324033  1
  O  O252  1  0.62140945  0.24344836  0.49274506  1
  O  O253  1  0.62950851  0.24498517  0.99490782  1
  O  O254  1  0.62904255  0.74407477  0.49460761  1
  O  O255  1  0.63074041  0.74345506  0.99533368  1
  O  O256  1  0.49306644  0.24494920  0.12846665  1
  O  O257  1  0.48918575  0.24950913  0.63112935  1
  O  O258  1  0.49262353  0.74926091  0.13110668  1
  O  O259  1  0.49593583  0.74608588  0.62915486  1
  O  O260  1  0.99328770  0.24200338  0.12628062  1
  O  O261  1  0.99294084  0.24393743  0.63134898  1
  O  O262  1  0.99499996  0.74426592  0.13084015  1
  O  O263  1  0.99844428  0.73668672  0.62572932  1
  O  O264  1  0.00599438  0.25269483  0.37065218  1
  O  O265  1  0.00247154  0.25726352  0.86851282  1
  O  O266  1  0.00527274  0.75537883  0.36971383  1
  O  O267  1  0.01337436  0.75245475  0.87476434  1
  O  O268  1  0.50332526  0.25490288  0.36882239  1
  O  O269  1  0.50501924  0.25574030  0.87035617  1
  O  O270  1  0.50589741  0.75216261  0.36910568  1
  O  O271  1  0.50471975  0.75427699  0.87057054  1
  O  O272  1  0.24420607  0.12544822  0.49063078  1
  O  O273  1  0.24524686  0.13227348  0.99560153  1
  O  O274  1  0.24282785  0.63276457  0.49961225  1
  O  O275  1  0.24276855  0.63299382  0.99761316  1
  O  O276  1  0.74286930  0.12860584  0.49240351  1
  O  O277  1  0.74284522  0.13147611  1.00013300  1
  O  O278  1  0.74360346  0.62911006  0.49439280  1
  O  O279  1  0.74589412  0.62893740  0.99470561  1
  O  O280  1  0.25102973  0.36285014  0.00117839  1
  O  O281  1  0.25748340  0.37414120  0.50127944  1
  O  O282  1  0.25560764  0.87066132  0.00574700  1
  O  O283  1  0.24999154  0.86892632  0.50753165  1
  O  O284  1  0.75779926  0.36767429  0.00082220  1
  O  O285  1  0.75258910  0.37124035  0.50554943  1
  O  O286  1  0.75536023  0.86702495  0.00724195  1
  O  O287  1  0.75676587  0.86753106  0.50009385  1
  O  O288  1  0.13002508  0.49538351  0.24392994  1
  O  O289  1  0.13379811  0.49200700  0.75105543  1
  O  O290  1  0.12972487  0.99366168  0.24475874  1
  O  O291  1  0.12581046  0.99102954  0.74485071  1
  O  O292  1  0.62846059  0.49504113  0.24429202  1
  O  O293  1  0.62985815  0.49473549  0.74554817  1
  O  O294  1  0.62524945  0.99268577  0.24307153  1
  O  O295  1  0.62363425  1.00108827  0.73784003  1
  O  O296  1  0.36926520  0.00167374  0.25905937  1
  O  O297  1  0.37513870  0.00688961  0.75669975  1
  O  O298  1  0.37079449  0.50510373  0.25363796  1
  O  O299  1  0.36724232  0.49912790  0.75778966  1
  O  O300  1  0.87348352  0.00611652  0.25721059  1
  O  O301  1  0.87707682  0.01164928  0.74890508  1
  O  O302  1  0.86776757  0.50693772  0.24898765  1
  O  O303  1  0.87010698  0.50432426  0.75631147  1
  O  O304  1  0.12382646  0.37567736  0.36275964  1
  O  O305  1  0.11928028  0.37347062  0.86462684  1
  O  O306  1  0.11877097  0.87117347  0.36927592  1
  O  O307  1  0.12544359  0.86777508  0.86718876  1
  O  O308  1  0.61753443  0.36959353  0.36916756  1
  O  O309  1  0.61973125  0.36888450  0.86879554  1
  O  O310  1  0.62432261  0.86820619  0.36866478  1
  O  O311  1  0.61813944  0.86705420  0.87668238  1
  O  O312  1  0.38141363  0.13436203  0.12576374  1
  O  O313  1  0.37622091  0.13466441  0.63052842  1
  O  O314  1  0.37627799  0.63326547  0.13088019  1
  O  O315  1  0.38238239  0.63260029  0.62625910  1
  O  O316  1  0.88006186  0.12909673  0.13035725  1
  O  O317  1  0.88113142  0.13179205  0.63208612  1
  O  O318  1  0.88042345  0.63014327  0.13010033  1
  O  O319  1  0.88407385  0.62559789  0.63198869  1
  O  O320  1  0.25886599  0.24790376  0.11594302  1
  O  O321  1  0.26319095  0.25298920  0.62452965  1
  O  O322  1  0.25487017  0.75719386  0.11953040  1
  O  O323  1  0.25513209  0.75538928  0.62022022  1
  O  O324  1  0.75682599  0.25130545  0.11771413  1
  O  O325  1  0.76132877  0.25097211  0.62427713  1
  O  O326  1  0.75521806  0.75339171  0.12006338  1
  O  O327  1  0.75135858  0.74969595  0.61536902  1
  O  O328  1  0.25011590  0.23700766  0.37476013  1
  O  O329  1  0.25053963  0.24390263  0.88530870  1
  O  O330  1  0.24314873  0.75109210  0.38173856  1
  O  O331  1  0.24022675  0.75012565  0.88027517  1
  O  O332  1  0.74124247  0.24326290  0.37599103  1
  O  O333  1  0.74296355  0.24704680  0.88140601  1
  O  O334  1  0.74312884  0.74293111  0.38036154  1
  O  O335  1  0.74467820  0.74276294  0.88193993  1
  O  O336  1  0.00534733  0.11928754  0.00637715  1
  O  O337  1  0.00566124  0.11819545  0.50570485  1
  O  O338  1  0.00519846  0.61942941  0.00545398  1
  O  O339  1  0.00424980  0.61908784  0.50739366  1
  O  O340  1  0.50580401  0.11901480  0.00575143  1
  O  O341  1  0.50577196  0.11422176  0.50013582  1
  O  O342  1  0.50748169  0.61767086  0.00035652  1
  O  O343  1  0.50552566  0.61987756  0.50513541  1
  O  O344  1  0.49410372  0.38181399  0.49297341  1
  O  O345  1  0.49818431  0.38163368  0.99179864  1
  O  O346  1  0.49828024  0.88861129  0.49661043  1
  O  O347  1  0.49418713  0.87976992  0.99504313  1
  O  O348  1  1.00050148  0.38835688  0.50210392  1
  O  O349  1  0.99601878  0.38017497  0.99447656  1
  O  O350  1  0.99542271  0.87998621  0.49411533  1
  O  O351  1  0.99373624  0.88105555  1.00204327  1
  O  O352  1  0.49452080  0.49474844  0.37966308  1
  O  O353  1  0.49276392  0.49543570  0.87796741  1
  O  O354  1  0.49142782  1.00143400  0.38235108  1
  O  O355  1  0.49531111  0.99431599  0.88143742  1
  O  O356  1  0.99817315  0.50142684  0.38716886  1
  O  O357  1  0.99464123  0.49489504  0.88054505  1
  O  O358  1  0.99464789  0.99406953  0.38065374  1
  O  O359  1  0.99649418  0.99681215  0.88521489  1
  O  O360  1  0.00637759  0.00505468  0.12054791  1
  O  O361  1  0.00676279  0.00552073  0.61877547  1
  O  O362  1  0.00547051  0.50644417  0.11832593  1
  O  O363  1  0.00184088  0.51107011  0.61751695  1
  O  O364  1  0.50459325  0.00424201  0.11951465  1
  O  O365  1  0.50710037  0.00202020  0.61555578  1
  O  O366  1  0.50577557  0.50098586  0.11693954  1
  O  O367  1  0.50454502  0.50573450  0.61951334  1
  O  O368  1  0.24102573  0.38269364  0.24671186  1
  O  O369  1  0.24196511  0.38344632  0.75075992  1
  O  O370  1  0.24384442  0.88060766  0.24445226  1
  O  O371  1  0.23906344  0.87696015  0.74415146  1
  O  O372  1  0.74170205  0.38142667  0.24869799  1
  O  O373  1  0.74326807  0.38134981  0.74886327  1
  O  O374  1  0.74332836  0.87451449  0.24352043  1
  O  O375  1  0.74650487  0.87825551  0.74580906  1
  O  O376  1  0.24994867  0.11815922  0.25938905  1
  O  O377  1  0.25660774  0.12417241  0.75748071  1
  O  O378  1  0.25656265  0.61977167  0.25118500  1
  O  O379  1  0.25059934  0.61330552  0.75207862  1
  O  O380  1  0.75643920  0.12225887  0.25679120  1
  O  O381  1  0.76236518  0.12258384  0.75095761  1
  O  O382  1  0.75438619  0.61974034  0.25499366  1
  O  O383  1  0.75531078  0.61833828  0.75679334  1
  O  O384  1  0.36595217  0.11535166  0.37484663  1
  O  O385  1  0.37083792  0.11990021  0.87076908  1
  O  O386  1  0.37369382  0.61884458  0.36780983  1
  O  O387  1  0.37360783  0.61265201  0.87167247  1
  O  O388  1  0.87012927  0.11979496  0.37042274  1
  O  O389  1  0.87599971  0.12506972  0.86235947  1
  O  O390  1  0.86746376  0.62355505  0.36740344  1
  O  O391  1  0.87051037  0.61831977  0.87132449  1
  O  O392  1  0.12638909  0.38275907  0.13267490  1
  O  O393  1  0.12603778  0.37724045  0.63857191  1
  O  O394  1  0.13068468  0.88012213  0.13054229  1
  O  O395  1  0.12925635  0.87891199  0.63264493  1
  O  O396  1  0.62545436  0.38079443  0.13174213  1
  O  O397  1  0.62317795  0.38193816  0.63225029  1
  O  O398  1  0.63008732  0.87870701  0.12999944  1
  O  O399  1  0.62670475  0.88743035  0.62538832  1
  O  O400  1  0.12523215  0.26260720  0.24936285  1
  O  O401  1  0.12039062  0.25909585  0.75123164  1
  O  O402  1  0.11935234  0.75569638  0.25443515  1
  O  O403  1  0.12526393  0.75789985  0.75816387  1
  O  O404  1  0.61876977  0.25499548  0.25495735  1
  O  O405  1  0.61952122  0.25388681  0.75443078  1
  O  O406  1  0.61941866  0.75401997  0.25505712  1
  O  O407  1  0.61856308  0.74915145  0.75774972  1
  O  O408  1  0.38013848  0.24847374  0.24015912  1
  O  O409  1  0.37965436  0.24705165  0.74318626  1
  O  O410  1  0.37908542  0.74679564  0.24490519  1
  O  O411  1  0.38148134  0.74884085  0.74370885  1
  O  O412  1  0.87573264  0.24282546  0.24257834  1
  O  O413  1  0.88080768  0.24228334  0.74243032  1
  O  O414  1  0.88048949  0.74400293  0.24499305  1
  O  O415  1  0.87854488  0.74053412  0.74968462  1
  O  O416  1  0.38062428  0.49601605  0.49415026  1
  O  O417  1  0.37919523  0.49946702  0.99037416  1
  O  O418  1  0.38326724  1.00113754  0.49309422  1
  O  O419  1  0.38105271  0.99477858  0.99525543  1
  O  O420  1  0.88603488  0.50038871  0.49935849  1
  O  O421  1  0.88088252  0.49421852  0.99493162  1
  O  O422  1  0.88112823  0.99515607  0.49451584  1
  O  O423  1  0.88159645  0.99230342  1.00321058  1
  O  O424  1  0.12038402  0.00453470  0.00672100  1
  O  O425  1  0.11887865  0.00496917  0.50604617  1
  O  O426  1  0.12007514  0.50519530  0.00336798  1
  O  O427  1  0.11710287  0.50751004  0.50174557  1
  O  O428  1  0.61897156  0.00433690  0.00625145  1
  O  O429  1  0.61751431  0.00551256  0.50511775  1
  O  O430  1  0.62051864  0.50397511  0.00343738  1
  O  O431  1  0.61823668  0.50559046  0.50480089  1
  O  O432  1  0.37342075  0.36210527  0.12230559  1
  O  O433  1  0.37563597  0.36624360  0.61880158  1
  O  O434  1  0.36926708  0.87094565  0.11936863  1
  O  O435  1  0.36837709  0.86942942  0.62443231  1
  O  O436  1  0.87464665  0.36791570  0.11747655  1
  O  O437  1  0.87548605  0.36289178  0.62583738  1
  O  O438  1  0.86955882  0.86762813  0.12158829  1
  O  O439  1  0.87475402  0.87216195  0.61572056  1
  O  O440  1  0.13466984  0.12225850  0.38098006  1
  O  O441  1  0.13139984  0.12576735  0.88220504  1
  O  O442  1  0.12614030  0.63386268  0.38136432  1
  O  O443  1  0.12572632  0.63464086  0.88056861  1
  O  O444  1  0.62963449  0.12996956  0.37903064  1
  O  O445  1  0.62392188  0.13180154  0.88247505  1
  O  O446  1  0.62939785  0.63049655  0.38047908  1
  O  O447  1  0.63140745  0.62918227  0.88088779  1
