# generated using pymatgen
data_V3Zn3O8
_symmetry_space_group_name_H-M   'P 1'
_cell_length_a   17.08476722
_cell_length_b   17.08694931
_cell_length_c   17.08512839
_cell_angle_alpha   89.99791280
_cell_angle_beta   90.00656748
_cell_angle_gamma   89.99561155
_symmetry_Int_Tables_number   1
_chemical_formula_structural   V3Zn3O8
_chemical_formula_sum   'V96 Zn96 O256'
_cell_volume   4987.60255927
_cell_formula_units_Z   32
loop_
 _symmetry_equiv_pos_site_id
 _symmetry_equiv_pos_as_xyz
  1  'x, y, z'
loop_
 _atom_site_type_symbol
 _atom_site_label
 _atom_site_symmetry_multiplicity
 _atom_site_fract_x
 _atom_site_fract_y
 _atom_site_fract_z
 _atom_site_occupancy
  V  V0  1  0.12464568  0.87477873  0.74996935  1
  V  V1  1  0.12511535  0.62395413  0.50046606  1
  V  V2  1  0.50065754  0.24983912  0.75069183  1
  V  V3  1  0.24895260  0.87383753  0.62435247  1
  V  V4  1  0.25042949  0.49960699  0.25028323  1
  V  V5  1  0.25100356  0.24921336  0.50028738  1
  V  V6  1  0.87470725  0.00028615  0.87574043  1
  V  V7  1  0.37450182  0.75015731  0.62494560  1
  V  V8  1  0.87500280  0.37463736  -0.00122440  1
  V  V9  1  0.37603675  0.49952143  0.37591959  1
  V  V10  1  0.00075734  0.62429777  0.62415115  1
  V  V11  1  -0.00136090  0.87493420  0.37441740  1
  V  V12  1  0.62572974  0.50074364  0.62481714  1
  V  V13  1  0.12569421  0.49872132  0.12580517  1
  V  V14  1  0.87584548  0.37468810  0.50068116  1
  V  V15  1  0.50043457  0.25083383  0.24948603  1
  V  V16  1  0.25022520  0.75054236  0.00146785  1
  V  V17  1  0.25059272  0.37480706  0.62668627  1
  V  V18  1  0.87501536  0.87514492  0.49908645  1
  V  V19  1  0.37584081  0.37555751  0.00045882  1
  V  V20  1  0.25032961  0.00023817  0.75032563  1
  V  V21  1  0.37431439  0.74969422  0.12629235  1
  V  V22  1  0.87464924  0.62458899  0.24832843  1
  V  V23  1  0.00045210  0.87468747  0.87423712  1
  V  V24  1  0.87436179  0.12568078  0.74974373  1
  V  V25  1  0.00034473  0.37501470  0.87502359  1
  V  V26  1  0.25019016  0.12512728  0.37445950  1
  V  V27  1  0.62365606  0.24957499  0.87391885  1
  V  V28  1  0.00076471  0.00124954  0.00038172  1
  V  V29  1  -0.00013787  0.62471941  0.12460043  1
  V  V30  1  0.75161016  0.37431895  0.12397914  1
  V  V31  1  0.50044429  0.50025542  0.50085520  1
  V  V32  1  0.12651045  0.37521883  0.75003951  1
  V  V33  1  0.74884747  -0.00019990  0.25033107  1
  V  V34  1  0.62401596  0.12386110  0.00037672  1
  V  V35  1  0.87597606  0.62462209  0.74899280  1
  V  V36  1  0.50086316  0.62513422  0.62476583  1
  V  V37  1  0.37495850  0.62505163  0.75138226  1
  V  V38  1  0.12402381  0.00027809  0.12482849  1
  V  V39  1  0.12498067  0.12514119  -0.00031370  1
  V  V40  1  0.87402562  -0.00081041  0.37564703  1
  V  V41  1  0.37567113  0.87636358  -0.00035362  1
  V  V42  1  0.00125842  0.49893383  0.50008763  1
  V  V43  1  0.24924499  0.74959131  0.50037498  1
  V  V44  1  0.37613790  0.62529728  0.25064804  1
  V  V45  1  0.75042166  0.49958915  0.74876165  1
  V  V46  1  0.74956922  0.74882855  0.49844937  1
  V  V47  1  0.62566861  0.62582809  -0.00049204  1
  V  V48  1  0.75041389  0.24965831  0.00017670  1
  V  V49  1  -0.00019741  0.24949884  0.24961985  1
  V  V50  1  0.87511694  0.49958537  0.87387157  1
  V  V51  1  0.37598849  0.37519221  0.50040506  1
  V  V52  1  0.62454063  -0.00102099  0.62533710  1
  V  V53  1  0.62537756  0.75092949  0.87511386  1
  V  V54  1  0.00001849  0.75052562  0.24992895  1
  V  V55  1  0.87396114  0.75042120  0.12348456  1
  V  V56  1  0.49864492  0.00018027  0.49907663  1
  V  V57  1  0.87501121  0.12514562  0.25048795  1
  V  V58  1  0.12435651  0.74986551  0.87525131  1
  V  V59  1  0.49938755  0.75061536  0.25056718  1
  V  V60  1  0.50057620  0.12442901  0.62432822  1
  V  V61  1  0.74997485  0.75043524  -0.00051936  1
  V  V62  1  0.74951752  0.62504344  0.37460240  1
  V  V63  1  0.62580928  0.37494508  0.24956766  1
  V  V64  1  0.74986150  0.12413244  0.87511847  1
  V  V65  1  0.87460765  0.87496931  0.00008862  1
  V  V66  1  0.12504996  0.25009400  0.37543750  1
  V  V67  1  0.75028247  0.37514890  0.62468961  1
  V  V68  1  0.00066898  0.37481054  0.37630599  1
  V  V69  1  0.62550179  0.50073303  0.12347350  1
  V  V70  1  0.37569659  0.50185214  0.87588338  1
  V  V71  1  0.12444905  0.87525573  0.25013072  1
  V  V72  1  0.12499858  0.25035531  0.87618629  1
  V  V73  1  0.74976134  0.25075367  0.50045886  1
  V  V74  1  0.12447795  0.12398288  0.50135197  1
  V  V75  1  0.74994365  0.87447975  0.62436530  1
  V  V76  1  0.37630089  0.24961502  0.62543884  1
  V  V77  1  0.37440907  0.12630044  0.24928276  1
  V  V78  1  -0.00024613  0.12443316  0.62475265  1
  V  V79  1  0.25082358  0.25034070  0.00096685  1
  V  V80  1  0.24960743  0.62542437  0.37644654  1
  V  V81  1  0.74919086  0.12581456  0.37626590  1
  V  V82  1  0.50058834  0.75092181  0.75033601  1
  V  V83  1  0.50100076  0.50128049  -0.00021479  1
  V  V84  1  0.25054515  0.62495947  0.87528459  1
  V  V85  1  0.62384108  0.00079639  0.12526826  1
  V  V86  1  0.62587157  0.25108887  0.37452987  1
  V  V87  1  0.12477696  0.62499014  0.00020323  1
  V  V88  1  0.37412458  0.12366711  0.75057583  1
  V  V89  1  0.75106128  0.49987331  0.24915975  1
  V  V90  1  0.62485347  0.87427633  0.74968875  1
  V  V91  1  0.49953359  0.12568489  0.12483042  1
  V  V92  1  0.87596149  0.74938379  0.62464840  1
  V  V93  1  0.62376520  0.87574957  0.24951109  1
  V  V94  1  0.49807444  0.87530221  0.37531574  1
  V  V95  1  0.24887330  0.00071754  0.25032366  1
  Zn  Zn96  1  0.37210374  0.87522387  0.49919184  1
  Zn  Zn97  1  -0.00042393  0.49984606  -0.00033054  1
  Zn  Zn98  1  0.50097727  0.62563953  0.12633569  1
  Zn  Zn99  1  0.62379947  0.74949088  0.37518493  1
  Zn  Zn100  1  0.25088201  0.12373711  0.87496492  1
  Zn  Zn101  1  0.87676122  0.49922536  0.37381622  1
  Zn  Zn102  1  0.74842504  -0.00108437  0.75005829  1
  Zn  Zn103  1  0.00044061  -0.00112957  0.50000923  1
  Zn  Zn104  1  -0.00187575  0.12589831  0.12441637  1
  Zn  Zn105  1  0.50013387  0.87741310  0.87525597  1
  Zn  Zn106  1  0.50201031  0.37592995  0.87311993  1
  Zn  Zn107  1  0.37673171  0.00069992  0.87641517  1
  Zn  Zn108  1  0.50106845  0.37561731  0.37471828  1
  Zn  Zn109  1  0.49885505  0.00031256  -0.00195666  1
  Zn  Zn110  1  0.75116183  0.62492471  0.87345714  1
  Zn  Zn111  1  0.00022326  0.74975317  0.74937626  1
  Zn  Zn112  1  0.25116648  0.50065054  0.75007058  1
  Zn  Zn113  1  0.62407115  0.37558638  0.75103877  1
  Zn  Zn114  1  0.12460388  0.75014525  0.37455615  1
  Zn  Zn115  1  0.25043769  0.37479768  0.12747372  1
  Zn  Zn116  1  0.74859014  0.87561519  0.12517134  1
  Zn  Zn117  1  0.12749334  0.50007839  0.62600993  1
  Zn  Zn118  1  0.87576885  0.24895507  0.12428364  1
  Zn  Zn119  1  0.62515997  0.12680667  0.50032117  1
  Zn  Zn120  1  0.37534153  0.25133802  0.12494754  1
  Zn  Zn121  1  0.24915283  0.87525455  0.12640947  1
  Zn  Zn122  1  0.62450694  0.62626192  0.49915791  1
  Zn  Zn123  1  -0.00025473  0.24989455  0.75011644  1
  Zn  Zn124  1  0.12398862  -0.00161399  0.62359795  1
  Zn  Zn125  1  0.87391132  0.25017572  0.62565921  1
  Zn  Zn126  1  0.37335699  0.00090010  0.37458144  1
  Zn  Zn127  1  0.12692339  0.37408280  0.25060073  1
  Zn  Zn128  1  0.18605435  0.18620679  0.18539287  1
  Zn  Zn129  1  0.18700623  0.18773912  0.68726042  1
  Zn  Zn130  1  0.18801643  0.68718669  0.18823219  1
  Zn  Zn131  1  0.18690686  0.68754476  0.68833152  1
  Zn  Zn132  1  0.68776738  0.18763936  0.18719460  1
  Zn  Zn133  1  0.68655335  0.18735695  0.68692690  1
  Zn  Zn134  1  0.68625146  0.68892986  0.18673596  1
  Zn  Zn135  1  0.68839860  0.68689284  0.68717154  1
  Zn  Zn136  1  0.31365925  0.31341846  0.31255850  1
  Zn  Zn137  1  0.31345894  0.31229764  0.81455072  1
  Zn  Zn138  1  0.31145798  0.81301598  0.31306835  1
  Zn  Zn139  1  0.31201976  0.81246046  0.81367032  1
  Zn  Zn140  1  0.81402544  0.31305614  0.31414025  1
  Zn  Zn141  1  0.81101842  0.31244830  0.81211403  1
  Zn  Zn142  1  0.81194227  0.81209543  0.31113513  1
  Zn  Zn143  1  0.81200487  0.81145899  0.81148557  1
  Zn  Zn144  1  0.18737035  0.43715240  0.43807159  1
  Zn  Zn145  1  0.18883876  0.43828373  0.93785498  1
  Zn  Zn146  1  0.18480804  0.93801897  0.43694991  1
  Zn  Zn147  1  0.18887488  0.93683799  0.93708311  1
  Zn  Zn148  1  0.68752308  0.43840614  0.43769345  1
  Zn  Zn149  1  0.68808748  0.43687862  0.93518891  1
  Zn  Zn150  1  0.68552749  0.93710881  0.43754861  1
  Zn  Zn151  1  0.68732455  0.93741747  0.93776096  1
  Zn  Zn152  1  0.31147848  0.06270277  0.06527430  1
  Zn  Zn153  1  0.31270200  0.06172010  0.56394246  1
  Zn  Zn154  1  0.31276332  0.56376276  0.06367955  1
  Zn  Zn155  1  0.31251732  0.56164017  0.56432436  1
  Zn  Zn156  1  0.81222649  0.06286089  0.06483223  1
  Zn  Zn157  1  0.81150470  0.06158213  0.56205604  1
  Zn  Zn158  1  0.81169825  0.56231171  0.05980032  1
  Zn  Zn159  1  0.81464691  0.56093193  0.56098112  1
  Zn  Zn160  1  0.43922082  0.43826767  0.18653632  1
  Zn  Zn161  1  0.43863471  0.43757921  0.68877419  1
  Zn  Zn162  1  0.43575869  0.93930805  0.18605584  1
  Zn  Zn163  1  0.43650111  0.93581171  0.68667046  1
  Zn  Zn164  1  0.93784552  0.43618852  0.18718331  1
  Zn  Zn165  1  0.93888375  0.43803561  0.68668679  1
  Zn  Zn166  1  0.93709122  0.93778489  0.18687232  1
  Zn  Zn167  1  0.93699019  0.93863123  0.68773835  1
  Zn  Zn168  1  0.06207966  0.06204376  0.31391604  1
  Zn  Zn169  1  0.06358953  0.06239156  0.81300778  1
  Zn  Zn170  1  0.06295688  0.56266109  0.31292270  1
  Zn  Zn171  1  0.06159415  0.56108991  0.81195072  1
  Zn  Zn172  1  0.56277652  0.06420465  0.31234192  1
  Zn  Zn173  1  0.56037125  0.06013097  0.81349144  1
  Zn  Zn174  1  0.56302803  0.56163052  0.31241262  1
  Zn  Zn175  1  0.56363673  0.56351203  0.81306175  1
  Zn  Zn176  1  0.43816174  0.18807301  0.43518824  1
  Zn  Zn177  1  0.43731812  0.18602242  0.93543710  1
  Zn  Zn178  1  0.43597562  0.68744846  0.43880579  1
  Zn  Zn179  1  0.43964067  0.68930343  0.93850083  1
  Zn  Zn180  1  0.93600560  0.18748751  0.43832875  1
  Zn  Zn181  1  0.93860708  0.18862453  0.93680668  1
  Zn  Zn182  1  0.93727827  0.68726193  0.43667580  1
  Zn  Zn183  1  0.93791370  0.68667469  0.93635552  1
  Zn  Zn184  1  0.06165660  0.31383881  0.06287497  1
  Zn  Zn185  1  0.06241266  0.31041302  0.56419347  1
  Zn  Zn186  1  0.06189123  0.81361082  0.06300416  1
  Zn  Zn187  1  0.06268635  0.81110147  0.56156426  1
  Zn  Zn188  1  0.56278643  0.31224608  0.06198511  1
  Zn  Zn189  1  0.56390848  0.31421376  0.56306029  1
  Zn  Zn190  1  0.56102268  0.81258306  0.06380035  1
  Zn  Zn191  1  0.56372225  0.81163977  0.56123138  1
  O  O192  1  0.12139609  0.11812847  0.11731311  1
  O  O193  1  0.11554414  0.12485216  0.62031669  1
  O  O194  1  0.11986466  0.61777713  0.12032215  1
  O  O195  1  0.11916435  0.62338494  0.61907067  1
  O  O196  1  0.61973381  0.12025814  0.12010388  1
  O  O197  1  0.61787423  0.11750979  0.62288046  1
  O  O198  1  0.62451548  0.61801983  0.11827934  1
  O  O199  1  0.61846410  0.61895254  0.62326198  1
  O  O200  1  0.37655557  0.38193970  0.38289425  1
  O  O201  1  0.37603420  0.38159433  0.88638225  1
  O  O202  1  0.38691094  0.87858816  0.37624707  1
  O  O203  1  0.37558117  0.87426572  0.88782133  1
  O  O204  1  0.88261302  0.37679436  0.38248825  1
  O  O205  1  0.88047324  0.37936100  0.87862506  1
  O  O206  1  0.87877180  0.87979915  0.37945008  1
  O  O207  1  0.88029082  0.88046279  0.87974121  1
  O  O208  1  0.25052289  0.00783857  0.36888041  1
  O  O209  1  0.25194681  0.00028034  0.86119145  1
  O  O210  1  0.25625384  0.50543169  0.37072729  1
  O  O211  1  0.25772827  0.50797070  0.87514832  1
  O  O212  1  0.75379555  0.00532672  0.37005087  1
  O  O213  1  0.75708259  0.00701505  0.87380899  1
  O  O214  1  0.75207178  0.50911394  0.36794567  1
  O  O215  1  0.75737693  0.50083335  0.86683104  1
  O  O216  1  0.24014110  0.50169706  0.13105888  1
  O  O217  1  0.24852452  0.49057435  0.62908086  1
  O  O218  1  0.24105612  0.99904407  0.13287700  1
  O  O219  1  0.24878554  0.99339913  0.63454570  1
  O  O220  1  0.74494788  0.49429041  0.12954845  1
  O  O221  1  0.74556643  0.49505944  0.62877805  1
  O  O222  1  0.74246352  0.99925215  0.13310726  1
  O  O223  1  0.74258534  0.99218167  0.62483223  1
  O  O224  1  0.00109927  0.36493615  0.25672414  1
  O  O225  1  0.00983722  0.37251054  0.75462360  1
  O  O226  1  0.00390290  0.86962404  0.25498057  1
  O  O227  1  0.00616597  0.87487905  0.75658778  1
  O  O228  1  0.50790775  0.36941003  0.25041191  1
  O  O229  1  0.50153820  0.36540372  0.75213184  1
  O  O230  1  0.50317234  0.87179283  0.25821614  1
  O  O231  1  0.50658985  0.86731488  0.74917079  1
  O  O232  1  0.49479179  0.13117409  0.24494938  1
  O  O233  1  0.49383625  0.12952361  0.74296401  1
  O  O234  1  0.49344491  0.63200368  0.25113575  1
  O  O235  1  0.49442618  0.63137052  0.74437906  1
  O  O236  1  0.99424221  0.13507384  0.25210797  1
  O  O237  1  0.99186397  0.12548202  0.74333946  1
  O  O238  1  0.99425967  0.63028092  0.24468860  1
  O  O239  1  0.99417301  0.62576003  0.74246312  1
  O  O240  1  0.36747003  0.25844809  -0.00039836  1
  O  O241  1  0.37053991  0.25462202  0.50555673  1
  O  O242  1  0.36984586  0.75629719  0.00626152  1
  O  O243  1  0.36740266  0.75091984  0.50776658  1
  O  O244  1  0.86810097  0.25597758  0.00021363  1
  O  O245  1  0.86731553  0.25678909  0.50124794  1
  O  O246  1  0.87039119  0.75513807  0.00416739  1
  O  O247  1  0.86911535  0.75554522  0.50486895  1
  O  O248  1  0.13171922  0.24408710  0.49526705  1
  O  O249  1  0.13239333  0.24680881  0.99624856  1
  O  O250  1  0.13200246  0.74200401  0.49780205  1
  O  O251  1  0.13008313  0.74498500  0.99541195  1
  O  O252  1  0.63156765  0.25009859  0.49280040  1
  O  O253  1  0.63068342  0.24347767  0.99442318  1
  O  O254  1  0.63359176  0.74674988  0.49606153  1
  O  O255  1  0.62988306  0.74613368  0.99572473  1
  O  O256  1  0.50010510  0.24350579  0.13190122  1
  O  O257  1  0.49513660  0.24396218  0.62931793  1
  O  O258  1  0.49247704  0.74825130  0.13367132  1
  O  O259  1  0.49486540  0.74486211  0.62987101  1
  O  O260  1  0.99928438  0.24934232  0.13759516  1
  O  O261  1  0.99659892  0.23675191  0.62811838  1
  O  O262  1  0.99395167  0.74416210  0.12980944  1
  O  O263  1  0.99277299  0.74261002  0.62533773  1
  O  O264  1  0.00544893  0.25418754  0.36849698  1
  O  O265  1  0.00786671  0.25721768  0.87327928  1
  O  O266  1  -0.00031651  0.75646656  0.36705652  1
  O  O267  1  0.00676717  0.75716509  0.87405261  1
  O  O268  1  0.50754050  0.25214589  0.36762286  1
  O  O269  1  0.50650101  0.24989676  0.86795691  1
  O  O270  1  0.49956291  0.75974248  0.37073244  1
  O  O271  1  0.50750332  0.75210473  0.86750581  1
  O  O272  1  0.24570280  0.13045266  0.49578458  1
  O  O273  1  0.24493870  0.13477605  0.99898179  1
  O  O274  1  0.24531525  0.62922108  0.49579653  1
  O  O275  1  0.24477848  0.63123524  0.99486712  1
  O  O276  1  0.74842427  0.13166787  0.49366535  1
  O  O277  1  0.74483818  0.13015403  0.99480816  1
  O  O278  1  0.75180369  0.62944579  0.48938731  1
  O  O279  1  0.74370013  0.63253779  0.99740257  1
  O  O280  1  0.25865970  0.36755959  0.00122264  1
  O  O281  1  0.25586044  0.36818988  0.50590876  1
  O  O282  1  0.25786080  0.86814196  0.00213155  1
  O  O283  1  0.24985250  0.86894402  0.50553440  1
  O  O284  1  0.75521999  0.36902323  0.00436912  1
  O  O285  1  0.75618097  0.37103282  0.50492115  1
  O  O286  1  0.75747532  0.86870230  0.00179341  1
  O  O287  1  0.75486197  0.86886442  0.50382335  1
  O  O288  1  0.13100427  0.50066272  0.24083034  1
  O  O289  1  0.12809351  0.48626236  0.75014160  1
  O  O290  1  0.12904198  0.99570120  0.24488016  1
  O  O291  1  0.13441304  0.99417789  0.74842320  1
  O  O292  1  0.63119461  0.49479113  0.24350872  1
  O  O293  1  0.63178162  0.49968350  0.74314203  1
  O  O294  1  0.62946689  0.99576750  0.24531426  1
  O  O295  1  0.62550926  0.99277346  0.74253457  1
  O  O296  1  0.36714044  0.00808621  0.25084081  1
  O  O297  1  0.36522809  0.00464907  0.74820361  1
  O  O298  1  0.37082426  0.50519204  0.25541478  1
  O  O299  1  0.37501615  0.50725289  0.75779961  1
  O  O300  1  0.86878938  0.00470702  0.25584811  1
  O  O301  1  0.87339382  0.01045390  0.75669526  1
  O  O302  1  0.86871637  0.50667709  0.24999741  1
  O  O303  1  0.87013465  0.50496186  0.75416910  1
  O  O304  1  0.11905602  0.36709974  0.37453735  1
  O  O305  1  0.12126345  0.37069647  0.86881309  1
  O  O306  1  0.11654781  0.87336620  0.36766204  1
  O  O307  1  0.11994401  0.86953838  0.87036906  1
  O  O308  1  0.62527291  0.36937654  0.36691801  1
  O  O309  1  0.62295900  0.36537395  0.87271848  1
  O  O310  1  0.61283974  0.87481503  0.36896747  1
  O  O311  1  0.62457848  0.86835035  0.86784988  1
  O  O312  1  0.38135918  0.12815641  0.13148050  1
  O  O313  1  0.38094637  0.13086138  0.63022257  1
  O  O314  1  0.37682010  0.63122510  0.13300862  1
  O  O315  1  0.38040383  0.63043459  0.63175530  1
  O  O316  1  0.87776018  0.12806015  0.13427019  1
  O  O317  1  0.88133701  0.12474124  0.63359842  1
  O  O318  1  0.87994224  0.63002843  0.12890123  1
  O  O319  1  0.88094030  0.62991134  0.62880376  1
  O  O320  1  0.25027965  0.25301589  0.11217680  1
  O  O321  1  0.25687138  0.25424980  0.61939869  1
  O  O322  1  0.25611810  0.75105667  0.11919050  1
  O  O323  1  0.25519811  0.75434293  0.62014118  1
  O  O324  1  0.75080884  0.25685303  0.11820819  1
  O  O325  1  0.75026376  0.25654584  0.61832622  1
  O  O326  1  0.75673921  0.75216794  0.11837685  1
  O  O327  1  0.75618249  0.75461275  0.61817807  1
  O  O328  1  0.24494650  0.24484308  0.38099435  1
  O  O329  1  0.24427393  0.24992522  0.88684384  1
  O  O330  1  0.24928547  0.74286202  0.38188197  1
  O  O331  1  0.24380065  0.74407430  0.88147235  1
  O  O332  1  0.74515579  0.24530148  0.38016943  1
  O  O333  1  0.74429155  0.24327594  0.88058246  1
  O  O334  1  0.74969732  0.74037326  0.37887526  1
  O  O335  1  0.74378841  0.74842190  0.88149234  1
  O  O336  1  0.00646973  0.11883097  0.00031160  1
  O  O337  1  0.00449164  0.12458104  0.50879191  1
  O  O338  1  0.00681422  0.62344566  0.00700202  1
  O  O339  1  0.00484927  0.61944658  0.50395370  1
  O  O340  1  0.50621844  0.12506476  0.00711814  1
  O  O341  1  0.50059969  0.11605909  0.50466115  1
  O  O342  1  0.50744482  0.61914881  0.00256869  1
  O  O343  1  0.50042873  0.61869473  0.50696727  1
  O  O344  1  0.49290196  0.38178559  0.49949279  1
  O  O345  1  0.49094961  0.38084596  0.99857433  1
  O  O346  1  0.49905138  0.88277107  0.49196135  1
  O  O347  1  0.48726715  0.87571095  0.99994290  1
  O  O348  1  0.99624539  0.37824340  0.49606378  1
  O  O349  1  0.99336660  0.37659268  0.99312979  1
  O  O350  1  0.99263572  0.87538476  0.49323777  1
  O  O351  1  0.99457092  0.88101684  0.99361550  1
  O  O352  1  0.49382583  0.49901566  0.38199225  1
  O  O353  1  0.49359273  0.49932972  0.88215450  1
  O  O354  1  0.49945277  0.99319231  0.38258476  1
  O  O355  1  0.49489053  0.99512147  0.87958379  1
  O  O356  1  0.99973293  0.49305916  0.38109617  1
  O  O357  1  0.99345068  0.49225107  0.87650983  1
  O  O358  1  0.99134375  0.99323050  0.37566197  1
  O  O359  1  0.99469412  0.99466393  0.88104255  1
  O  O360  1  0.00605216  0.00158881  0.11779382  1
  O  O361  1  0.00098379  0.01279868  0.62324142  1
  O  O362  1  0.00968494  0.50615319  0.12507426  1
  O  O363  1  0.00317782  0.50648550  0.61757230  1
  O  O364  1  0.50666067  0.00858605  0.12422972  1
  O  O365  1  0.50399629  0.00368177  0.61674783  1
  O  O366  1  0.50819806  0.50222544  0.11808243  1
  O  O367  1  0.50491060  0.50602998  0.62046943  1
  O  O368  1  0.24775025  0.38287833  0.24732229  1
  O  O369  1  0.24230814  0.37445907  0.74588632  1
  O  O370  1  0.24278643  0.88203187  0.25019338  1
  O  O371  1  0.24500929  0.88126511  0.74488579  1
  O  O372  1  0.74618386  0.38014228  0.24449234  1
  O  O373  1  0.74969610  0.38175433  0.74236767  1
  O  O374  1  0.74225428  0.88202186  0.25005524  1
  O  O375  1  0.74388779  0.87584847  0.74177401  1
  O  O376  1  0.25375351  0.12142487  0.25518958  1
  O  O377  1  0.25469261  0.11566433  0.74844059  1
  O  O378  1  0.25617349  0.61972722  0.25676052  1
  O  O379  1  0.25700962  0.62470917  0.75761749  1
  O  O380  1  0.75498881  0.12020322  0.25661017  1
  O  O381  1  0.75899793  0.12300324  0.75521555  1
  O  O382  1  0.75503923  0.62057029  0.25578918  1
  O  O383  1  0.75842929  0.61769734  0.74944797  1
  O  O384  1  0.36756123  0.12474164  0.36763884  1
  O  O385  1  0.37076618  0.12254125  0.86566208  1
  O  O386  1  0.36907300  0.61885927  0.37030065  1
  O  O387  1  0.37016860  0.62185089  0.87123799  1
  O  O388  1  0.86852656  0.11901677  0.37033161  1
  O  O389  1  0.87090816  0.12009460  0.86810625  1
  O  O390  1  0.86511853  0.62374112  0.36743255  1
  O  O391  1  0.87490233  0.61806712  0.86755085  1
  O  O392  1  0.12617742  0.38810057  0.12631275  1
  O  O393  1  0.13117312  0.37288173  0.63482350  1
  O  O394  1  0.12531221  0.88216020  0.13176167  1
  O  O395  1  0.13071283  0.87534570  0.63183950  1
  O  O396  1  0.63224035  0.38087618  0.12925407  1
  O  O397  1  0.63248946  0.38313601  0.62692273  1
  O  O398  1  0.62481764  0.88262671  0.13224392  1
  O  O399  1  0.63048988  0.87892982  0.62983019  1
  O  O400  1  0.11594304  0.24958030  0.25635483  1
  O  O401  1  0.12600171  0.25986588  0.75694759  1
  O  O402  1  0.11758663  0.75598824  0.25022328  1
  O  O403  1  0.12390692  0.75674786  0.75799573  1
  O  O404  1  0.62107340  0.25603673  0.25494116  1
  O  O405  1  0.61837499  0.24945072  0.75646094  1
  O  O406  1  0.61756135  0.75731666  0.25172069  1
  O  O407  1  0.62030943  0.75468183  0.75433995  1
  O  O408  1  0.38121963  0.24499996  0.24751823  1
  O  O409  1  0.37949496  0.24416663  0.74449946  1
  O  O410  1  0.37942127  0.74521658  0.24601848  1
  O  O411  1  0.38020484  0.74458990  0.74514799  1
  O  O412  1  0.88486885  0.24427163  0.25129649  1
  O  O413  1  0.87624778  0.23652469  0.75007909  1
  O  O414  1  0.87994071  0.74473784  0.24277539  1
  O  O415  1  0.87669402  0.74333024  0.74225034  1
  O  O416  1  0.38047202  0.49476837  0.49568670  1
  O  O417  1  0.37974314  0.49436389  0.99602517  1
  O  O418  1  0.38718902  0.99810629  0.49865311  1
  O  O419  1  0.37302273  0.98854479  1.00072566  1
  O  O420  1  0.88344651  0.49246127  0.49741994  1
  O  O421  1  0.87568387  0.49270037  0.99246587  1
  O  O422  1  0.87496727  0.99238836  0.49281282  1
  O  O423  1  0.88026174  0.99541625  0.99520540  1
  O  O424  1  0.12069546  0.00480962  0.00390948  1
  O  O425  1  0.12159770  0.00882640  0.50313540  1
  O  O426  1  0.12506689  0.50657973  0.00959549  1
  O  O427  1  0.11921889  0.50599516  0.50222950  1
  O  O428  1  0.62454872  0.00688478  0.00727061  1
  O  O429  1  0.61328505  0.00046655  0.50543064  1
  O  O430  1  0.62122612  0.50507249  0.00386556  1
  O  O431  1  0.61861996  0.50246617  0.50657481  1
  O  O432  1  0.37283958  0.37502304  0.11178690  1
  O  O433  1  0.37030649  0.36861965  0.62028151  1
  O  O434  1  0.37212583  0.86841920  0.11701838  1
  O  O435  1  0.36720927  0.86695321  0.62333360  1
  O  O436  1  0.86877799  0.37335282  0.11757703  1
  O  O437  1  0.86931184  0.37282688  0.61880019  1
  O  O438  1  0.87394126  0.86839446  0.11775525  1
  O  O439  1  0.87004903  0.87002689  0.61934425  1
  O  O440  1  0.13032396  0.13097042  0.38135045  1
  O  O441  1  0.12752062  0.13217366  0.88153314  1
  O  O442  1  0.13205782  0.62629526  0.38173835  1
  O  O443  1  0.12973973  0.62940319  0.88035016  1
  O  O444  1  0.63220420  0.13250388  0.37600608  1
  O  O445  1  0.63070671  0.12926560  0.88017240  1
  O  O446  1  0.63827157  0.62635385  0.37481211  1
  O  O447  1  0.62780815  0.63273202  0.88143783  1
