# generated using pymatgen
data_V3Zn3O8
_symmetry_space_group_name_H-M   'P 1'
_cell_length_a   17.08911451
_cell_length_b   17.08840265
_cell_length_c   17.08879612
_cell_angle_alpha   90.01068437
_cell_angle_beta   90.00113634
_cell_angle_gamma   90.00669108
_symmetry_Int_Tables_number   1
_chemical_formula_structural   V3Zn3O8
_chemical_formula_sum   'V96 Zn96 O256'
_cell_volume   4990.36700834
_cell_formula_units_Z   32
loop_
 _symmetry_equiv_pos_site_id
 _symmetry_equiv_pos_as_xyz
  1  'x, y, z'
loop_
 _atom_site_type_symbol
 _atom_site_label
 _atom_site_symmetry_multiplicity
 _atom_site_fract_x
 _atom_site_fract_y
 _atom_site_fract_z
 _atom_site_occupancy
  V  V0  1  0.49998346  0.87480906  0.37542904  1
  V  V1  1  0.87366608  0.25081984  0.12329294  1
  V  V2  1  0.62598076  0.49862895  0.12497643  1
  V  V3  1  0.75021227  0.50041130  0.74922731  1
  V  V4  1  0.49963793  0.12498699  0.12585022  1
  V  V5  1  0.37576915  0.74935794  0.62556907  1
  V  V6  1  0.12655649  0.37609466  0.24858378  1
  V  V7  1  0.12632081  0.12500123  0.00027198  1
  V  V8  1  0.37540603  0.00100690  0.87574366  1
  V  V9  1  0.87468116  0.74954882  0.62443737  1
  V  V10  1  0.87608684  0.12562314  0.25002984  1
  V  V11  1  0.12546798  0.49930596  0.62420135  1
  V  V12  1  0.12633443  0.37511222  0.74964014  1
  V  V13  1  0.75019980  -0.00089936  0.74943902  1
  V  V14  1  0.49903747  0.75032517  0.24892830  1
  V  V15  1  0.74983654  0.87554756  0.12558324  1
  V  V16  1  0.74941320  0.62411980  0.37381333  1
  V  V17  1  -0.00030217  0.62371672  0.12462282  1
  V  V18  1  0.75078119  0.37446219  0.62503492  1
  V  V19  1  0.74967058  0.75138942  -0.00098146  1
  V  V20  1  0.62466946  0.62464786  0.49861472  1
  V  V21  1  0.87353948  0.62287868  0.24998283  1
  V  V22  1  0.62442172  0.75182023  0.87351207  1
  V  V23  1  0.37449436  0.49984983  0.37325357  1
  V  V24  1  0.50026940  0.00166166  0.00006907  1
  V  V25  1  0.12525930  0.24817454  0.37573055  1
  V  V26  1  0.87500112  0.37501206  0.49879788  1
  V  V27  1  0.87456205  0.74932191  0.12505231  1
  V  V28  1  0.49954822  0.24968704  0.25070245  1
  V  V29  1  0.37473040  0.87431482  0.49991467  1
  V  V30  1  0.62550730  0.37544257  0.75050584  1
  V  V31  1  0.62642835  0.87673838  0.74887047  1
  V  V32  1  0.87507433  0.87529325  0.00055750  1
  V  V33  1  0.50164371  0.12397641  0.62516712  1
  V  V34  1  0.25001458  0.37510306  0.62529140  1
  V  V35  1  0.00105590  0.24983596  0.75072618  1
  V  V36  1  0.00121606  -0.00054043  0.00061721  1
  V  V37  1  0.87321494  0.87377990  0.50158764  1
  V  V38  1  0.12633103  0.24965648  0.87680425  1
  V  V39  1  0.50076021  0.49974502  0.49924186  1
  V  V40  1  0.74868932  0.12796940  0.87865136  1
  V  V41  1  0.49969834  0.50277472  -0.00229190  1
  V  V42  1  0.37336722  0.37412514  0.00144401  1
  V  V43  1  0.37404361  0.62531101  0.24913959  1
  V  V44  1  0.37611920  0.25044679  0.62527158  1
  V  V45  1  0.00060732  0.87328639  0.37477637  1
  V  V46  1  0.00089062  0.62389019  0.62401428  1
  V  V47  1  0.00121614  0.12422931  0.62539853  1
  V  V48  1  0.74948870  0.12524453  0.37588938  1
  V  V49  1  0.62490387  0.87480700  0.25035822  1
  V  V50  1  0.25098280  0.12528049  0.87569674  1
  V  V51  1  -0.00081578  0.74938645  0.25056445  1
  V  V52  1  0.50149935  0.25090861  0.74964221  1
  V  V53  1  0.62410115  0.00126977  0.12495474  1
  V  V54  1  0.12394514  0.62413553  0.00057968  1
  V  V55  1  0.37369798  0.50242800  0.87187898  1
  V  V56  1  0.00066757  0.74956544  0.75054756  1
  V  V57  1  0.00068241  0.87392034  0.87501863  1
  V  V58  1  0.62542910  0.74886350  0.37502072  1
  V  V59  1  0.12561037  -0.00004414  0.62612030  1
  V  V60  1  0.25071443  0.00018118  0.75069506  1
  V  V61  1  0.49978055  0.87726319  0.87548419  1
  V  V62  1  0.25031132  0.62578531  0.87445891  1
  V  V63  1  0.00019743  0.37533165  0.87592140  1
  V  V64  1  0.12528812  0.62410489  0.49960265  1
  V  V65  1  0.62405553  0.62695320  -0.00148505  1
  V  V66  1  0.74997937  0.62602006  0.87333672  1
  V  V67  1  0.87577731  0.12491126  0.75127128  1
  V  V68  1  0.49836763  0.62794652  0.12394542  1
  V  V69  1  0.62500221  0.50078601  0.62341174  1
  V  V70  1  0.00051525  -0.00050313  0.50187471  1
  V  V71  1  0.24952467  0.87531116  0.62561144  1
  V  V72  1  0.74983493  0.24867034  0.49966885  1
  V  V73  1  -0.00020271  0.50002311  -0.00033600  1
  V  V74  1  0.24973003  0.75067331  0.00019462  1
  V  V75  1  -0.00109906  0.37411261  0.37549876  1
  V  V76  1  0.74985045  0.00012866  0.25093417  1
  V  V77  1  0.49936518  0.75065721  0.74880805  1
  V  V78  1  0.87526098  0.62490125  0.74842605  1
  V  V79  1  0.24967465  0.74859309  0.49999792  1
  V  V80  1  0.87564253  0.24985824  0.62528060  1
  V  V81  1  0.62451805  0.24981615  0.37556601  1
  V  V82  1  0.37385293  -0.00097978  0.37573024  1
  V  V83  1  0.12486708  0.75005479  0.87478238  1
  V  V84  1  0.50055703  -0.00000861  0.50168079  1
  V  V85  1  0.87589786  0.49965172  0.87493199  1
  V  V86  1  0.24965340  0.62413244  0.37419012  1
  V  V87  1  0.87358072  0.49879475  0.37391349  1
  V  V88  1  0.37540896  0.37489631  0.49930261  1
  V  V89  1  0.50024734  0.37383387  0.37374789  1
  V  V90  1  0.24982586  0.24907409  0.50034858  1
  V  V91  1  0.12543762  0.00030815  0.12760422  1
  V  V92  1  0.87586888  0.00025423  0.87591626  1
  V  V93  1  0.37271109  0.12378740  0.25187342  1
  V  V94  1  0.50112165  0.37593413  0.87305429  1
  V  V95  1  0.25017715  0.87399718  0.12581120  1
  Zn  Zn96  1  0.37565820  0.12646133  0.75151533  1
  Zn  Zn97  1  0.24760161  0.12079071  0.37725041  1
  Zn  Zn98  1  0.37423252  0.75069878  0.12355131  1
  Zn  Zn99  1  0.62563392  0.25184892  0.87818733  1
  Zn  Zn100  1  0.12485134  0.87340984  0.25183449  1
  Zn  Zn101  1  0.00100026  0.12503686  0.12582587  1
  Zn  Zn102  1  0.37574964  0.87471912  0.00095964  1
  Zn  Zn103  1  -0.00038234  0.49993706  0.49954304  1
  Zn  Zn104  1  0.00113569  0.24830177  0.24910754  1
  Zn  Zn105  1  0.25023314  0.50219761  0.74818426  1
  Zn  Zn106  1  0.62708289  0.12264431  0.50065094  1
  Zn  Zn107  1  0.74866464  0.49733317  0.24822806  1
  Zn  Zn108  1  0.62554270  0.37452913  0.24805390  1
  Zn  Zn109  1  0.87393715  0.37429888  0.00121172  1
  Zn  Zn110  1  0.12581823  0.49843922  0.12488394  1
  Zn  Zn111  1  0.62455609  0.12951960  0.00174569  1
  Zn  Zn112  1  0.24801588  -0.00207616  0.25350389  1
  Zn  Zn113  1  0.74878111  0.74977778  0.50122009  1
  Zn  Zn114  1  0.25050210  0.25022746  0.00262240  1
  Zn  Zn115  1  0.37383794  0.25104195  0.12576470  1
  Zn  Zn116  1  0.24923804  0.37503617  0.12471959  1
  Zn  Zn117  1  0.74874006  0.87518860  0.62461095  1
  Zn  Zn118  1  0.24991470  0.50052115  0.24653979  1
  Zn  Zn119  1  0.12540521  0.87432599  0.75049680  1
  Zn  Zn120  1  0.87493476  0.00063733  0.37602750  1
  Zn  Zn121  1  0.49891463  0.62493458  0.62521384  1
  Zn  Zn122  1  0.37490689  0.62611001  0.74738119  1
  Zn  Zn123  1  0.12509492  0.74769673  0.37385780  1
  Zn  Zn124  1  0.75062555  0.37528321  0.12383647  1
  Zn  Zn125  1  0.12577246  0.12418410  0.50017415  1
  Zn  Zn126  1  0.74674612  0.25514383  0.00109736  1
  Zn  Zn127  1  0.62789403  -0.00107054  0.62362723  1
  Zn  Zn128  1  0.19206625  0.19026206  0.18637112  1
  Zn  Zn129  1  0.18814854  0.18631895  0.68834428  1
  Zn  Zn130  1  0.18519845  0.68797635  0.18844028  1
  Zn  Zn131  1  0.18856405  0.68666034  0.68826766  1
  Zn  Zn132  1  0.68780898  0.18858539  0.18861682  1
  Zn  Zn133  1  0.68696833  0.18733808  0.68971828  1
  Zn  Zn134  1  0.68703420  0.68606899  0.18734521  1
  Zn  Zn135  1  0.68709590  0.68892919  0.68491527  1
  Zn  Zn136  1  0.31055778  0.31112134  0.31270604  1
  Zn  Zn137  1  0.31268142  0.31243314  0.81255399  1
  Zn  Zn138  1  0.31172725  0.81078843  0.31151761  1
  Zn  Zn139  1  0.31338819  0.81410343  0.81236366  1
  Zn  Zn140  1  0.80831684  0.31376606  0.30816289  1
  Zn  Zn141  1  0.81362487  0.31269343  0.81285700  1
  Zn  Zn142  1  0.81264034  0.81072092  0.31371946  1
  Zn  Zn143  1  0.81321628  0.81308411  0.81143360  1
  Zn  Zn144  1  0.18805994  0.43779687  0.43667498  1
  Zn  Zn145  1  0.18812611  0.43863446  0.93711430  1
  Zn  Zn146  1  0.18655436  0.93703217  0.43959854  1
  Zn  Zn147  1  0.18809045  0.93765382  0.93868448  1
  Zn  Zn148  1  0.68777687  0.43656779  0.43574483  1
  Zn  Zn149  1  0.68947288  0.43692666  0.93951539  1
  Zn  Zn150  1  0.68707654  0.93910585  0.43731057  1
  Zn  Zn151  1  0.68654393  0.94066218  0.93764268  1
  Zn  Zn152  1  0.31304377  0.06177869  0.06248216  1
  Zn  Zn153  1  0.31292028  0.06357439  0.56268684  1
  Zn  Zn154  1  0.30944423  0.56092461  0.06426340  1
  Zn  Zn155  1  0.31292519  0.56232716  0.56183911  1
  Zn  Zn156  1  0.81241157  0.06349953  0.06356191  1
  Zn  Zn157  1  0.81392384  0.06138235  0.56377482  1
  Zn  Zn158  1  0.81192561  0.56314138  0.06031968  1
  Zn  Zn159  1  0.81175432  0.56230315  0.55978380  1
  Zn  Zn160  1  0.44004251  0.43955307  0.18678276  1
  Zn  Zn161  1  0.43863748  0.43750765  0.68628891  1
  Zn  Zn162  1  0.43620187  0.93853036  0.18759583  1
  Zn  Zn163  1  0.43657355  0.93798433  0.68895212  1
  Zn  Zn164  1  0.93988950  0.43593595  0.18866803  1
  Zn  Zn165  1  0.93914235  0.43762173  0.68749621  1
  Zn  Zn166  1  0.93736035  0.93806440  0.18821651  1
  Zn  Zn167  1  0.93775677  0.93684159  0.68833877  1
  Zn  Zn168  1  0.06086695  0.06095805  0.31380234  1
  Zn  Zn169  1  0.06467156  0.06174752  0.81255925  1
  Zn  Zn170  1  0.06089047  0.56044553  0.31335091  1
  Zn  Zn171  1  0.06374972  0.56209927  0.81183458  1
  Zn  Zn172  1  0.56196627  0.06312973  0.31370835  1
  Zn  Zn173  1  0.56434915  0.06331873  0.81172273  1
  Zn  Zn174  1  0.56083088  0.56244036  0.31083401  1
  Zn  Zn175  1  0.56167241  0.56459599  0.80964860  1
  Zn  Zn176  1  0.43739405  0.18637351  0.43829061  1
  Zn  Zn177  1  0.43893649  0.18845002  0.93723416  1
  Zn  Zn178  1  0.43748313  0.68662259  0.43722890  1
  Zn  Zn179  1  0.43538083  0.69057519  0.93677277  1
  Zn  Zn180  1  0.93800015  0.18711773  0.43774678  1
  Zn  Zn181  1  0.93898924  0.18690942  0.94017703  1
  Zn  Zn182  1  0.93707835  0.68645093  0.43763253  1
  Zn  Zn183  1  0.93738227  0.68682804  0.93734766  1
  Zn  Zn184  1  0.05856899  0.31043936  0.06367595  1
  Zn  Zn185  1  0.06224191  0.31264287  0.56157937  1
  Zn  Zn186  1  0.06329359  0.81177839  0.06307677  1
  Zn  Zn187  1  0.06370622  0.81116831  0.56295212  1
  Zn  Zn188  1  0.55968860  0.31111079  0.06055301  1
  Zn  Zn189  1  0.56388387  0.31196641  0.56170874  1
  Zn  Zn190  1  0.56233964  0.81455738  0.06188100  1
  Zn  Zn191  1  0.56330798  0.81231206  0.56351400  1
  O  O192  1  0.12608871  0.11479909  0.12101292  1
  O  O193  1  0.11808613  0.11876794  0.62450875  1
  O  O194  1  0.11645493  0.62471295  0.11807935  1
  O  O195  1  0.12065039  0.61925393  0.61984233  1
  O  O196  1  0.61766324  0.11756256  0.12726497  1
  O  O197  1  0.61302346  0.12434763  0.62390788  1
  O  O198  1  0.61854467  0.62004456  0.11755255  1
  O  O199  1  0.62427691  0.61791432  0.61727624  1
  O  O200  1  0.38031210  0.37932921  0.38025237  1
  O  O201  1  0.38029075  0.38432556  0.88060455  1
  O  O202  1  0.38084986  0.87882393  0.38020265  1
  O  O203  1  0.38247719  0.88295140  0.87675741  1
  O  O204  1  0.87850576  0.37797708  0.37914022  1
  O  O205  1  0.88296856  0.38240804  0.87377975  1
  O  O206  1  0.88406618  0.87475867  0.38402684  1
  O  O207  1  0.88039075  0.88007247  0.88152292  1
  O  O208  1  0.25705901  -0.00012753  0.37394460  1
  O  O209  1  0.25485220  0.00506843  0.87087088  1
  O  O210  1  0.25799256  0.50655181  0.37367420  1
  O  O211  1  0.25955710  0.50644386  0.87379107  1
  O  O212  1  0.75249949  0.00616186  0.36839324  1
  O  O213  1  0.75703224  0.00777061  0.87021104  1
  O  O214  1  0.75549343  0.50639116  0.37247546  1
  O  O215  1  0.75526875  0.50714654  0.86841798  1
  O  O216  1  0.24371292  0.49400827  0.12847857  1
  O  O217  1  0.24444560  0.49247890  0.62553563  1
  O  O218  1  0.24036559  0.99116494  0.12510141  1
  O  O219  1  0.24593948  0.99502300  0.62981068  1
  O  O220  1  0.73646464  0.50350676  0.12342506  1
  O  O221  1  0.74552247  0.49401570  0.62996819  1
  O  O222  1  0.74458407  0.99411594  0.13063512  1
  O  O223  1  0.74943295  0.99823594  0.63453406  1
  O  O224  1  0.00931020  0.37122242  0.25845938  1
  O  O225  1  0.00624647  0.36882379  0.75518955  1
  O  O226  1  -0.00279542  0.86904811  0.25983314  1
  O  O227  1  0.00044648  0.86762765  0.75766239  1
  O  O228  1  0.50033374  0.36777145  0.25663228  1
  O  O229  1  0.50649574  0.37104036  0.75362461  1
  O  O230  1  0.50548782  0.87070243  0.25538532  1
  O  O231  1  0.50640266  0.87107099  0.75635333  1
  O  O232  1  0.49106681  0.12890114  0.24651704  1
  O  O233  1  0.49949615  0.13134350  0.74092911  1
  O  O234  1  0.49419026  0.63179066  0.24421318  1
  O  O235  1  0.49722049  0.63488055  0.74696953  1
  O  O236  1  0.98715990  0.12454348  0.24965171  1
  O  O237  1  0.99520748  0.13014726  0.74603142  1
  O  O238  1  0.99306229  0.62971952  0.24490004  1
  O  O239  1  0.99435293  0.62990893  0.74457124  1
  O  O240  1  0.37636609  0.26379852  -0.00085570  1
  O  O241  1  0.37027327  0.25626830  0.50526992  1
  O  O242  1  0.36573915  0.75397669  0.00295474  1
  O  O243  1  0.36999764  0.75562057  0.50481275  1
  O  O244  1  0.87409405  0.24911011  0.01156901  1
  O  O245  1  0.86959458  0.25525474  0.50609401  1
  O  O246  1  0.86912373  0.75529396  0.00493712  1
  O  O247  1  0.87486870  0.75879882  0.50573386  1
  O  O248  1  0.13048707  0.25020661  0.49107233  1
  O  O249  1  0.12478086  0.24313376  0.99349063  1
  O  O250  1  0.13212188  0.74212393  0.49929045  1
  O  O251  1  0.12908867  0.74373852  0.99387948  1
  O  O252  1  0.63269502  0.24768152  0.49398212  1
  O  O253  1  0.62801880  0.24660979  0.99611504  1
  O  O254  1  0.62520260  0.74381047  0.49214286  1
  O  O255  1  0.63057622  0.74685204  0.99343468  1
  O  O256  1  0.49626155  0.24285705  0.13283626  1
  O  O257  1  0.49576172  0.24369630  0.62872045  1
  O  O258  1  0.49964805  0.74575846  0.13076396  1
  O  O259  1  0.49312393  0.75004611  0.63102144  1
  O  O260  1  0.98894390  0.24398902  0.12912895  1
  O  O261  1  0.99516592  0.24487304  0.63101283  1
  O  O262  1  0.99285187  0.74486493  0.12948542  1
  O  O263  1  0.99494038  0.74354579  0.63095985  1
  O  O264  1  0.01010094  0.25511556  0.37512810  1
  O  O265  1  0.00568092  0.25457126  0.86961801  1
  O  O266  1  -0.00082266  0.75803884  0.36943100  1
  O  O267  1  0.00434076  0.75413536  0.87020614  1
  O  O268  1  0.50468821  0.25460465  0.37130436  1
  O  O269  1  0.50123007  0.25790785  0.86673806  1
  O  O270  1  0.50526188  0.75564440  0.36885312  1
  O  O271  1  0.50584428  0.75694375  0.86996414  1
  O  O272  1  0.24763560  0.13353329  0.49840484  1
  O  O273  1  0.24388845  0.12538468  0.99325814  1
  O  O274  1  0.24517939  0.62975881  0.49424166  1
  O  O275  1  0.24359258  0.63087487  0.99441086  1
  O  O276  1  0.75136121  0.13102943  0.49459874  1
  O  O277  1  0.75008033  0.12449766  0.98802081  1
  O  O278  1  0.74254275  0.62610468  0.49182536  1
  O  O279  1  0.74455769  0.63268201  0.99252539  1
  O  O280  1  0.26239334  0.37487141  -0.00199709  1
  O  O281  1  0.25616336  0.36898640  0.50555041  1
  O  O282  1  0.24969130  0.86936920  0.00996151  1
  O  O283  1  0.25565067  0.86874472  0.50583801  1
  O  O284  1  0.75668891  0.37344549  0.00477895  1
  O  O285  1  0.75541687  0.36858681  0.50584367  1
  O  O286  1  0.75524449  0.87102409  0.00532460  1
  O  O287  1  0.76263321  0.87411624  0.49965795  1
  O  O288  1  0.12506228  0.48773951  0.25038692  1
  O  O289  1  0.12638694  0.49271455  0.74295104  1
  O  O290  1  0.12535940  0.99726332  0.23950534  1
  O  O291  1  0.13207312  0.99728855  0.74402338  1
  O  O292  1  0.62308020  0.50095385  0.23620797  1
  O  O293  1  0.63109546  0.49575445  0.74361571  1
  O  O294  1  0.62989793  0.99362107  0.24565705  1
  O  O295  1  0.63257200  0.99344366  0.74931469  1
  O  O296  1  0.37513366  0.00855454  0.25739871  1
  O  O297  1  0.36825424  0.00233457  0.75765107  1
  O  O298  1  0.37578149  0.50727814  0.25666736  1
  O  O299  1  0.37522291  0.50007730  0.76192797  1
  O  O300  1  0.86826077  0.00909695  0.24996359  1
  O  O301  1  0.87140821  0.00541029  0.75685969  1
  O  O302  1  0.87394785  0.50638547  0.25568007  1
  O  O303  1  0.86976834  0.50579190  0.75432321  1
  O  O304  1  0.12032738  0.36672722  0.36956571  1
  O  O305  1  0.11977559  0.36983230  0.86963344  1
  O  O306  1  0.11118543  0.87248913  0.37558266  1
  O  O307  1  0.11801081  0.86801748  0.87522450  1
  O  O308  1  0.61732901  0.36802903  0.37418491  1
  O  O309  1  0.61871039  0.37773515  0.86756015  1
  O  O310  1  0.61959736  0.86949170  0.36925677  1
  O  O311  1  0.62022361  0.87061295  0.86958268  1
  O  O312  1  0.38094933  0.12297174  0.13654681  1
  O  O313  1  0.38600509  0.13177203  0.62638097  1
  O  O314  1  0.38144160  0.62608725  0.13032112  1
  O  O315  1  0.37725568  0.63295168  0.62605260  1
  O  O316  1  0.87484322  0.13066672  0.13492473  1
  O  O317  1  0.88123087  0.13074223  0.63201807  1
  O  O318  1  0.87956094  0.63069297  0.12924565  1
  O  O319  1  0.88020833  0.62884449  0.62954981  1
  O  O320  1  0.25693002  0.25652113  0.12024283  1
  O  O321  1  0.25566885  0.25552544  0.62051102  1
  O  O322  1  0.24788209  0.75936367  0.11911980  1
  O  O323  1  0.25529789  0.75556677  0.61965109  1
  O  O324  1  0.76122369  0.24917569  0.12395055  1
  O  O325  1  0.75633253  0.25477181  0.62125962  1
  O  O326  1  0.75437427  0.75549882  0.11885573  1
  O  O327  1  0.75925892  0.75351291  0.62210823  1
  O  O328  1  0.23976698  0.24882439  0.38210809  1
  O  O329  1  0.24343645  0.24349459  0.87621726  1
  O  O330  1  0.24896861  0.74306904  0.38245645  1
  O  O331  1  0.24449356  0.74617036  0.88019423  1
  O  O332  1  0.74447745  0.24486590  0.38051248  1
  O  O333  1  0.75146117  0.23872857  0.87499633  1
  O  O334  1  0.74274715  0.74275827  0.37596342  1
  O  O335  1  0.74496420  0.74564602  0.87953468  1
  O  O336  1  0.00804492  0.11588613  0.00146908  1
  O  O337  1  -0.00022223  0.11780240  0.50785905  1
  O  O338  1  0.00436740  0.62061691  0.00474025  1
  O  O339  1  0.00631657  0.62364050  0.50688133  1
  O  O340  1  0.50031686  0.11879593  0.00764921  1
  O  O341  1  0.50035822  0.11935496  0.50979112  1
  O  O342  1  0.50534579  0.62269537  0.00301885  1
  O  O343  1  0.50704892  0.61717459  0.49960714  1
  O  O344  1  0.49460907  0.37976807  0.49417979  1
  O  O345  1  0.49218417  0.38341592  0.99227322  1
  O  O346  1  0.49405766  0.87932972  0.49436512  1
  O  O347  1  0.49995590  0.88290591  0.99321671  1
  O  O348  1  0.99219556  0.37556655  0.49389812  1
  O  O349  1  0.99807736  0.38179987  0.99254235  1
  O  O350  1  0.99215517  0.87795036  0.49377310  1
  O  O351  1  0.99397765  0.87903234  0.99503802  1
  O  O352  1  0.49457540  0.49387942  0.37988174  1
  O  O353  1  0.49260750  0.49721061  0.87823498  1
  O  O354  1  0.49451961  0.99360313  0.38109449  1
  O  O355  1  0.49579190  0.99686679  0.87983234  1
  O  O356  1  0.99123524  0.49224474  0.37760649  1
  O  O357  1  0.99505267  0.49539568  0.87893541  1
  O  O358  1  0.99721748  0.98983672  0.38202788  1
  O  O359  1  0.99530828  0.99423446  0.88048876  1
  O  O360  1  0.01004864  -0.00115050  0.11949593  1
  O  O361  1  0.00523039  0.00477879  0.62194485  1
  O  O362  1  0.00074679  0.50697673  0.11770295  1
  O  O363  1  0.00668007  0.50640314  0.62362017  1
  O  O364  1  0.50535077  0.00437386  0.12069125  1
  O  O365  1  0.49891887  0.00918866  0.62058226  1
  O  O366  1  0.50707473  0.50890987  0.11703188  1
  O  O367  1  0.50728273  0.50002321  0.61716111  1
  O  O368  1  0.23846488  0.37653125  0.25102224  1
  O  O369  1  0.24354160  0.37637854  0.74318468  1
  O  O370  1  0.24638028  0.87554804  0.23953617  1
  O  O371  1  0.24843449  0.88182721  0.74312078  1
  O  O372  1  0.74277667  0.37983992  0.24240540  1
  O  O373  1  0.74628236  0.38115487  0.74446762  1
  O  O374  1  0.74531016  0.87911395  0.24494591  1
  O  O375  1  0.74494448  0.88200114  0.75084168  1
  O  O376  1  0.26211206  0.12222110  0.25309645  1
  O  O377  1  0.25232614  0.11842218  0.75719806  1
  O  O378  1  0.25598243  0.62501856  0.25628814  1
  O  O379  1  0.25370317  0.62238370  0.75870493  1
  O  O380  1  0.75752688  0.11946160  0.25609606  1
  O  O381  1  0.75672458  0.12008541  0.75818606  1
  O  O382  1  0.75641559  0.62344002  0.25573651  1
  O  O383  1  0.75524916  0.62011180  0.75420708  1
  O  O384  1  0.37543567  0.11814953  0.36699975  1
  O  O385  1  0.36933791  0.11895289  0.87399922  1
  O  O386  1  0.37005071  0.61950847  0.36938205  1
  O  O387  1  0.36980095  0.61605191  0.87539491  1
  O  O388  1  0.86905414  0.12502784  0.36577468  1
  O  O389  1  0.86943721  0.11944814  0.87038564  1
  O  O390  1  0.86972326  0.61932093  0.36976549  1
  O  O391  1  0.86966426  0.62058810  0.86794826  1
  O  O392  1  0.12233213  0.37328978  0.13796915  1
  O  O393  1  0.13005114  0.37908967  0.62971596  1
  O  O394  1  0.13234163  0.88381835  0.12495335  1
  O  O395  1  0.13165092  0.88128657  0.62644851  1
  O  O396  1  0.62064681  0.38978656  0.12258186  1
  O  O397  1  0.63183783  0.38073203  0.62972149  1
  O  O398  1  0.63100250  0.88047616  0.13124451  1
  O  O399  1  0.62784648  0.87705563  0.63350342  1
  O  O400  1  0.12507199  0.25625836  0.26030453  1
  O  O401  1  0.11966763  0.25524883  0.75591755  1
  O  O402  1  0.11416030  0.75294995  0.25319170  1
  O  O403  1  0.11798445  0.75063494  0.75682507  1
  O  O404  1  0.61669432  0.24995496  0.25753254  1
  O  O405  1  0.61933620  0.25891930  0.75167125  1
  O  O406  1  0.61927621  0.75543973  0.25478221  1
  O  O407  1  0.62033089  0.75592570  0.75558359  1
  O  O408  1  0.38104930  0.23919314  0.25247101  1
  O  O409  1  0.38318023  0.25062273  0.74247029  1
  O  O410  1  0.38225877  0.74346613  0.24768134  1
  O  O411  1  0.38190152  0.75113088  0.74343608  1
  O  O412  1  0.87441332  0.23948863  0.24327034  1
  O  O413  1  0.88182109  0.24480877  0.74449090  1
  O  O414  1  0.87918245  0.74365370  0.24376066  1
  O  O415  1  0.88085160  0.74380451  0.74513171  1
  O  O416  1  0.38090171  0.49370705  0.49373015  1
  O  O417  1  0.37990616  0.49518576  0.98950764  1
  O  O418  1  0.38049629  0.99330268  0.49547931  1
  O  O419  1  0.38249430  0.99804230  0.99363681  1
  O  O420  1  0.87535713  0.49197726  0.49285462  1
  O  O421  1  0.88227611  0.50175529  0.99167702  1
  O  O422  1  0.88207133  0.98951310  0.49998920  1
  O  O423  1  0.88070239  0.99405567  0.99611583  1
  O  O424  1  0.12046078  0.00461749  0.00866933  1
  O  O425  1  0.11781094  0.00131922  0.50791281  1
  O  O426  1  0.11693823  0.50702935  -0.00105369  1
  O  O427  1  0.12348858  0.50568224  0.50668338  1
  O  O428  1  0.61861705  0.00306721  0.00778955  1
  O  O429  1  0.61656067  0.00192987  0.50299109  1
  O  O430  1  0.61892032  0.50835898  0.00450819  1
  O  O431  1  0.62007645  0.50417216  0.50415659  1
  O  O432  1  0.37783225  0.37798258  0.11102896  1
  O  O433  1  0.37037829  0.37031062  0.61863043  1
  O  O434  1  0.36242613  0.87492663  0.12390043  1
  O  O435  1  0.36933959  0.87001628  0.61868701  1
  O  O436  1  0.87634959  0.36254643  0.12592160  1
  O  O437  1  0.87003188  0.36943612  0.62063404  1
  O  O438  1  0.86926996  0.86948284  0.11994217  1
  O  O439  1  0.87666979  0.86860117  0.61555941  1
  O  O440  1  0.12483811  0.13564433  0.37626603  1
  O  O441  1  0.13073992  0.12969721  0.88058870  1
  O  O442  1  0.13095665  0.62455758  0.38164731  1
  O  O443  1  0.12981269  0.63060843  0.88060237  1
  O  O444  1  0.63164043  0.13122311  0.37700098  1
  O  O445  1  0.63779392  0.12655079  0.87537128  1
  O  O446  1  0.62902068  0.62949665  0.37863081  1
  O  O447  1  0.63064596  0.63158759  0.87889885  1
