# generated using pymatgen
data_V3Zn3O8
_symmetry_space_group_name_H-M   'P 1'
_cell_length_a   17.08571865
_cell_length_b   17.08864946
_cell_length_c   17.08891798
_cell_angle_alpha   90.01456599
_cell_angle_beta   89.99262821
_cell_angle_gamma   90.00293538
_symmetry_Int_Tables_number   1
_chemical_formula_structural   V3Zn3O8
_chemical_formula_sum   'V96 Zn96 O256'
_cell_volume   4989.48290529
_cell_formula_units_Z   32
loop_
 _symmetry_equiv_pos_site_id
 _symmetry_equiv_pos_as_xyz
  1  'x, y, z'
loop_
 _atom_site_type_symbol
 _atom_site_label
 _atom_site_symmetry_multiplicity
 _atom_site_fract_x
 _atom_site_fract_y
 _atom_site_fract_z
 _atom_site_occupancy
  V  V0  1  0.50003064  0.12492644  0.62447762  1
  V  V1  1  0.12566846  0.75216954  0.87394185  1
  V  V2  1  0.12475029  0.00100382  0.62412307  1
  V  V3  1  0.49955074  0.50014888  0.49928803  1
  V  V4  1  0.75014080  0.24983204  -0.00045797  1
  V  V5  1  0.37642710  0.74989904  0.62396921  1
  V  V6  1  0.24965290  0.62411236  0.37349956  1
  V  V7  1  -0.00124478  0.74927705  0.25009599  1
  V  V8  1  0.37484308  0.25089751  0.62522820  1
  V  V9  1  0.12349554  0.62416599  0.00149522  1
  V  V10  1  0.62450949  0.00012434  0.12422291  1
  V  V11  1  0.87654150  0.12595230  0.75050912  1
  V  V12  1  0.74929247  0.74902322  0.50050541  1
  V  V13  1  -0.00209375  0.37506692  0.37603922  1
  V  V14  1  0.24999346  0.50118702  0.74981887  1
  V  V15  1  0.00105468  0.12403182  0.12533442  1
  V  V16  1  0.62526519  0.74953081  0.87471207  1
  V  V17  1  0.37578241  0.12606922  0.24971105  1
  V  V18  1  0.50051230  0.00050285  0.50009384  1
  V  V19  1  0.62378970  0.24871514  0.37444082  1
  V  V20  1  0.25031104  -0.00061230  0.24919698  1
  V  V21  1  0.25109843  0.87595768  0.62416479  1
  V  V22  1  -0.00030342  0.87622621  0.87628382  1
  V  V23  1  0.50143804  0.75007400  0.74861968  1
  V  V24  1  0.49961324  0.87478874  0.37408470  1
  V  V25  1  0.62424108  0.74851484  0.37538846  1
  V  V26  1  0.62509293  0.62489299  -0.00104798  1
  V  V27  1  0.25067740  0.62599928  0.87308002  1
  V  V28  1  0.00075301  0.25035759  0.75085222  1
  V  V29  1  0.62552187  0.49892724  0.62475759  1
  V  V30  1  0.25115300  0.00015846  0.74936261  1
  V  V31  1  0.12437767  0.74959062  0.37500011  1
  V  V32  1  0.25090249  0.75139257  -0.00258137  1
  V  V33  1  0.25036377  0.25028070  0.00020952  1
  V  V34  1  -0.00056266  0.75104649  0.74912333  1
  V  V35  1  0.87479526  0.74950511  0.12632157  1
  V  V36  1  0.37590007  0.25065430  0.12576191  1
  V  V37  1  0.87713463  0.37539687  0.00018009  1
  V  V38  1  0.74934559  0.74883826  0.00030983  1
  V  V39  1  0.74975956  0.24815243  0.50135744  1
  V  V40  1  0.49871909  0.62505775  0.12444344  1
  V  V41  1  0.25016571  0.87558075  0.12381675  1
  V  V42  1  0.50002765  0.37512856  0.87484409  1
  V  V43  1  0.62534399  0.37567064  0.74947763  1
  V  V44  1  0.37532437  0.87536386  0.49867136  1
  V  V45  1  0.37485253  0.37440997  0.00072023  1
  V  V46  1  0.49888324  0.74914447  0.24876857  1
  V  V47  1  0.87498160  -0.00059028  0.37547475  1
  V  V48  1  0.12278150  0.62502458  0.50021259  1
  V  V49  1  0.37489497  0.00064034  0.37407130  1
  V  V50  1  0.87576833  0.24955625  0.62633350  1
  V  V51  1  0.24950811  0.75047504  0.49928846  1
  V  V52  1  0.24967255  0.37602332  0.62524375  1
  V  V53  1  -0.00197564  0.50004298  0.50108076  1
  V  V54  1  0.87545424  0.37430994  0.50127366  1
  V  V55  1  0.87351758  0.62356755  0.25102067  1
  V  V56  1  0.87449870  0.62503200  0.75100312  1
  V  V57  1  0.62461249  0.87451427  0.24984059  1
  V  V58  1  0.62683801  -0.00072757  0.62603075  1
  V  V59  1  0.87555545  0.50043440  0.87603832  1
  V  V60  1  0.37580179  0.74959591  0.12339485  1
  V  V61  1  0.62585945  0.24991915  0.87523765  1
  V  V62  1  0.12514603  0.37486469  0.75133639  1
  V  V63  1  0.50203660  0.87451122  0.87333333  1
  V  V64  1  0.49996393  0.62538238  0.62370938  1
  V  V65  1  0.49989155  0.25023571  0.74997043  1
  V  V66  1  0.87549180  0.87519834  0.00103806  1
  V  V67  1  0.24852226  0.25021936  0.49956700  1
  V  V68  1  0.00028601  0.87447104  0.37524911  1
  V  V69  1  0.37599139  0.00024895  0.87392759  1
  V  V70  1  0.49977163  0.49980138  -0.00040437  1
  V  V71  1  0.12604939  0.25029312  0.87546585  1
  V  V72  1  0.37581722  0.87547407  -0.00170092  1
  V  V73  1  0.12531364  0.12576282  0.00070383  1
  V  V74  1  0.49908344  0.37401967  0.37408136  1
  V  V75  1  0.12574903  0.87502581  0.24913205  1
  V  V76  1  0.50197693  0.00038699  0.00006470  1
  V  V77  1  0.74920770  0.49790633  0.25117052  1
  V  V78  1  0.87421930  0.87355583  0.50127535  1
  V  V79  1  0.75051143  -0.00068793  0.25115090  1
  V  V80  1  0.12514727  0.37836927  0.24803024  1
  V  V81  1  0.87558662  0.12382201  0.25130077  1
  V  V82  1  0.75010553  0.87417534  0.12606245  1
  V  V83  1  0.87563719  0.00034356  0.87649200  1
  V  V84  1  0.74986443  0.37414876  0.12444896  1
  V  V85  1  0.37274882  0.50089497  0.37367571  1
  V  V86  1  0.62454904  0.49877131  0.12420968  1
  V  V87  1  0.75063498  -0.00044761  0.75030091  1
  V  V88  1  0.00075531  -0.00013754  0.50066458  1
  V  V89  1  0.12510138  0.24998126  0.37665619  1
  V  V90  1  0.12398766  0.50152293  0.62517762  1
  V  V91  1  -0.00100053  0.24972492  0.25139387  1
  V  V92  1  0.37381085  0.37568106  0.49973570  1
  V  V93  1  0.37512797  0.12480429  0.75060410  1
  V  V94  1  0.37470596  0.50056885  0.87402423  1
  V  V95  1  0.75035142  0.12576313  0.87612320  1
  Zn  Zn96  1  0.24879765  0.12520922  0.37626299  1
  Zn  Zn97  1  0.62526142  0.12347200  0.49866581  1
  Zn  Zn98  1  0.87320889  0.75027492  0.62567600  1
  Zn  Zn99  1  0.62545204  0.62375349  0.49794543  1
  Zn  Zn100  1  0.74916695  0.12347603  0.37491008  1
  Zn  Zn101  1  0.12506617  0.50060523  0.12446703  1
  Zn  Zn102  1  0.74672571  0.62184314  0.37626630  1
  Zn  Zn103  1  0.12605946  -0.00069291  0.12350046  1
  Zn  Zn104  1  0.00235586  0.37637197  0.87648763  1
  Zn  Zn105  1  0.75043680  0.49958419  0.74988199  1
  Zn  Zn106  1  0.24973724  0.50249036  0.24653597  1
  Zn  Zn107  1  0.00186917  -0.00033350  0.00087590  1
  Zn  Zn108  1  0.25029827  0.12403534  0.87584015  1
  Zn  Zn109  1  0.00106464  0.12551782  0.62396353  1
  Zn  Zn110  1  0.74882753  0.62473984  0.87486073  1
  Zn  Zn111  1  0.24954591  0.37905225  0.12571568  1
  Zn  Zn112  1  0.75162475  0.87362199  0.62785160  1
  Zn  Zn113  1  0.00155019  0.50047189  0.00266750  1
  Zn  Zn114  1  0.37494868  0.62534404  0.74836321  1
  Zn  Zn115  1  0.50261793  0.12552197  0.12338300  1
  Zn  Zn116  1  0.75098245  0.37550701  0.62701614  1
  Zn  Zn117  1  0.37243652  0.62341562  0.24822443  1
  Zn  Zn118  1  0.62837735  0.87333777  0.75026335  1
  Zn  Zn119  1  0.62527665  0.12521430  0.00131773  1
  Zn  Zn120  1  0.00132823  0.62283958  0.12577126  1
  Zn  Zn121  1  0.12528554  0.12562519  0.49834966  1
  Zn  Zn122  1  0.87163820  0.49866025  0.37768643  1
  Zn  Zn123  1  0.62338436  0.37283330  0.24868997  1
  Zn  Zn124  1  0.87345773  0.24938435  0.12628744  1
  Zn  Zn125  1  -0.00188920  0.62651365  0.62340013  1
  Zn  Zn126  1  0.12522036  0.87634343  0.75063660  1
  Zn  Zn127  1  0.50152413  0.25049952  0.24904361  1
  Zn  Zn128  1  0.18819398  0.18956575  0.18808099  1
  Zn  Zn129  1  0.18803635  0.18615118  0.68799578  1
  Zn  Zn130  1  0.18912880  0.68903360  0.18670047  1
  Zn  Zn131  1  0.18681184  0.68780087  0.68638339  1
  Zn  Zn132  1  0.68875708  0.18566196  0.18731669  1
  Zn  Zn133  1  0.68812979  0.18612191  0.68819517  1
  Zn  Zn134  1  0.68635917  0.68589922  0.18714155  1
  Zn  Zn135  1  0.68782057  0.68545821  0.68698638  1
  Zn  Zn136  1  0.30982061  0.31366701  0.31275530  1
  Zn  Zn137  1  0.31131352  0.31270183  0.81350300  1
  Zn  Zn138  1  0.31261507  0.81150726  0.31092738  1
  Zn  Zn139  1  0.31429061  0.81382808  0.80937328  1
  Zn  Zn140  1  0.81232675  0.31131122  0.31405073  1
  Zn  Zn141  1  0.81172735  0.31434678  0.81216682  1
  Zn  Zn142  1  0.81132202  0.81167581  0.31524432  1
  Zn  Zn143  1  0.81173849  0.81360463  0.81446268  1
  Zn  Zn144  1  0.18564824  0.43814170  0.43635538  1
  Zn  Zn145  1  0.18986894  0.43768179  0.93766024  1
  Zn  Zn146  1  0.18790319  0.93785629  0.43634901  1
  Zn  Zn147  1  0.18664912  0.93989664  0.93691195  1
  Zn  Zn148  1  0.68658607  0.43321005  0.43810951  1
  Zn  Zn149  1  0.68976688  0.43774904  0.93632861  1
  Zn  Zn150  1  0.68792301  0.93539111  0.43793292  1
  Zn  Zn151  1  0.68804376  0.93695553  0.93778768  1
  Zn  Zn152  1  0.31288951  0.06325846  0.06234212  1
  Zn  Zn153  1  0.31223707  0.06454045  0.56154769  1
  Zn  Zn154  1  0.30957773  0.56169872  0.06278962  1
  Zn  Zn155  1  0.31177864  0.56379968  0.56111932  1
  Zn  Zn156  1  0.81280743  0.06236728  0.06330923  1
  Zn  Zn157  1  0.81397072  0.06342692  0.56322542  1
  Zn  Zn158  1  0.81140319  0.56245232  0.06393155  1
  Zn  Zn159  1  0.81182617  0.56412489  0.56444660  1
  Zn  Zn160  1  0.43734007  0.43744432  0.19012528  1
  Zn  Zn161  1  0.43796951  0.43815255  0.68771866  1
  Zn  Zn162  1  0.43768493  0.93768366  0.18587071  1
  Zn  Zn163  1  0.43907986  0.93641084  0.68767218  1
  Zn  Zn164  1  0.93995082  0.43980074  0.18424011  1
  Zn  Zn165  1  0.93906299  0.43654671  0.68741101  1
  Zn  Zn166  1  0.93819477  0.93800884  0.18815395  1
  Zn  Zn167  1  0.93619020  0.93681124  0.68714059  1
  Zn  Zn168  1  0.06413240  0.06226858  0.31327850  1
  Zn  Zn169  1  0.06278491  0.06400710  0.81283865  1
  Zn  Zn170  1  0.05947747  0.56119079  0.31501988  1
  Zn  Zn171  1  0.06135029  0.56317054  0.81463554  1
  Zn  Zn172  1  0.56233432  0.06340880  0.31147744  1
  Zn  Zn173  1  0.56403232  0.06320296  0.81237309  1
  Zn  Zn174  1  0.56141054  0.56283187  0.31181514  1
  Zn  Zn175  1  0.56119879  0.56393057  0.81069499  1
  Zn  Zn176  1  0.43692714  0.18689390  0.43802132  1
  Zn  Zn177  1  0.43860094  0.18558146  0.93831930  1
  Zn  Zn178  1  0.43715666  0.68533289  0.43689098  1
  Zn  Zn179  1  0.43827569  0.68684113  0.93559339  1
  Zn  Zn180  1  0.93908767  0.18512554  0.43862395  1
  Zn  Zn181  1  0.93914678  0.18890606  0.93737844  1
  Zn  Zn182  1  0.93492196  0.68615791  0.43585245  1
  Zn  Zn183  1  0.93816990  0.68899529  0.93671179  1
  Zn  Zn184  1  0.06121056  0.31046979  0.06410965  1
  Zn  Zn185  1  0.06218041  0.31303844  0.56405395  1
  Zn  Zn186  1  0.06213914  0.81063764  0.06325209  1
  Zn  Zn187  1  0.06196038  0.81374156  0.56394661  1
  Zn  Zn188  1  0.56262037  0.31215150  0.06191027  1
  Zn  Zn189  1  0.56209378  0.31342499  0.56107635  1
  Zn  Zn190  1  0.56265463  0.81318014  0.06149175  1
  Zn  Zn191  1  0.56412073  0.81393075  0.56216942  1
  O  O192  1  0.11623910  0.12581345  0.12096710  1
  O  O193  1  0.12476119  0.11178655  0.62297243  1
  O  O194  1  0.12560867  0.62854446  0.11164737  1
  O  O195  1  0.12299603  0.61938504  0.61785762  1
  O  O196  1  0.62307083  0.11604888  0.12324311  1
  O  O197  1  0.61875203  0.11507952  0.62437459  1
  O  O198  1  0.61845747  0.61901100  0.11838201  1
  O  O199  1  0.61868095  0.61396711  0.62310415  1
  O  O200  1  0.37891542  0.37993119  0.38115790  1
  O  O201  1  0.38081765  0.38023023  0.88036127  1
  O  O202  1  0.38055615  0.88026834  0.37933882  1
  O  O203  1  0.38202227  0.88023007  0.87943262  1
  O  O204  1  0.88071721  0.37490693  0.38317827  1
  O  O205  1  0.87514428  0.38360773  0.88383147  1
  O  O206  1  0.88140376  0.87973885  0.38043313  1
  O  O207  1  0.88011269  0.88053545  0.88205055  1
  O  O208  1  0.25794429  0.00019530  0.36755253  1
  O  O209  1  0.25832582  0.00043019  0.86767579  1
  O  O210  1  0.25526917  0.50711706  0.37550154  1
  O  O211  1  0.25591528  0.50576932  0.86871035  1
  O  O212  1  0.75628402  -0.00029559  0.36906863  1
  O  O213  1  0.75580744  0.00538949  0.87044563  1
  O  O214  1  0.74957987  0.49895892  0.36383095  1
  O  O215  1  0.76235495  0.50275869  0.87267372  1
  O  O216  1  0.24385658  0.49626436  0.12846702  1
  O  O217  1  0.24442037  0.49543549  0.62954256  1
  O  O218  1  0.25049736  0.99261840  0.13112871  1
  O  O219  1  0.24411449  0.99496532  0.62836196  1
  O  O220  1  0.74416323  0.49436757  0.13220723  1
  O  O221  1  0.73699788  0.49823941  0.62618066  1
  O  O222  1  0.74529723  0.99272668  0.13116365  1
  O  O223  1  0.74130754  1.00129443  0.63043288  1
  O  O224  1  0.00495676  0.36964765  0.25525156  1
  O  O225  1  0.00802803  0.36845871  0.75233753  1
  O  O226  1  0.00503225  0.86907336  0.25572849  1
  O  O227  1  -0.00101481  0.86525874  0.75701241  1
  O  O228  1  0.50302257  0.37149318  0.25894029  1
  O  O229  1  0.50442001  0.36906546  0.75576999  1
  O  O230  1  0.50500697  0.86936374  0.25470785  1
  O  O231  1  0.50262872  0.86798143  0.75601785  1
  O  O232  1  0.48636834  0.12642197  0.24729101  1
  O  O233  1  0.49465898  0.13125594  0.74448489  1
  O  O234  1  0.49814214  0.63159502  0.24156148  1
  O  O235  1  0.49732187  0.63222546  0.74183392  1
  O  O236  1  0.99612599  0.12923170  0.24347612  1
  O  O237  1  0.99342160  0.13233727  0.74881053  1
  O  O238  1  0.98979607  0.63069816  0.25096437  1
  O  O239  1  0.99203487  0.63516349  0.75174681  1
  O  O240  1  0.37144913  0.25406821  0.00727080  1
  O  O241  1  0.36993430  0.25661357  0.50621316  1
  O  O242  1  0.37070573  0.75616461  0.00300404  1
  O  O243  1  0.36966119  0.75640418  0.50401889  1
  O  O244  1  0.86898474  0.26073908  -0.00071117  1
  O  O245  1  0.86822019  0.25362437  0.50530887  1
  O  O246  1  0.86937307  0.75479590  0.00594169  1
  O  O247  1  0.86586603  0.75441615  0.49960612  1
  O  O248  1  0.13070592  0.25107911  0.49479674  1
  O  O249  1  0.13049718  0.24571138  0.99575736  1
  O  O250  1  0.12946010  0.74601110  0.49459119  1
  O  O251  1  0.13160320  0.74430550  0.99323423  1
  O  O252  1  0.63267950  0.24850585  0.49342195  1
  O  O253  1  0.63212190  0.25013305  0.99247797  1
  O  O254  1  0.63310806  0.75023633  0.49406938  1
  O  O255  1  0.62943323  0.74426366  0.99541775  1
  O  O256  1  0.48835290  0.24808839  0.12618154  1
  O  O257  1  0.49455086  0.24586581  0.62997360  1
  O  O258  1  0.49528632  0.74522448  0.12863621  1
  O  O259  1  0.49620463  0.74580349  0.62785667  1
  O  O260  1  0.99715199  0.23862991  0.13197656  1
  O  O261  1  0.99426025  0.24848227  0.63262218  1
  O  O262  1  0.99212891  0.74795153  0.13314929  1
  O  O263  1  0.99821607  0.74948525  0.63727299  1
  O  O264  1  0.00504582  0.25574499  0.37096082  1
  O  O265  1  0.00796855  0.25263809  0.86860370  1
  O  O266  1  0.00490864  0.75540051  0.36969569  1
  O  O267  1  0.00506870  0.75641551  0.86701624  1
  O  O268  1  0.50849797  0.25500972  0.37643437  1
  O  O269  1  0.50497100  0.25571145  0.86977349  1
  O  O270  1  0.50364205  0.75575467  0.36959125  1
  O  O271  1  0.50551546  0.75483583  0.86935713  1
  O  O272  1  0.24857213  0.13476697  0.49752895  1
  O  O273  1  0.24367526  0.13225209  0.99962984  1
  O  O274  1  0.24288910  0.63180372  0.49431523  1
  O  O275  1  0.24316336  0.63227259  0.99250330  1
  O  O276  1  0.74943558  0.13718951  0.49772277  1
  O  O277  1  0.75053968  0.13195364  0.99340304  1
  O  O278  1  0.74852751  0.63570142  0.49749639  1
  O  O279  1  0.74286395  0.63143683  1.00012597  1
  O  O280  1  0.25783521  0.36799560  0.00162028  1
  O  O281  1  0.25463793  0.37086695  0.50642383  1
  O  O282  1  0.25623948  0.87041406  0.00329097  1
  O  O283  1  0.25622609  0.86957173  0.50387110  1
  O  O284  1  0.75853557  0.37050512  0.00434690  1
  O  O285  1  0.75560228  0.36241938  0.50206178  1
  O  O286  1  0.75556794  0.86877232  0.00695490  1
  O  O287  1  0.75587573  0.86456792  0.50020611  1
  O  O288  1  0.12340435  0.48837957  0.25150170  1
  O  O289  1  0.13003874  0.49570899  0.74600121  1
  O  O290  1  0.13226662  0.99228464  0.24899451  1
  O  O291  1  0.13094145  0.99893536  0.74082457  1
  O  O292  1  0.63426766  0.49895911  0.24327680  1
  O  O293  1  0.62346693  0.49468089  0.74069819  1
  O  O294  1  0.62989040  0.99323078  0.24563378  1
  O  O295  1  0.63105532  0.99985469  0.74135925  1
  O  O296  1  0.37090441  0.00680701  0.25373265  1
  O  O297  1  0.37160284  0.00498969  0.75376328  1
  O  O298  1  0.37201823  0.50234420  0.25857466  1
  O  O299  1  0.36832077  0.50103390  0.75589757  1
  O  O300  1  0.87003492  0.00308253  0.25641522  1
  O  O301  1  0.87060207  0.00579689  0.75633625  1
  O  O302  1  0.86540241  0.50716834  0.24894450  1
  O  O303  1  0.87681714  0.50790699  0.75823560  1
  O  O304  1  0.11737605  0.36995995  0.36786377  1
  O  O305  1  0.12548544  0.36899022  0.86890719  1
  O  O306  1  0.11992809  0.86859087  0.36954273  1
  O  O307  1  0.11861689  0.86951622  0.87311678  1
  O  O308  1  0.61832606  0.36361590  0.37504708  1
  O  O309  1  0.61920239  0.37041849  0.86994403  1
  O  O310  1  0.61821709  0.86948417  0.36881001  1
  O  O311  1  0.61905120  0.86763572  0.87421803  1
  O  O312  1  0.37610686  0.13366651  0.13301295  1
  O  O313  1  0.38085367  0.13117119  0.63070242  1
  O  O314  1  0.38130262  0.63212941  0.12297274  1
  O  O315  1  0.38124389  0.63232250  0.62412943  1
  O  O316  1  0.88447147  0.12526735  0.13188121  1
  O  O317  1  0.87706709  0.13134991  0.63326633  1
  O  O318  1  0.87410344  0.63099721  0.13588043  1
  O  O319  1  0.87796548  0.62709987  0.63842043  1
  O  O320  1  0.26151286  0.25234164  0.11988718  1
  O  O321  1  0.25555733  0.25676178  0.62109035  1
  O  O322  1  0.25657620  0.75662283  0.11733712  1
  O  O323  1  0.25506239  0.75567122  0.61849216  1
  O  O324  1  0.75197376  0.25635399  0.11866910  1
  O  O325  1  0.75480007  0.25039696  0.61632806  1
  O  O326  1  0.75465530  0.75554030  0.12079982  1
  O  O327  1  0.74979155  0.75169585  0.61363552  1
  O  O328  1  0.24304665  0.25091106  0.38278436  1
  O  O329  1  0.24450762  0.24783545  0.88197260  1
  O  O330  1  0.24411811  0.74592313  0.38058986  1
  O  O331  1  0.24600650  0.74673746  0.87803332  1
  O  O332  1  0.74108518  0.24892447  0.38415166  1
  O  O333  1  0.74496387  0.24545989  0.87954149  1
  O  O334  1  0.74262438  0.74909223  0.38397537  1
  O  O335  1  0.74350706  0.74882543  0.88317108  1
  O  O336  1  0.00539137  0.12606064  0.01034906  1
  O  O337  1  0.00336037  0.11520970  0.50352702  1
  O  O338  1  0.01294393  0.62787655  -0.00006489  1
  O  O339  1  0.00483639  0.61940807  0.50033519  1
  O  O340  1  0.50353134  0.11578218  0.00185828  1
  O  O341  1  0.49982288  0.11792059  0.50728440  1
  O  O342  1  0.50518673  0.61896966  0.00481612  1
  O  O343  1  0.50173595  0.61774075  0.50594429  1
  O  O344  1  0.49250080  0.38028230  0.49445725  1
  O  O345  1  0.49454533  0.38062947  0.99382364  1
  O  O346  1  0.49441607  0.88049283  0.49364625  1
  O  O347  1  0.49466188  0.87982326  0.99322801  1
  O  O348  1  0.99448043  0.38016241  0.49585302  1
  O  O349  1  0.98792510  0.37519621  0.99915855  1
  O  O350  1  0.99459230  0.87890835  0.49395221  1
  O  O351  1  0.99315151  0.87521751  0.99470804  1
  O  O352  1  0.49436282  0.49452549  0.38027163  1
  O  O353  1  0.49487807  0.49464991  0.87994936  1
  O  O354  1  0.49492342  0.99407128  0.37963837  1
  O  O355  1  0.49583945  0.99424989  0.87896538  1
  O  O356  1  0.99588129  0.49264750  0.38375711  1
  O  O357  1  0.98795366  0.49790015  0.87938787  1
  O  O358  1  0.99570718  0.99280722  0.38010393  1
  O  O359  1  0.99321545  0.99428300  0.87628785  1
  O  O360  1  0.00235248  0.01220920  0.12506951  1
  O  O361  1  0.01019568  -0.00159356  0.62017302  1
  O  O362  1  0.00634252  0.50628197  0.11965138  1
  O  O363  1  0.00712844  0.50188948  0.61906462  1
  O  O364  1  0.50679487  -0.00114186  0.11794348  1
  O  O365  1  0.50727471  0.00475787  0.62034650  1
  O  O366  1  0.50440693  0.50429485  0.11879069  1
  O  O367  1  0.50653601  0.50402849  0.61947458  1
  O  O368  1  0.23632767  0.37661863  0.24987697  1
  O  O369  1  0.24505434  0.38122653  0.74432767  1
  O  O370  1  0.24551759  0.87899585  0.24353603  1
  O  O371  1  0.24971766  0.88202573  0.74149115  1
  O  O372  1  0.75058745  0.38392594  0.24395405  1
  O  O373  1  0.74106872  0.37794300  0.74703610  1
  O  O374  1  0.74449572  0.87905041  0.24541741  1
  O  O375  1  0.74886249  0.88344338  0.74824714  1
  O  O376  1  0.26113688  0.11973809  0.25036120  1
  O  O377  1  0.25840732  0.11809356  0.75079274  1
  O  O378  1  0.25098290  0.62491424  0.25873376  1
  O  O379  1  0.25092042  0.61931508  0.75527117  1
  O  O380  1  0.75789539  0.11654613  0.25142362  1
  O  O381  1  0.75682480  0.12023661  0.75690300  1
  O  O382  1  0.75657606  0.61521041  0.24906964  1
  O  O383  1  0.76256146  0.62384061  0.75325693  1
  O  O384  1  0.37386187  0.11956938  0.36552142  1
  O  O385  1  0.37486611  0.11800065  0.86772889  1
  O  O386  1  0.36739249  0.61893345  0.37433335  1
  O  O387  1  0.36866212  0.61857148  0.87324059  1
  O  O388  1  0.87497979  0.11655563  0.36856518  1
  O  O389  1  0.87008188  0.12046545  0.87024746  1
  O  O390  1  0.87032139  0.62214394  0.36168833  1
  O  O391  1  0.87505465  0.61739258  0.86824624  1
  O  O392  1  0.12436190  0.37349888  0.13728457  1
  O  O393  1  0.13124379  0.38161178  0.63131495  1
  O  O394  1  0.13202420  0.87476664  0.13095868  1
  O  O395  1  0.13196954  0.88512782  0.62588508  1
  O  O396  1  0.63134205  0.38122906  0.12552667  1
  O  O397  1  0.62293541  0.38428264  0.63043950  1
  O  O398  1  0.63080258  0.87895562  0.13106061  1
  O  O399  1  0.62634024  0.88876655  0.62679582  1
  O  O400  1  0.11891750  0.25827139  0.25604155  1
  O  O401  1  0.12177665  0.25512911  0.75486957  1
  O  O402  1  0.11917661  0.75516605  0.25578937  1
  O  O403  1  0.11559083  0.75126473  0.75500362  1
  O  O404  1  0.62484783  0.25045575  0.26148989  1
  O  O405  1  0.61893584  0.25500694  0.75478714  1
  O  O406  1  0.61902088  0.75550230  0.25405849  1
  O  O407  1  0.61958868  0.75052023  0.75577652  1
  O  O408  1  0.37405110  0.24282240  0.24277527  1
  O  O409  1  0.38047142  0.24600387  0.74459434  1
  O  O410  1  0.38175282  0.74937893  0.24162911  1
  O  O411  1  0.38236974  0.74910408  0.74104506  1
  O  O412  1  0.88129540  0.24288598  0.24990154  1
  O  O413  1  0.87999166  0.24585918  0.74623542  1
  O  O414  1  0.87773161  0.74256785  0.24658956  1
  O  O415  1  0.88330381  0.74183870  0.75337605  1
  O  O416  1  0.37953808  0.49408137  0.49486452  1
  O  O417  1  0.38033760  0.49459004  0.99388516  1
  O  O418  1  0.38024175  0.99461487  0.49471908  1
  O  O419  1  0.38051454  0.99427172  0.99401093  1
  O  O420  1  0.87908608  0.49331023  0.50069901  1
  O  O421  1  0.87382632  0.49242929  0.99307274  1
  O  O422  1  0.87989608  0.99407770  0.49516684  1
  O  O423  1  0.87616490  0.99292303  0.99426074  1
  O  O424  1  0.12251442  0.00920811  0.00328696  1
  O  O425  1  0.12068069  -0.00103040  0.50846242  1
  O  O426  1  0.12547959  0.51317679  -0.00292971  1
  O  O427  1  0.11861971  0.50527543  0.50559092  1
  O  O428  1  0.61999453  -0.00043188  0.00668588  1
  O  O429  1  0.61987913  0.00116824  0.50811790  1
  O  O430  1  0.61943705  0.50423849  0.00422968  1
  O  O431  1  0.61864847  0.49828771  0.50882343  1
  O  O432  1  0.37562696  0.36579071  0.11967576  1
  O  O433  1  0.36960545  0.37030573  0.62006250  1
  O  O434  1  0.37036779  0.86919632  0.11756994  1
  O  O435  1  0.37106372  0.87024960  0.61760935  1
  O  O436  1  0.86916375  0.37457960  0.11475147  1
  O  O437  1  0.87323874  0.36758769  0.61932776  1
  O  O438  1  0.86948245  0.86950716  0.12160404  1
  O  O439  1  0.87210065  0.87202067  0.61654855  1
  O  O440  1  0.12793043  0.13399987  0.37621107  1
  O  O441  1  0.12696028  0.13201923  0.88248537  1
  O  O442  1  0.12866501  0.63100535  0.38089764  1
  O  O443  1  0.13094019  0.63214780  0.88173691  1
  O  O444  1  0.62594896  0.13501872  0.37756626  1
  O  O445  1  0.63262891  0.13250066  0.87553429  1
  O  O446  1  0.62613934  0.63286369  0.37709599  1
  O  O447  1  0.62498676  0.63072706  0.88169138  1
