# generated using pymatgen
data_V3Zn3O8
_symmetry_space_group_name_H-M   'P 1'
_cell_length_a   17.08690744
_cell_length_b   17.08788518
_cell_length_c   17.08704292
_cell_angle_alpha   90.00215301
_cell_angle_beta   89.99638100
_cell_angle_gamma   89.99928123
_symmetry_Int_Tables_number   1
_chemical_formula_structural   V3Zn3O8
_chemical_formula_sum   'V96 Zn96 O256'
_cell_volume   4989.05961341
_cell_formula_units_Z   32
loop_
 _symmetry_equiv_pos_site_id
 _symmetry_equiv_pos_as_xyz
  1  'x, y, z'
loop_
 _atom_site_type_symbol
 _atom_site_label
 _atom_site_symmetry_multiplicity
 _atom_site_fract_x
 _atom_site_fract_y
 _atom_site_fract_z
 _atom_site_occupancy
  V  V0  1  0.50064642  0.37522420  0.37493861  1
  V  V1  1  0.87559596  0.75002562  0.12368257  1
  V  V2  1  0.00007339  0.62634377  0.12469398  1
  V  V3  1  0.62545122  0.87465318  0.24960557  1
  V  V4  1  0.24938380  0.49915563  0.75036170  1
  V  V5  1  0.12465271  0.74977740  0.87375358  1
  V  V6  1  0.87393129  0.12414263  0.75017940  1
  V  V7  1  0.49940136  0.25006030  0.75070154  1
  V  V8  1  -0.00144405  -0.00023846  -0.00178782  1
  V  V9  1  0.62558566  0.37486595  0.75165794  1
  V  V10  1  0.49880405  0.37481321  0.87715913  1
  V  V11  1  0.00081143  0.87680409  0.37311806  1
  V  V12  1  0.74953658  0.74969834  -0.00094964  1
  V  V13  1  0.87553775  0.74814496  0.62497138  1
  V  V14  1  0.50076379  0.12496802  0.12559791  1
  V  V15  1  0.12555646  0.49955945  0.12612244  1
  V  V16  1  0.87512687  0.12364304  0.24915902  1
  V  V17  1  0.87416809  0.50028858  0.87553043  1
  V  V18  1  0.87626232  0.62555835  0.25072910  1
  V  V19  1  0.37479204  0.87468973  -0.00068970  1
  V  V20  1  0.37489968  0.62484663  0.25052466  1
  V  V21  1  0.62382562  0.62310358  0.50158445  1
  V  V22  1  0.74883287  0.87532413  0.62516038  1
  V  V23  1  0.37550990  0.12612794  0.25096563  1
  V  V24  1  0.12548907  0.00053994  0.62464919  1
  V  V25  1  0.00023039  0.37605462  0.37513451  1
  V  V26  1  0.12458215  0.37512416  0.74948903  1
  V  V27  1  0.50005080  0.00043984  0.49950521  1
  V  V28  1  0.00031196  0.12512631  0.62498398  1
  V  V29  1  0.74948449  0.24912025  0.49957536  1
  V  V30  1  0.37574596  0.87589426  0.50021321  1
  V  V31  1  0.62473510  0.00026771  0.62653093  1
  V  V32  1  0.12472584  0.62482872  -0.00074688  1
  V  V33  1  0.87636427  0.37677185  0.49897382  1
  V  V34  1  0.25011393  -0.00035867  0.24875922  1
  V  V35  1  0.12606403  0.12552802  0.49981766  1
  V  V36  1  0.12625791  0.75118343  0.37429342  1
  V  V37  1  0.49995027  0.25091604  0.25104778  1
  V  V38  1  0.37517874  0.37543343  0.50140128  1
  V  V39  1  0.24948417  0.74958405  -0.00023339  1
  V  V40  1  0.00025604  0.00011314  0.49885714  1
  V  V41  1  0.24980960  0.37597176  0.62590319  1
  V  V42  1  0.62456055  0.12523436  0.00055596  1
  V  V43  1  0.37538252  0.25097138  0.62616419  1
  V  V44  1  0.00047333  0.25050631  0.75027093  1
  V  V45  1  0.50032548  0.75044929  0.24967390  1
  V  V46  1  0.37530299  -0.00104677  0.87529623  1
  V  V47  1  0.75082735  0.37450772  0.12630878  1
  V  V48  1  0.50015440  0.87344649  0.87356965  1
  V  V49  1  0.75022196  -0.00006270  0.25049065  1
  V  V50  1  0.00024062  0.49996634  -0.00034287  1
  V  V51  1  0.37330753  0.37348199  0.00113451  1
  V  V52  1  0.24979400  0.62637158  0.37587546  1
  V  V53  1  0.74995851  0.62472673  0.87549533  1
  V  V54  1  0.12485201  0.87514701  0.74877434  1
  V  V55  1  0.74944145  0.87469476  0.12433579  1
  V  V56  1  0.12398027  0.12377389  -0.00034555  1
  V  V57  1  0.50009775  0.87600503  0.37539730  1
  V  V58  1  0.75217658  0.62543827  0.37362519  1
  V  V59  1  0.62546859  0.74985777  0.37442309  1
  V  V60  1  0.24843806  0.49920823  0.24983716  1
  V  V61  1  0.62384726  0.74908853  0.87390640  1
  V  V62  1  -0.00156422  0.87569148  0.87402728  1
  V  V63  1  0.24915834  0.24806739  0.00077507  1
  V  V64  1  0.25007205  0.00008924  0.74962830  1
  V  V65  1  0.62545498  0.37435041  0.25088370  1
  V  V66  1  0.62555842  0.12536560  0.50006013  1
  V  V67  1  0.74957094  0.37539036  0.62585446  1
  V  V68  1  0.25095166  0.62348413  0.87394419  1
  V  V69  1  0.37359918  0.25012461  0.12532960  1
  V  V70  1  0.24937082  0.12436750  0.87584560  1
  V  V71  1  0.62398883  0.00044257  0.12498445  1
  V  V72  1  0.25139599  0.87494405  0.62337664  1
  V  V73  1  0.87516077  0.24967234  0.12499755  1
  V  V74  1  0.62478949  0.50022622  0.12555179  1
  V  V75  1  0.25203014  0.75147396  0.49962713  1
  V  V76  1  -0.00107563  0.12381760  0.12359086  1
  V  V77  1  0.25048711  0.87536474  0.12498533  1
  V  V78  1  0.87495763  0.37472409  0.00164283  1
  V  V79  1  0.25061435  0.12562928  0.37492899  1
  V  V80  1  0.74977126  0.74994194  0.50015644  1
  V  V81  1  0.50076047  0.50114495  0.50074273  1
  V  V82  1  0.74979426  0.49897594  0.75189168  1
  V  V83  1  0.62453428  0.24951639  0.87649642  1
  V  V84  1  0.37429230  0.50023578  0.37528823  1
  V  V85  1  0.87527988  0.24954836  0.62493632  1
  V  V86  1  -0.00070102  0.74990672  0.74796925  1
  V  V87  1  0.37382857  0.49882286  0.87608275  1
  V  V88  1  0.37530536  0.12558810  0.75003007  1
  V  V89  1  0.74946627  0.12451048  0.87388666  1
  V  V90  1  0.87475188  0.87557984  -0.00187131  1
  V  V91  1  0.50031398  0.62439577  0.12522081  1
  V  V92  1  0.75115199  0.12417030  0.37517228  1
  V  V93  1  0.37502823  0.74948827  0.12501484  1
  V  V94  1  0.12469088  0.25008442  0.37360460  1
  V  V95  1  0.00014882  0.37465644  0.87436088  1
  Zn  Zn96  1  0.75265313  0.49832753  0.25211937  1
  Zn  Zn97  1  0.24702613  0.37321049  0.12696166  1
  Zn  Zn98  1  0.12413868  0.62233737  0.50168837  1
  Zn  Zn99  1  0.49671781  0.74515376  0.74856653  1
  Zn  Zn100  1  0.62302332  0.87442119  0.74950215  1
  Zn  Zn101  1  0.37763259  0.74795232  0.62787257  1
  Zn  Zn102  1  0.49939278  0.00017356  0.00054106  1
  Zn  Zn103  1  0.74986229  -0.00070177  0.75047972  1
  Zn  Zn104  1  0.12413945  0.37436907  0.24858573  1
  Zn  Zn105  1  0.87205747  -0.00075855  0.87189329  1
  Zn  Zn106  1  0.00129166  0.50646001  0.50269332  1
  Zn  Zn107  1  0.12461680  0.24944906  0.87536385  1
  Zn  Zn108  1  0.62527593  0.25057509  0.37573408  1
  Zn  Zn109  1  0.25150801  0.25074229  0.50067335  1
  Zn  Zn110  1  0.87650273  0.50189453  0.37510965  1
  Zn  Zn111  1  0.87516588  -0.00124966  0.37531149  1
  Zn  Zn112  1  0.49772520  0.50021994  0.00103371  1
  Zn  Zn113  1  0.87645738  0.62330274  0.74919954  1
  Zn  Zn114  1  0.12259504  0.50254128  0.62288257  1
  Zn  Zn115  1  0.74986332  0.24979505  0.00060586  1
  Zn  Zn116  1  0.50007680  0.12599719  0.62469671  1
  Zn  Zn117  1  0.12380481  -0.00205383  0.12349373  1
  Zn  Zn118  1  0.49773414  0.62560306  0.62874246  1
  Zn  Zn119  1  0.37588003  0.00191748  0.37636805  1
  Zn  Zn120  1  0.12522787  0.87574399  0.24632103  1
  Zn  Zn121  1  0.00503281  0.62472825  0.62400868  1
  Zn  Zn122  1  0.62346987  0.62368878  0.00104260  1
  Zn  Zn123  1  0.37681164  0.62451163  0.74727073  1
  Zn  Zn124  1  -0.00007726  0.24886928  0.24866911  1
  Zn  Zn125  1  0.00310660  0.75315254  0.24766784  1
  Zn  Zn126  1  0.87502385  0.87633918  0.49782441  1
  Zn  Zn127  1  0.62349130  0.50029081  0.62785785  1
  Zn  Zn128  1  0.18574397  0.18500054  0.18637360  1
  Zn  Zn129  1  0.18829396  0.18960131  0.68819094  1
  Zn  Zn130  1  0.18782116  0.68679831  0.18844676  1
  Zn  Zn131  1  0.18985055  0.68644909  0.68566137  1
  Zn  Zn132  1  0.68812760  0.18876014  0.18819948  1
  Zn  Zn133  1  0.68766599  0.18809119  0.68808946  1
  Zn  Zn134  1  0.68875280  0.68683305  0.18733010  1
  Zn  Zn135  1  0.68745104  0.68605523  0.68955224  1
  Zn  Zn136  1  0.31125169  0.31423909  0.31250234  1
  Zn  Zn137  1  0.31113302  0.31211454  0.81379834  1
  Zn  Zn138  1  0.31425849  0.81471105  0.31346186  1
  Zn  Zn139  1  0.31306497  0.81040527  0.81064642  1
  Zn  Zn140  1  0.81257627  0.30939332  0.31173159  1
  Zn  Zn141  1  0.81277740  0.31125750  0.81365862  1
  Zn  Zn142  1  0.81460569  0.81162244  0.31154973  1
  Zn  Zn143  1  0.81147066  0.81218501  0.81022093  1
  Zn  Zn144  1  0.18688110  0.43832341  0.44013096  1
  Zn  Zn145  1  0.18728491  0.43525122  0.93783871  1
  Zn  Zn146  1  0.18770019  0.93840065  0.43594993  1
  Zn  Zn147  1  0.18617973  0.93757908  0.93725545  1
  Zn  Zn148  1  0.68972818  0.43947082  0.43532234  1
  Zn  Zn149  1  0.68748243  0.43681956  0.94003181  1
  Zn  Zn150  1  0.68691960  0.93845959  0.43830318  1
  Zn  Zn151  1  0.68651346  0.93903029  0.93809880  1
  Zn  Zn152  1  0.31347955  0.06243067  0.06245125  1
  Zn  Zn153  1  0.31336062  0.06385494  0.56239086  1
  Zn  Zn154  1  0.31161215  0.56115950  0.06246252  1
  Zn  Zn155  1  0.31121796  0.56412371  0.56405139  1
  Zn  Zn156  1  0.81187837  0.06211973  0.06061655  1
  Zn  Zn157  1  0.81405561  0.06118059  0.56104756  1
  Zn  Zn158  1  0.81112359  0.56221038  0.06276717  1
  Zn  Zn159  1  0.81116540  0.56116873  0.56290231  1
  Zn  Zn160  1  0.43644645  0.43668500  0.18738149  1
  Zn  Zn161  1  0.43809503  0.44021268  0.68815991  1
  Zn  Zn162  1  0.43670230  0.93824500  0.18809454  1
  Zn  Zn163  1  0.43734118  0.93603756  0.68735694  1
  Zn  Zn164  1  0.93963721  0.43815920  0.18865572  1
  Zn  Zn165  1  0.93830529  0.43961295  0.68714103  1
  Zn  Zn166  1  0.93692671  0.93853812  0.18662218  1
  Zn  Zn167  1  0.93603767  0.93787636  0.68674113  1
  Zn  Zn168  1  0.06353217  0.06283966  0.31042420  1
  Zn  Zn169  1  0.06160770  0.06256940  0.81293921  1
  Zn  Zn170  1  0.06220523  0.56286434  0.31376251  1
  Zn  Zn171  1  0.06218668  0.56288750  0.80859697  1
  Zn  Zn172  1  0.56398874  0.06328461  0.31371478  1
  Zn  Zn173  1  0.56155325  0.06237451  0.81238935  1
  Zn  Zn174  1  0.56277406  0.56199935  0.31270044  1
  Zn  Zn175  1  0.56105769  0.56153100  0.81390842  1
  Zn  Zn176  1  0.43826585  0.18842515  0.43860416  1
  Zn  Zn177  1  0.43720887  0.18693392  0.93852878  1
  Zn  Zn178  1  0.43734780  0.68868342  0.43875413  1
  Zn  Zn179  1  0.43727044  0.68471613  0.93812468  1
  Zn  Zn180  1  0.93727662  0.18735853  0.43638433  1
  Zn  Zn181  1  0.93597391  0.18797100  0.93690605  1
  Zn  Zn182  1  0.93963568  0.69038378  0.43930747  1
  Zn  Zn183  1  0.93694352  0.68759591  0.93592387  1
  Zn  Zn184  1  0.06275985  0.31121839  0.06265530  1
  Zn  Zn185  1  0.06408129  0.31325958  0.56241233  1
  Zn  Zn186  1  0.06300588  0.81367469  0.06116280  1
  Zn  Zn187  1  0.06308940  0.81255085  0.55993818  1
  Zn  Zn188  1  0.56167993  0.31218749  0.06297853  1
  Zn  Zn189  1  0.56255206  0.31343956  0.56387023  1
  Zn  Zn190  1  0.56196631  0.81196949  0.06032808  1
  Zn  Zn191  1  0.56046528  0.81105974  0.56289592  1
  O  O192  1  0.11710819  0.12203001  0.11722956  1
  O  O193  1  0.12012825  0.12045439  0.62037479  1
  O  O194  1  0.11972010  0.62103073  0.11868944  1
  O  O195  1  0.12448773  0.62300778  0.62044486  1
  O  O196  1  0.62018944  0.12010863  0.12125764  1
  O  O197  1  0.62531690  0.11538601  0.61938116  1
  O  O198  1  0.61998783  0.61597268  0.12651687  1
  O  O199  1  0.62737423  0.62409557  0.61029605  1
  O  O200  1  0.38050032  0.38090611  0.38066786  1
  O  O201  1  0.37936522  0.37852092  0.88173039  1
  O  O202  1  0.38317164  0.87825918  0.38104747  1
  O  O203  1  0.38147972  0.87880868  0.88019057  1
  O  O204  1  0.88271556  0.37196080  0.38367519  1
  O  O205  1  0.88001673  0.38041557  0.88146650  1
  O  O206  1  0.88756406  0.87542668  0.37560678  1
  O  O207  1  0.88012223  0.87487829  0.88034124  1
  O  O208  1  0.25153621  0.00673730  0.36520718  1
  O  O209  1  0.25550252  0.00370565  0.86883148  1
  O  O210  1  0.25555284  0.50610685  0.36979607  1
  O  O211  1  0.25407150  0.50384083  0.87077092  1
  O  O212  1  0.75085371  0.00498420  0.36837538  1
  O  O213  1  0.74950939  0.00914901  0.87142307  1
  O  O214  1  0.75581346  0.50917797  0.37122738  1
  O  O215  1  0.75476549  0.50418406  0.87209713  1
  O  O216  1  0.24282277  0.50035464  0.13208788  1
  O  O217  1  0.25045500  0.49124455  0.63337699  1
  O  O218  1  0.25112453  0.99433428  0.13359702  1
  O  O219  1  0.24432503  0.99571521  0.63040928  1
  O  O220  1  0.74065532  0.49452984  0.12780825  1
  O  O221  1  0.74837985  0.49256136  0.63280924  1
  O  O222  1  0.74369914  0.99391518  0.13034913  1
  O  O223  1  0.74118893  0.99159033  0.62274927  1
  O  O224  1  0.00063013  0.37148172  0.26248917  1
  O  O225  1  0.00400766  0.36928239  0.75519574  1
  O  O226  1  0.00325098  0.87529262  0.25903351  1
  O  O227  1  0.00575269  0.87056174  0.75405617  1
  O  O228  1  0.50457388  0.37001541  0.25566920  1
  O  O229  1  0.50565280  0.36977537  0.75751936  1
  O  O230  1  0.50575855  0.86962785  0.25446501  1
  O  O231  1  0.50074627  0.87298106  0.76437809  1
  O  O232  1  0.49553624  0.13069980  0.24571912  1
  O  O233  1  0.49297417  0.13189807  0.74921366  1
  O  O234  1  0.49432321  0.63162240  0.24592513  1
  O  O235  1  0.49728718  0.62567012  0.74821977  1
  O  O236  1  0.99310784  0.12370941  0.24197707  1
  O  O237  1  0.99497927  0.13015346  0.74379132  1
  O  O238  1  0.99180254  0.62829363  0.24403699  1
  O  O239  1  0.99624438  0.63550240  0.74766182  1
  O  O240  1  0.36866681  0.25305922  0.00610967  1
  O  O241  1  0.37516503  0.25738923  0.50760008  1
  O  O242  1  0.36859782  0.75469150  0.00544161  1
  O  O243  1  0.36834809  0.75945565  0.49825829  1
  O  O244  1  0.87378765  0.25738928  0.00712342  1
  O  O245  1  0.86975595  0.25719530  0.50539511  1
  O  O246  1  0.86945415  0.75588474  0.00445637  1
  O  O247  1  0.86750952  0.75396977  0.50873290  1
  O  O248  1  0.12642751  0.24388413  0.48964588  1
  O  O249  1  0.13077140  0.24173525  0.99810172  1
  O  O250  1  0.13342072  0.75362268  0.48678868  1
  O  O251  1  0.13003896  0.74442769  0.99354302  1
  O  O252  1  0.63177129  0.24382673  0.50039348  1
  O  O253  1  0.62585639  0.24340158  0.99428803  1
  O  O254  1  0.62980743  0.74165647  0.49325367  1
  O  O255  1  0.63120600  0.74946871  0.99029697  1
  O  O256  1  0.49397254  0.24432096  0.13182802  1
  O  O257  1  0.49363857  0.24990987  0.63342271  1
  O  O258  1  0.49482393  0.74557934  0.13069853  1
  O  O259  1  0.49841536  0.74681379  0.62939095  1
  O  O260  1  0.99316204  0.24236511  0.12597070  1
  O  O261  1  0.99475810  0.24421498  0.62999706  1
  O  O262  1  0.99392092  0.74433024  0.12447164  1
  O  O263  1  0.98917392  0.75476246  0.62934978  1
  O  O264  1  0.00876207  0.25686610  0.37425266  1
  O  O265  1  -0.00021901  0.25686870  0.86786763  1
  O  O266  1  0.00986701  0.76078486  0.37394788  1
  O  O267  1  0.00534068  0.75616523  0.86926541  1
  O  O268  1  0.50144612  0.25757187  0.36878897  1
  O  O269  1  0.50449235  0.25484671  0.86974520  1
  O  O270  1  0.50630338  0.75568337  0.36866464  1
  O  O271  1  0.50836570  0.75753444  0.87816790  1
  O  O272  1  0.24383706  0.12683129  0.49336926  1
  O  O273  1  0.24485712  0.12815948  0.99493961  1
  O  O274  1  0.25037529  0.63382962  0.49050589  1
  O  O275  1  0.24371229  0.63063262  0.99495412  1
  O  O276  1  0.74579106  0.12952815  0.49537769  1
  O  O277  1  0.74293527  0.12647276  0.99197596  1
  O  O278  1  0.74282384  0.62947409  0.49374300  1
  O  O279  1  0.74829068  0.63224586  0.99406014  1
  O  O280  1  0.25536803  0.36611187  0.00213806  1
  O  O281  1  0.25854761  0.37351481  0.50671027  1
  O  O282  1  0.25527859  0.86893987  0.00420921  1
  O  O283  1  0.25580678  0.87257149  0.50382541  1
  O  O284  1  0.75758670  0.37366440  0.00792089  1
  O  O285  1  0.75813113  0.36982277  0.50382148  1
  O  O286  1  0.75470140  0.87000057  0.00528953  1
  O  O287  1  0.74916007  0.86899744  0.50978625  1
  O  O288  1  0.13077949  0.50084555  0.24400241  1
  O  O289  1  0.13216783  0.49143944  0.75013193  1
  O  O290  1  0.13960200  1.00008428  0.24686838  1
  O  O291  1  0.13019802  0.99511041  0.74410354  1
  O  O292  1  0.62599287  0.49443703  0.24001100  1
  O  O293  1  0.63239779  0.49154148  0.75150657  1
  O  O294  1  0.63050179  0.99387139  0.24449296  1
  O  O295  1  0.62568111  0.99848700  0.73729014  1
  O  O296  1  0.36606138  0.00704816  0.25142900  1
  O  O297  1  0.36935360  0.00491865  0.75532905  1
  O  O298  1  0.36995345  0.50580022  0.25553731  1
  O  O299  1  0.36658055  0.49766236  0.75985050  1
  O  O300  1  0.86669979  0.00575454  0.25052224  1
  O  O301  1  0.87172113  0.00864934  0.75004209  1
  O  O302  1  0.87525901  0.51444266  0.25025059  1
  O  O303  1  0.86732255  0.49964987  0.75846904  1
  O  O304  1  0.11652835  0.36533899  0.37615693  1
  O  O305  1  0.11704738  0.37263136  0.86890357  1
  O  O306  1  0.11823629  0.86851173  0.37180511  1
  O  O307  1  0.11943522  0.86926635  0.86864445  1
  O  O308  1  0.61886382  0.37475127  0.36876306  1
  O  O309  1  0.61993341  0.36900411  0.87173055  1
  O  O310  1  0.62065616  0.86913930  0.36921823  1
  O  O311  1  0.61690663  0.86722908  0.87586810  1
  O  O312  1  0.38106195  0.13060922  0.13103845  1
  O  O313  1  0.37642026  0.13173233  0.63262510  1
  O  O314  1  0.37948967  0.63040158  0.13108322  1
  O  O315  1  0.37830793  0.62854133  0.62672875  1
  O  O316  1  0.87888264  0.12973842  0.12867546  1
  O  O317  1  0.88073781  0.13058243  0.62909395  1
  O  O318  1  0.87998577  0.63033425  0.13097552  1
  O  O319  1  0.87022353  0.64030145  0.62611749  1
  O  O320  1  0.25613800  0.24868379  0.11912629  1
  O  O321  1  0.25775901  0.25722884  0.62450818  1
  O  O322  1  0.25613518  0.75419328  0.11964353  1
  O  O323  1  0.24982446  0.76000244  0.61645177  1
  O  O324  1  0.75691353  0.25669330  0.12340564  1
  O  O325  1  0.75608576  0.25566923  0.61972769  1
  O  O326  1  0.75480732  0.75562945  0.11913352  1
  O  O327  1  0.75449098  0.75779063  0.62105964  1
  O  O328  1  0.24057656  0.24471881  0.37605887  1
  O  O329  1  0.24914869  0.24114856  0.88227722  1
  O  O330  1  0.24405849  0.74762880  0.37851160  1
  O  O331  1  0.24337417  0.74510607  0.88102895  1
  O  O332  1  0.74827946  0.24248940  0.38217958  1
  O  O333  1  0.74271912  0.24228408  0.87667032  1
  O  O334  1  0.74473716  0.74594300  0.37995389  1
  O  O335  1  0.74252557  0.74622296  0.87948539  1
  O  O336  1  0.00354848  0.11923595  0.00349122  1
  O  O337  1  0.00604446  0.12065208  0.50565290  1
  O  O338  1  0.00517885  0.61972451  0.00431476  1
  O  O339  1  0.00354381  0.62526355  0.50370999  1
  O  O340  1  0.50604797  0.12350862  0.00762247  1
  O  O341  1  0.50694695  0.11894285  0.50229973  1
  O  O342  1  0.50230006  0.62194378  0.01032631  1
  O  O343  1  0.51158445  0.61960938  0.49560598  1
  O  O344  1  0.49556844  0.38095578  0.49437708  1
  O  O345  1  0.49130081  0.37385777  0.99424855  1
  O  O346  1  0.49629554  0.88072507  0.49366786  1
  O  O347  1  0.49349936  0.87556090  0.98999342  1
  O  O348  1  0.98924902  0.37075493  0.49167985  1
  O  O349  1  0.99486702  0.38127076  0.99468392  1
  O  O350  1  1.00115218  0.88193715  0.48881581  1
  O  O351  1  0.99421599  0.87932512  0.99326075  1
  O  O352  1  0.49371944  0.49497972  0.37963823  1
  O  O353  1  0.49318374  0.49139804  0.87907274  1
  O  O354  1  0.50052511  0.99337872  0.38107443  1
  O  O355  1  0.49460823  0.99018312  0.87669049  1
  O  O356  1  0.99750738  0.48723435  0.37756874  1
  O  O357  1  0.99418943  0.49507868  0.88023445  1
  O  O358  1  1.00238162  0.99168354  0.37980157  1
  O  O359  1  0.99724960  0.99266630  0.87994897  1
  O  O360  1  0.00037804  0.00533638  0.11610872  1
  O  O361  1  0.00651535  0.00528515  0.61962072  1
  O  O362  1  0.00521466  0.50684998  0.11883360  1
  O  O363  1  0.00147560  0.50498258  0.62263084  1
  O  O364  1  0.50632371  0.00639095  0.12517039  1
  O  O365  1  0.51028751  -0.00064938  0.61918888  1
  O  O366  1  0.50895174  0.50524399  0.12641096  1
  O  O367  1  0.50470459  0.50139757  0.61532467  1
  O  O368  1  0.24627855  0.38405443  0.24852448  1
  O  O369  1  0.24415323  0.37912998  0.74642691  1
  O  O370  1  0.25251441  0.88489675  0.24413453  1
  O  O371  1  0.24392331  0.88146493  0.74481800  1
  O  O372  1  0.74445526  0.37608949  0.24439668  1
  O  O373  1  0.74521966  0.37869222  0.74609313  1
  O  O374  1  0.74455434  0.87885544  0.24419710  1
  O  O375  1  0.74624465  0.87662964  0.73668919  1
  O  O376  1  0.25588360  0.11781857  0.25406060  1
  O  O377  1  0.25499365  0.11906238  0.75556696  1
  O  O378  1  0.25679252  0.62014807  0.25583677  1
  O  O379  1  0.24957057  0.61660882  0.75897763  1
  O  O380  1  0.75444510  0.11908385  0.25485093  1
  O  O381  1  0.75566182  0.12505107  0.75667118  1
  O  O382  1  0.76086267  0.62628012  0.25504117  1
  O  O383  1  0.75111349  0.61732800  0.75793323  1
  O  O384  1  0.36894023  0.12536240  0.36835650  1
  O  O385  1  0.36965105  0.11852040  0.87003434  1
  O  O386  1  0.37041851  0.62018106  0.36903556  1
  O  O387  1  0.36655746  0.61610363  0.87773054  1
  O  O388  1  0.86924404  0.12259336  0.36800943  1
  O  O389  1  0.86648273  0.12480547  0.86837188  1
  O  O390  1  0.87141100  0.62823839  0.36559473  1
  O  O391  1  0.86791353  0.61822324  0.87433758  1
  O  O392  1  0.12518424  0.38323380  0.12761633  1
  O  O393  1  0.13252934  0.37380729  0.63239355  1
  O  O394  1  0.13432679  0.87687497  0.12620914  1
  O  O395  1  0.13046417  0.88168841  0.62943912  1
  O  O396  1  0.62920897  0.38196461  0.13075324  1
  O  O397  1  0.63263139  0.37543409  0.63319434  1
  O  O398  1  0.62958528  0.87913730  0.13013386  1
  O  O399  1  0.63274150  0.88302982  0.62431075  1
  O  O400  1  0.12288600  0.24920783  0.26238182  1
  O  O401  1  0.11774807  0.25589853  0.75224453  1
  O  O402  1  0.12579336  0.75325811  0.26146505  1
  O  O403  1  0.12036501  0.75710303  0.75493480  1
  O  O404  1  0.61757052  0.25679611  0.25103409  1
  O  O405  1  0.61931556  0.25515249  0.75634078  1
  O  O406  1  0.62023087  0.75527429  0.25435558  1
  O  O407  1  0.62499058  0.75201672  0.76458850  1
  O  O408  1  0.38001080  0.24546953  0.24527139  1
  O  O409  1  0.38014481  0.24514727  0.74630035  1
  O  O410  1  0.38064395  0.74504928  0.24481723  1
  O  O411  1  0.37690953  0.74464865  0.74801244  1
  O  O412  1  0.87650467  0.24123240  0.24263572  1
  O  O413  1  0.88065741  0.24513291  0.74354630  1
  O  O414  1  0.87709337  0.74090023  0.24220930  1
  O  O415  1  0.88011969  0.75046705  0.74030551  1
  O  O416  1  0.38049734  0.49468873  0.49322822  1
  O  O417  1  0.37429075  0.49137193  0.99483132  1
  O  O418  1  0.38226557  0.99491703  0.49876752  1
  O  O419  1  0.37618830  0.99285593  0.99314534  1
  O  O420  1  0.87500925  0.48575368  0.49876365  1
  O  O421  1  0.88108684  0.49478514  0.99589100  1
  O  O422  1  0.88445188  0.99680990  0.49684663  1
  O  O423  1  0.88030885  0.99231350  0.99704206  1
  O  O424  1  0.11748581  0.00578606  0.00034554  1
  O  O425  1  0.12070328  0.00625795  0.50560070  1
  O  O426  1  0.11960441  0.50582254  0.00481319  1
  O  O427  1  0.12059732  0.50240376  0.50298509  1
  O  O428  1  0.62240466  0.00650754  0.00817927  1
  O  O429  1  0.62022493  0.00493152  0.50872464  1
  O  O430  1  0.62246512  0.49975657  0.01479807  1
  O  O431  1  0.62080892  0.50960444  0.49825344  1
  O  O432  1  0.37284132  0.36712589  0.11969691  1
  O  O433  1  0.37017992  0.37014959  0.62106394  1
  O  O434  1  0.37102266  0.86850558  0.11948265  1
  O  O435  1  0.36771678  0.87571239  0.61756159  1
  O  O436  1  0.87148414  0.37076328  0.12130202  1
  O  O437  1  0.87005699  0.36864385  0.61688103  1
  O  O438  1  0.86871332  0.86939279  0.11892938  1
  O  O439  1  0.86506555  0.86682562  0.62309896  1
  O  O440  1  0.12923616  0.13248735  0.37959670  1
  O  O441  1  0.13166512  0.12534368  0.88106871  1
  O  O442  1  0.13112761  0.63684269  0.37402677  1
  O  O443  1  0.12976845  0.63045638  0.88056906  1
  O  O444  1  0.63278304  0.12656216  0.38223495  1
  O  O445  1  0.62931746  0.13007712  0.87976466  1
  O  O446  1  0.63096167  0.63059956  0.38098447  1
  O  O447  1  0.63055495  0.63344356  0.87914811  1
