# generated using pymatgen
data_V3Zn3O8
_symmetry_space_group_name_H-M   'P 1'
_cell_length_a   17.08854530
_cell_length_b   17.09020701
_cell_length_c   17.08933241
_cell_angle_alpha   90.00402592
_cell_angle_beta   89.99115328
_cell_angle_gamma   90.00919369
_symmetry_Int_Tables_number   1
_chemical_formula_structural   V3Zn3O8
_chemical_formula_sum   'V96 Zn96 O256'
_cell_volume   4990.88430802
_cell_formula_units_Z   32
loop_
 _symmetry_equiv_pos_site_id
 _symmetry_equiv_pos_as_xyz
  1  'x, y, z'
loop_
 _atom_site_type_symbol
 _atom_site_label
 _atom_site_symmetry_multiplicity
 _atom_site_fract_x
 _atom_site_fract_y
 _atom_site_fract_z
 _atom_site_occupancy
  V  V0  1  0.24991033  0.12436433  0.87385890  1
  V  V1  1  0.12326308  0.75232450  0.37616484  1
  V  V2  1  0.50034964  -0.00041867  -0.00134059  1
  V  V3  1  0.87510074  0.75101745  0.12567660  1
  V  V4  1  0.37468841  0.24861455  0.62393203  1
  V  V5  1  0.00109647  0.87450921  0.87646138  1
  V  V6  1  0.62448081  0.62460206  0.49921114  1
  V  V7  1  0.12520660  0.87429162  0.74978223  1
  V  V8  1  0.87572928  0.24984269  0.62569302  1
  V  V9  1  0.62371207  0.50183869  0.12398126  1
  V  V10  1  0.12672441  -0.00042231  0.12611281  1
  V  V11  1  0.74920741  0.37515971  0.12383368  1
  V  V12  1  0.74890667  0.62542172  0.37466995  1
  V  V13  1  0.37563869  0.87505013  -0.00141290  1
  V  V14  1  0.75081449  0.25010361  0.00069371  1
  V  V15  1  0.74896200  0.00167391  0.24759857  1
  V  V16  1  0.12434638  0.12524457  0.49974381  1
  V  V17  1  0.62708565  -0.00090886  0.62448181  1
  V  V18  1  0.12569330  0.37626264  0.25050514  1
  V  V19  1  0.49882414  0.37552411  0.37507755  1
  V  V20  1  0.87483749  0.49983306  0.87545468  1
  V  V21  1  0.12587092  0.49946805  0.62732112  1
  V  V22  1  0.25045033  0.37520188  0.12610393  1
  V  V23  1  0.00044756  0.37468395  0.87548366  1
  V  V24  1  0.62490621  0.49883882  0.62534651  1
  V  V25  1  0.62611850  0.74881063  0.87537619  1
  V  V26  1  0.49893413  0.12506446  0.12354106  1
  V  V27  1  0.62421601  0.12395324  -0.00116868  1
  V  V28  1  0.74995983  0.25102551  0.49960064  1
  V  V29  1  0.87679025  0.00050608  0.37587555  1
  V  V30  1  0.62483665  0.87380891  0.74903803  1
  V  V31  1  0.12547872  0.12488482  -0.00101906  1
  V  V32  1  0.12468715  0.74954203  0.87653631  1
  V  V33  1  0.75084329  0.87283647  0.62350714  1
  V  V34  1  0.00008912  0.00019954  0.00102517  1
  V  V35  1  0.87432524  0.62385181  0.75016624  1
  V  V36  1  0.87610699  0.87465989  0.00103551  1
  V  V37  1  0.74977965  0.12646673  0.37364366  1
  V  V38  1  0.37337376  0.00209159  0.37312809  1
  V  V39  1  0.37525488  0.37504317  0.00080871  1
  V  V40  1  0.62554321  0.87642764  0.24944811  1
  V  V41  1  0.12523402  0.25031846  0.37588067  1
  V  V42  1  0.50060260  0.75119087  0.24933366  1
  V  V43  1  0.74893167  0.50030254  0.24872400  1
  V  V44  1  0.75001048  0.49982636  0.75102771  1
  V  V45  1  0.12379259  0.24988964  0.87429703  1
  V  V46  1  0.37374497  0.62373408  0.75076456  1
  V  V47  1  0.49925805  0.87490785  0.87450093  1
  V  V48  1  -0.00007870  0.25038085  0.24818878  1
  V  V49  1  0.50019018  0.74874478  0.74999526  1
  V  V50  1  0.62375287  0.37584919  0.24956663  1
  V  V51  1  -0.00085495  0.12571004  0.62482245  1
  V  V52  1  0.12512661  0.62555627  0.00083759  1
  V  V53  1  0.75005084  0.74943419  -0.00030284  1
  V  V54  1  0.49968818  0.62418569  0.62564633  1
  V  V55  1  0.37543526  0.37442470  0.49955324  1
  V  V56  1  0.62467588  0.25092378  0.37460887  1
  V  V57  1  0.00064774  0.12692527  0.12506168  1
  V  V58  1  0.87516907  0.37569719  0.49920185  1
  V  V59  1  0.37504124  0.25044142  0.12428921  1
  V  V60  1  -0.00003525  0.37567412  0.37500841  1
  V  V61  1  0.62456547  0.37376198  0.74997923  1
  V  V62  1  0.25069143  0.62550956  0.37587561  1
  V  V63  1  0.50032600  0.12489144  0.62534559  1
  V  V64  1  0.00000783  0.75132373  0.25186471  1
  V  V65  1  0.37446797  0.62610664  0.25121433  1
  V  V66  1  -0.00055276  0.49914085  0.00005933  1
  V  V67  1  0.62545486  0.74981290  0.37510094  1
  V  V68  1  0.87442966  0.62542888  0.25071741  1
  V  V69  1  0.49986993  0.50045024  0.00102755  1
  V  V70  1  0.24935172  0.74951082  0.00073403  1
  V  V71  1  0.00020564  0.62416397  0.62613887  1
  V  V72  1  0.87500842  0.49968854  0.37489937  1
  V  V73  1  0.37465026  0.12404316  0.74938282  1
  V  V74  1  0.50144239  0.00017317  0.49967349  1
  V  V75  1  0.24949536  0.87629302  0.12641308  1
  V  V76  1  0.12546188  0.50001685  0.12687351  1
  V  V77  1  0.12367380  -0.00135875  0.62452504  1
  V  V78  1  0.49897122  0.49893999  0.49958599  1
  V  V79  1  0.49875857  0.24964881  0.24867398  1
  V  V80  1  0.24955305  0.37485260  0.62521871  1
  V  V81  1  0.87431260  0.74918016  0.62354911  1
  V  V82  1  0.75043438  0.37501714  0.62485427  1
  V  V83  1  0.49995256  0.62606029  0.12454585  1
  V  V84  1  0.62538857  0.12542504  0.50015823  1
  V  V85  1  0.00000370  0.62451570  0.12629103  1
  V  V86  1  0.87457482  -0.00031209  0.87463254  1
  V  V87  1  -0.00024283  0.25014148  0.75035402  1
  V  V88  1  0.24913929  0.24904708  0.49908846  1
  V  V89  1  0.37509447  0.75094340  0.12483096  1
  V  V90  1  0.12527797  0.62577691  0.50195666  1
  V  V91  1  0.50086458  0.87556931  0.37461718  1
  V  V92  1  0.62401932  0.24975475  0.87333093  1
  V  V93  1  0.75227508  -0.00106601  0.75037286  1
  V  V94  1  0.37451718  0.49858273  0.87545380  1
  V  V95  1  0.37430198  0.87331275  0.50351588  1
  Zn  Zn96  1  -0.00069779  0.87680164  0.37611143  1
  Zn  Zn97  1  0.24963678  0.87236115  0.62582562  1
  Zn  Zn98  1  -0.00059715  0.49970855  0.50052707  1
  Zn  Zn99  1  0.74928383  0.75081712  0.49830423  1
  Zn  Zn100  1  0.25013611  -0.00164691  0.74878892  1
  Zn  Zn101  1  0.25109835  0.50042340  0.25132887  1
  Zn  Zn102  1  0.49920645  0.37397577  0.87373203  1
  Zn  Zn103  1  0.25054473  0.25031075  0.00039932  1
  Zn  Zn104  1  0.24824083  0.62359626  0.87565564  1
  Zn  Zn105  1  0.87626826  0.25110077  0.12483625  1
  Zn  Zn106  1  0.87461313  0.12799514  0.24740932  1
  Zn  Zn107  1  0.12538979  0.87787092  0.25201574  1
  Zn  Zn108  1  0.37302272  0.12459057  0.24838798  1
  Zn  Zn109  1  0.75132727  0.12352226  0.87362258  1
  Zn  Zn110  1  0.25106879  0.49730257  0.75166063  1
  Zn  Zn111  1  -0.00008468  0.74826719  0.75151232  1
  Zn  Zn112  1  0.87433495  0.12445104  0.75114845  1
  Zn  Zn113  1  0.74882904  0.62343076  0.87540068  1
  Zn  Zn114  1  0.24959522  0.00146101  0.24991106  1
  Zn  Zn115  1  -0.00097620  -0.00159863  0.49824795  1
  Zn  Zn116  1  0.87531114  0.37512947  0.00109621  1
  Zn  Zn117  1  0.37300629  0.75010649  0.62633841  1
  Zn  Zn118  1  0.24967311  0.12480466  0.37231188  1
  Zn  Zn119  1  0.62470430  0.62508545  -0.00139201  1
  Zn  Zn120  1  0.37449180  -0.00112228  0.87278648  1
  Zn  Zn121  1  0.25062344  0.75046245  0.50415509  1
  Zn  Zn122  1  0.87537087  0.87475418  0.49852500  1
  Zn  Zn123  1  0.37424748  0.50038929  0.37439422  1
  Zn  Zn124  1  0.50080560  0.25042647  0.74923488  1
  Zn  Zn125  1  0.74953310  0.87690188  0.12479643  1
  Zn  Zn126  1  0.12727141  0.37516015  0.75146475  1
  Zn  Zn127  1  0.62490173  -0.00047914  0.12314335  1
  Zn  Zn128  1  0.18969275  0.18663953  0.18916189  1
  Zn  Zn129  1  0.18621161  0.18761904  0.68755706  1
  Zn  Zn130  1  0.18738259  0.68908211  0.18964962  1
  Zn  Zn131  1  0.19046890  0.68912887  0.68797008  1
  Zn  Zn132  1  0.68461319  0.18690203  0.18546045  1
  Zn  Zn133  1  0.69051914  0.18535101  0.68814689  1
  Zn  Zn134  1  0.68746328  0.68841723  0.18633220  1
  Zn  Zn135  1  0.68857432  0.68582885  0.68742195  1
  Zn  Zn136  1  0.31207535  0.31192131  0.31195528  1
  Zn  Zn137  1  0.31143294  0.31114037  0.81143767  1
  Zn  Zn138  1  0.31132569  0.81392083  0.31288585  1
  Zn  Zn139  1  0.31063705  0.81019759  0.81369925  1
  Zn  Zn140  1  0.81353062  0.31328621  0.31014885  1
  Zn  Zn141  1  0.81350818  0.31347943  0.81307551  1
  Zn  Zn142  1  0.81195963  0.81483876  0.31244538  1
  Zn  Zn143  1  0.81294599  0.81239743  0.81207788  1
  Zn  Zn144  1  0.18761779  0.43870358  0.43966804  1
  Zn  Zn145  1  0.18785647  0.43668528  0.93977866  1
  Zn  Zn146  1  0.18929656  0.93760815  0.43965216  1
  Zn  Zn147  1  0.18869543  0.93844674  0.93811897  1
  Zn  Zn148  1  0.68703546  0.43816723  0.43702110  1
  Zn  Zn149  1  0.68661173  0.43638955  0.93707289  1
  Zn  Zn150  1  0.69091568  0.93690948  0.43710041  1
  Zn  Zn151  1  0.68776935  0.93590405  0.93626499  1
  Zn  Zn152  1  0.31363522  0.06172510  0.06060191  1
  Zn  Zn153  1  0.30923788  0.06122919  0.56130469  1
  Zn  Zn154  1  0.31163100  0.56252375  0.06370489  1
  Zn  Zn155  1  0.31204696  0.56138413  0.56228785  1
  Zn  Zn156  1  0.81419258  0.06561496  0.06237599  1
  Zn  Zn157  1  0.81263237  0.06336516  0.56211982  1
  Zn  Zn158  1  0.81306088  0.56334853  0.06210697  1
  Zn  Zn159  1  0.81149611  0.56265450  0.56158662  1
  Zn  Zn160  1  0.43566182  0.43939460  0.18859642  1
  Zn  Zn161  1  0.43876431  0.43559178  0.68786715  1
  Zn  Zn162  1  0.43811574  0.93836187  0.18578327  1
  Zn  Zn163  1  0.43952860  0.93890444  0.68750568  1
  Zn  Zn164  1  0.93636589  0.43572007  0.18692345  1
  Zn  Zn165  1  0.93930196  0.43662089  0.68951559  1
  Zn  Zn166  1  0.93860972  0.93726608  0.18969161  1
  Zn  Zn167  1  0.93854193  0.93535813  0.68805046  1
  Zn  Zn168  1  0.06348548  0.06471235  0.31015758  1
  Zn  Zn169  1  0.06029036  0.06232972  0.81130249  1
  Zn  Zn170  1  0.06227274  0.56321407  0.31306274  1
  Zn  Zn171  1  0.06105546  0.56284319  0.81242230  1
  Zn  Zn172  1  0.56131688  0.06390308  0.31121052  1
  Zn  Zn173  1  0.56315384  0.06175765  0.81242482  1
  Zn  Zn174  1  0.56102743  0.56284607  0.31218086  1
  Zn  Zn175  1  0.56218073  0.56219916  0.81420824  1
  Zn  Zn176  1  0.43790790  0.18723787  0.43746746  1
  Zn  Zn177  1  0.43739683  0.18789495  0.93768935  1
  Zn  Zn178  1  0.43864409  0.68862777  0.43769686  1
  Zn  Zn179  1  0.43779521  0.68718810  0.93726530  1
  Zn  Zn180  1  0.93809661  0.18666814  0.43696730  1
  Zn  Zn181  1  0.93629060  0.18590989  0.93688770  1
  Zn  Zn182  1  0.93874472  0.68506266  0.43979230  1
  Zn  Zn183  1  0.93761735  0.68614831  0.93744777  1
  Zn  Zn184  1  0.06478320  0.31234075  0.06111359  1
  Zn  Zn185  1  0.06190970  0.31346267  0.56228120  1
  Zn  Zn186  1  0.06305014  0.81310923  0.06467888  1
  Zn  Zn187  1  0.05692514  0.81367023  0.55993047  1
  Zn  Zn188  1  0.56175066  0.31355437  0.06147695  1
  Zn  Zn189  1  0.56165456  0.31166041  0.56288219  1
  Zn  Zn190  1  0.56424695  0.81442826  0.06283381  1
  Zn  Zn191  1  0.56081800  0.81078415  0.56248470  1
  O  O192  1  0.12094812  0.11991988  0.11781372  1
  O  O193  1  0.11939851  0.11736559  0.62062189  1
  O  O194  1  0.11902107  0.62070234  0.12144039  1
  O  O195  1  0.12141945  0.61839958  0.62217482  1
  O  O196  1  0.61653228  0.12401960  0.11625872  1
  O  O197  1  0.62103038  0.11927132  0.61916320  1
  O  O198  1  0.61761997  0.61955490  0.12407103  1
  O  O199  1  0.61950427  0.61805514  0.62003552  1
  O  O200  1  0.38128016  0.37584657  0.38182795  1
  O  O201  1  0.37595041  0.38286730  0.87977282  1
  O  O202  1  0.38144753  0.88200607  0.38316801  1
  O  O203  1  0.38112711  0.87536466  0.87993207  1
  O  O204  1  0.87952096  0.38056437  0.37945943  1
  O  O205  1  0.88193138  0.38211866  0.87743309  1
  O  O206  1  0.87424647  0.88762910  0.37555076  1
  O  O207  1  0.88200997  0.87894731  0.88119293  1
  O  O208  1  0.26255707  0.00055157  0.37541063  1
  O  O209  1  0.25099441  0.01291746  0.87184291  1
  O  O210  1  0.24979736  0.51389337  0.37446498  1
  O  O211  1  0.26279117  0.50144136  0.87500921  1
  O  O212  1  0.75573267  0.00673736  0.36651092  1
  O  O213  1  0.75676092  -0.00149398  0.86840994  1
  O  O214  1  0.75421300  0.50489510  0.36779267  1
  O  O215  1  0.75585379  0.50012641  0.86896859  1
  O  O216  1  0.24311118  0.49414590  0.12785708  1
  O  O217  1  0.24118290  0.49401894  0.62557373  1
  O  O218  1  0.24455729  0.99337537  0.12324315  1
  O  O219  1  0.23535265  0.99744746  0.62730961  1
  O  O220  1  0.74380292  0.49644166  0.12987523  1
  O  O221  1  0.74429594  0.49386195  0.63024468  1
  O  O222  1  0.74899411  1.00092490  0.13643280  1
  O  O223  1  0.74538131  0.99348875  0.62945535  1
  O  O224  1  0.00594701  0.37047347  0.25544890  1
  O  O225  1  0.00306231  0.36809531  0.75755351  1
  O  O226  1  0.00316646  0.86604874  0.25487425  1
  O  O227  1  0.01082496  0.87255476  0.75716763  1
  O  O228  1  0.50516913  0.37015493  0.25499874  1
  O  O229  1  0.50849763  0.37013996  0.75169511  1
  O  O230  1  0.50536617  0.86998886  0.25515997  1
  O  O231  1  0.50559893  0.86914003  0.75426604  1
  O  O232  1  0.49863117  0.13261397  0.24269615  1
  O  O233  1  0.49115565  0.12551638  0.74388909  1
  O  O234  1  0.49482061  0.63218542  0.24495544  1
  O  O235  1  0.49252812  0.62837603  0.74549091  1
  O  O236  1  1.00032962  0.13388088  0.24194193  1
  O  O237  1  0.99769279  0.13194581  0.74275554  1
  O  O238  1  0.99338040  0.63041453  0.24533864  1
  O  O239  1  0.99242976  0.62659319  0.74343838  1
  O  O240  1  0.37451522  0.25746844  0.00590745  1
  O  O241  1  0.36984959  0.25448927  0.50517005  1
  O  O242  1  0.37007602  0.75522849  0.00541830  1
  O  O243  1  0.37758436  0.76256001  0.50145476  1
  O  O244  1  0.86131970  0.25136712  -0.00047282  1
  O  O245  1  0.86872153  0.25605093  0.50471449  1
  O  O246  1  0.86889472  0.75460032  0.00519323  1
  O  O247  1  0.87217591  0.74687443  0.51284330  1
  O  O248  1  0.12975225  0.24557859  0.49543582  1
  O  O249  1  0.12742916  0.24228499  0.99189772  1
  O  O250  1  0.12480748  0.74404224  0.49126034  1
  O  O251  1  0.12955581  0.74471110  0.99632886  1
  O  O252  1  0.63056141  0.24556553  0.49461353  1
  O  O253  1  0.63136992  0.24602103  0.99176901  1
  O  O254  1  0.62439385  0.74251896  0.49294939  1
  O  O255  1  0.63454940  0.75077179  0.99498484  1
  O  O256  1  0.49510367  0.24573469  0.12938202  1
  O  O257  1  0.49332246  0.24181251  0.62515452  1
  O  O258  1  0.49452318  0.74636899  0.13000380  1
  O  O259  1  0.49814786  0.74190943  0.63263894  1
  O  O260  1  1.00120894  0.24496602  0.13004842  1
  O  O261  1  0.99488515  0.24606972  0.63010475  1
  O  O262  1  0.99465082  0.74378519  0.13073337  1
  O  O263  1  0.98987809  0.74317816  0.62730429  1
  O  O264  1  0.00563911  0.25644983  0.36954497  1
  O  O265  1  0.00440521  0.25441251  0.87066760  1
  O  O266  1  0.00907770  0.74694111  0.37031491  1
  O  O267  1  0.00651632  0.75695804  0.87537935  1
  O  O268  1  0.50580273  0.25569656  0.37016628  1
  O  O269  1  0.51308900  0.25100476  0.87377887  1
  O  O270  1  0.50601587  0.75570304  0.36849085  1
  O  O271  1  0.50589866  0.75519299  0.86971079  1
  O  O272  1  0.24244475  0.13216759  0.49849245  1
  O  O273  1  0.24500500  0.12599709  0.98893140  1
  O  O274  1  0.24514423  0.62738412  0.49136963  1
  O  O275  1  0.24303401  0.63187309  1.00048576  1
  O  O276  1  0.74365680  0.13213319  0.49453392  1
  O  O277  1  0.74314305  0.13472595  0.99865148  1
  O  O278  1  0.74149263  0.62449242  0.49221493  1
  O  O279  1  0.74949066  0.63842061  0.99913047  1
  O  O280  1  0.25742123  0.37354294  0.00792588  1
  O  O281  1  0.25580859  0.36922111  0.50541721  1
  O  O282  1  0.25577872  0.86906641  0.00511472  1
  O  O283  1  0.26346262  0.87342576  0.50158783  1
  O  O284  1  0.74819039  0.36516709  0.00567861  1
  O  O285  1  0.75463164  0.37011236  0.50493434  1
  O  O286  1  0.75667211  0.86483201  0.00103944  1
  O  O287  1  0.75351105  0.87099579  0.50769611  1
  O  O288  1  0.12559959  0.49424018  0.24418494  1
  O  O289  1  0.12815152  0.50007081  0.73880140  1
  O  O290  1  0.12755512  0.99793019  0.24168732  1
  O  O291  1  0.12406803  0.99109351  0.74213661  1
  O  O292  1  0.62933387  0.49535341  0.24431533  1
  O  O293  1  0.62947619  0.49430584  0.74466490  1
  O  O294  1  0.63421059  0.99551051  0.25105716  1
  O  O295  1  0.63032269  0.99320354  0.74366280  1
  O  O296  1  0.37683049  -0.00039950  0.26262291  1
  O  O297  1  0.37217449  0.01188556  0.74998416  1
  O  O298  1  0.37252939  0.50990110  0.25411244  1
  O  O299  1  0.37707962  0.50701190  0.75865854  1
  O  O300  1  0.86489270  0.00305708  0.25731859  1
  O  O301  1  0.86967116  -0.00189205  0.75661627  1
  O  O302  1  0.86859515  0.50558180  0.25486941  1
  O  O303  1  0.86948711  0.50397415  0.75501056  1
  O  O304  1  0.11972637  0.37076231  0.37131143  1
  O  O305  1  0.11937066  0.36874046  0.87447020  1
  O  O306  1  0.12577547  0.86247502  0.37558940  1
  O  O307  1  0.12045097  0.87108457  0.86895084  1
  O  O308  1  0.61933760  0.36998456  0.36949796  1
  O  O309  1  0.62376425  0.36556521  0.86873068  1
  O  O310  1  0.61988326  0.87035502  0.37014640  1
  O  O311  1  0.61905543  0.86826138  0.86809106  1
  O  O312  1  0.38196827  0.13213792  0.12352441  1
  O  O313  1  0.37892516  0.12814037  0.63084056  1
  O  O314  1  0.38006141  0.63202770  0.13070010  1
  O  O315  1  0.38157326  0.62231257  0.63550147  1
  O  O316  1  0.88503694  0.12911723  0.12633100  1
  O  O317  1  0.88112833  0.13251105  0.62507212  1
  O  O318  1  0.88076221  0.63030867  0.13177544  1
  O  O319  1  0.87884422  0.63010181  0.62992117  1
  O  O320  1  0.25665347  0.25723530  0.12328836  1
  O  O321  1  0.25480629  0.25438127  0.61858960  1
  O  O322  1  0.25558372  0.75523243  0.12006577  1
  O  O323  1  0.25572046  0.75446955  0.62143826  1
  O  O324  1  0.74675277  0.25575571  0.11468614  1
  O  O325  1  0.75497095  0.25570609  0.61904446  1
  O  O326  1  0.75667110  0.75171516  0.11690839  1
  O  O327  1  0.75803485  0.75370735  0.62382550  1
  O  O328  1  0.24302908  0.25008889  0.38231790  1
  O  O329  1  0.24419556  0.23877614  0.87520700  1
  O  O330  1  0.24099733  0.74116695  0.37678234  1
  O  O331  1  0.24248797  0.74722841  0.88350783  1
  O  O332  1  0.74397391  0.24706025  0.37955197  1
  O  O333  1  0.74053208  0.25004464  0.88330425  1
  O  O334  1  0.74341551  0.74304391  0.37465156  1
  O  O335  1  0.74566501  0.74974555  0.88420996  1
  O  O336  1  0.00624211  0.11930574  0.00449227  1
  O  O337  1  0.00707587  0.12382295  0.50732155  1
  O  O338  1  0.00533360  0.61949733  0.00725754  1
  O  O339  1  0.00731662  0.62096396  0.50829509  1
  O  O340  1  0.50480677  0.11940575  0.00336140  1
  O  O341  1  0.50650766  0.11986671  0.50562991  1
  O  O342  1  0.50034700  0.61917258  0.00763961  1
  O  O343  1  0.50485172  0.61883380  0.50497068  1
  O  O344  1  0.49515801  0.37906138  0.49509306  1
  O  O345  1  0.49301006  0.38304780  0.99890898  1
  O  O346  1  0.49416121  0.88113699  0.49470179  1
  O  O347  1  0.49510918  0.87888769  0.99387599  1
  O  O348  1  0.99250760  0.37620561  0.49294452  1
  O  O349  1  0.99929336  0.38182463  0.99394780  1
  O  O350  1  0.99291438  0.88060579  0.49397243  1
  O  O351  1  0.99576924  0.88071823  0.99597859  1
  O  O352  1  0.49919648  0.49326500  0.38175942  1
  O  O353  1  0.48954396  0.49850560  0.88134490  1
  O  O354  1  0.49410192  0.99512318  0.38076719  1
  O  O355  1  0.49864042  0.99233101  0.87989340  1
  O  O356  1  0.99297440  0.49407642  0.37621674  1
  O  O357  1  0.99513227  0.49462351  0.88070491  1
  O  O358  1  0.98772892  1.00218138  0.37320190  1
  O  O359  1  0.99549542  0.99404468  0.88176652  1
  O  O360  1  0.00582027  0.00554802  0.11958570  1
  O  O361  1  0.00962165  0.00559555  0.62500444  1
  O  O362  1  0.00515252  0.50526471  0.12071764  1
  O  O363  1  0.00969702  0.50432555  0.62468131  1
  O  O364  1  0.50132315  0.00639057  0.11678106  1
  O  O365  1  0.50800758  0.00568877  0.61934330  1
  O  O366  1  0.50443016  0.50633734  0.12078855  1
  O  O367  1  0.50600730  0.50410480  0.61927906  1
  O  O368  1  0.24312136  0.37744749  0.24466100  1
  O  O369  1  0.24803279  0.37685385  0.74107695  1
  O  O370  1  0.24825881  0.87756394  0.24107558  1
  O  O371  1  0.23725094  0.87728671  0.75066545  1
  O  O372  1  0.74271774  0.38104315  0.24474891  1
  O  O373  1  0.74464774  0.38034924  0.74360059  1
  O  O374  1  0.74401677  0.88638989  0.24942519  1
  O  O375  1  0.74355583  0.87890184  0.74363765  1
  O  O376  1  0.25578561  0.12050722  0.25472562  1
  O  O377  1  0.25757380  0.12429192  0.75677675  1
  O  O378  1  0.25562546  0.62618634  0.26015307  1
  O  O379  1  0.26312052  0.62211146  0.75296808  1
  O  O380  1  0.74796535  0.11753264  0.25524564  1
  O  O381  1  0.75342965  0.11444744  0.75172323  1
  O  O382  1  0.75467753  0.61959907  0.25475611  1
  O  O383  1  0.75615987  0.61646488  0.75101646  1
  O  O384  1  0.37591071  0.11288099  0.37577403  1
  O  O385  1  0.36727444  0.12594347  0.86612739  1
  O  O386  1  0.36571547  0.62726778  0.37096332  1
  O  O387  1  0.37573528  0.61583322  0.86735567  1
  O  O388  1  0.86725387  0.11841899  0.37203609  1
  O  O389  1  0.87258203  0.11505846  0.87293523  1
  O  O390  1  0.86930116  0.61963673  0.36979143  1
  O  O391  1  0.87374667  0.61813530  0.86809550  1
  O  O392  1  0.13036534  0.38075055  0.13040657  1
  O  O393  1  0.13028219  0.38433223  0.62477925  1
  O  O394  1  0.13215053  0.88155607  0.12535879  1
  O  O395  1  0.12230729  0.88190066  0.63329900  1
  O  O396  1  0.62899986  0.38177062  0.13082493  1
  O  O397  1  0.63092283  0.37932397  0.62913580  1
  O  O398  1  0.62832171  0.87890002  0.13360278  1
  O  O399  1  0.62934220  0.87955838  0.62952215  1
  O  O400  1  0.11983595  0.25706731  0.25609805  1
  O  O401  1  0.11770796  0.25099238  0.75657697  1
  O  O402  1  0.11844414  0.74933945  0.26093552  1
  O  O403  1  0.12377808  0.75853232  0.75666241  1
  O  O404  1  0.61927141  0.25651376  0.25517275  1
  O  O405  1  0.62720596  0.25405769  0.75853614  1
  O  O406  1  0.61988768  0.75586814  0.25542741  1
  O  O407  1  0.62026178  0.75440449  0.75447320  1
  O  O408  1  0.38264152  0.25005347  0.24290432  1
  O  O409  1  0.37619577  0.23889498  0.74326636  1
  O  O410  1  0.38143215  0.74643464  0.24482556  1
  O  O411  1  0.38163657  0.73912801  0.75208451  1
  O  O412  1  0.88319788  0.24887031  0.24683583  1
  O  O413  1  0.88078459  0.24913231  0.74316731  1
  O  O414  1  0.87898881  0.74429036  0.24579821  1
  O  O415  1  0.87513218  0.74380024  0.73981865  1
  O  O416  1  0.38174819  0.49258319  0.49865036  1
  O  O417  1  0.37964991  0.49604073  0.99336503  1
  O  O418  1  0.38137144  0.99299568  0.49375156  1
  O  O419  1  0.38223584  0.99229266  0.99604955  1
  O  O420  1  0.87494616  0.49342509  0.49291683  1
  O  O421  1  0.88162145  0.49977370  0.99397734  1
  O  O422  1  0.87392864  1.00122435  0.48706065  1
  O  O423  1  0.88034615  0.99391414  0.99560850  1
  O  O424  1  0.11894299  0.00559424  0.00487540  1
  O  O425  1  0.12350834  0.00507639  0.50914049  1
  O  O426  1  0.11919461  0.50605222  0.00674093  1
  O  O427  1  0.12383664  0.50612673  0.51174878  1
  O  O428  1  0.61920025  0.00566605  -0.00072173  1
  O  O429  1  0.62132605  0.00550472  0.50417612  1
  O  O430  1  0.61873365  0.50170129  0.00619243  1
  O  O431  1  0.61921999  0.50427066  0.50578779  1
  O  O432  1  0.37020207  0.37076237  0.12061061  1
  O  O433  1  0.37051207  0.36856944  0.61924727  1
  O  O434  1  0.37060523  0.86917480  0.11842732  1
  O  O435  1  0.37589270  0.87652785  0.61476479  1
  O  O436  1  0.86516335  0.37261807  0.12152052  1
  O  O437  1  0.86970825  0.37017419  0.61955191  1
  O  O438  1  0.87429384  0.86861089  0.11876095  1
  O  O439  1  0.87004365  0.86395688  0.62596591  1
  O  O440  1  0.12529175  0.13245690  0.38239096  1
  O  O441  1  0.13166388  0.12889631  0.87836350  1
  O  O442  1  0.13168407  0.63229210  0.38041487  1
  O  O443  1  0.12537729  0.63040165  0.88236244  1
  O  O444  1  0.62918852  0.13161282  0.38083743  1
  O  O445  1  0.62703370  0.13420185  0.87957024  1
  O  O446  1  0.62907263  0.63006668  0.37890838  1
  O  O447  1  0.62763938  0.63287432  0.87777662  1
