# generated using pymatgen
data_V3Zn3O8
_symmetry_space_group_name_H-M   'P 1'
_cell_length_a   17.09264205
_cell_length_b   17.09249596
_cell_length_c   17.09251412
_cell_angle_alpha   89.99391953
_cell_angle_beta   90.00482902
_cell_angle_gamma   89.99252874
_symmetry_Int_Tables_number   1
_chemical_formula_structural   V3Zn3O8
_chemical_formula_sum   'V96 Zn96 O256'
_cell_volume   4993.67901882
_cell_formula_units_Z   32
loop_
 _symmetry_equiv_pos_site_id
 _symmetry_equiv_pos_as_xyz
  1  'x, y, z'
loop_
 _atom_site_type_symbol
 _atom_site_label
 _atom_site_symmetry_multiplicity
 _atom_site_fract_x
 _atom_site_fract_y
 _atom_site_fract_z
 _atom_site_occupancy
  V  V0  1  0.87602074  0.62560751  0.24928133  1
  V  V1  1  0.75014784  0.62590291  0.37516122  1
  V  V2  1  0.25082256  0.75068606  0.49983924  1
  V  V3  1  0.87552978  0.37556421  0.49995732  1
  V  V4  1  0.00065990  0.62461011  0.12528668  1
  V  V5  1  0.37457131  0.24978715  0.12495662  1
  V  V6  1  0.75083749  0.87481237  0.62477707  1
  V  V7  1  0.75069206  -0.00058151  0.25022367  1
  V  V8  1  0.25088677  0.12538997  0.37505460  1
  V  V9  1  0.24929600  0.12387186  0.87485007  1
  V  V10  1  0.62534061  0.25049890  0.37492049  1
  V  V11  1  0.25137038  0.75061918  0.00066615  1
  V  V12  1  0.74811006  0.62546093  0.87488170  1
  V  V13  1  0.87578917  0.50027194  0.37470775  1
  V  V14  1  0.12496328  0.37709913  0.74993802  1
  V  V15  1  0.87577685  0.00013745  0.37518503  1
  V  V16  1  -0.00087753  0.25033963  0.75203044  1
  V  V17  1  0.74979549  -0.00079379  0.74994390  1
  V  V18  1  0.74979376  0.50045356  0.24923363  1
  V  V19  1  0.00038617  0.25035690  0.25031791  1
  V  V20  1  0.00143411  0.50115095  0.50087759  1
  V  V21  1  0.75081112  0.75124208  0.00108028  1
  V  V22  1  0.24998645  0.87529447  0.62489264  1
  V  V23  1  0.62552160  0.00089906  0.12365735  1
  V  V24  1  0.62441299  0.87419884  0.74938333  1
  V  V25  1  -0.00046969  0.87512205  0.87613565  1
  V  V26  1  0.00044364  0.74945567  0.24922946  1
  V  V27  1  0.50021648  -0.00022732  0.50035616  1
  V  V28  1  0.12622109  0.87573952  0.24997666  1
  V  V29  1  0.12504787  0.12612255  0.50081280  1
  V  V30  1  0.50065245  0.12427493  0.12481935  1
  V  V31  1  0.62533750  0.37559935  0.24974603  1
  V  V32  1  -0.00003297  0.12501005  0.62607937  1
  V  V33  1  0.25013462  0.37448306  0.12493655  1
  V  V34  1  0.12448472  0.25048183  0.37534331  1
  V  V35  1  0.87559500  0.87444086  0.50094915  1
  V  V36  1  0.50053928  0.25097708  0.25036041  1
  V  V37  1  -0.00072189  0.74948503  0.75030006  1
  V  V38  1  0.62428977  0.00012624  0.62437141  1
  V  V39  1  0.75030525  0.12587519  0.37569275  1
  V  V40  1  0.25062127  0.87545595  0.12510083  1
  V  V41  1  0.49967987  0.50049376  0.49859815  1
  V  V42  1  0.50095534  0.87521116  0.37500396  1
  V  V43  1  0.62205800  0.37214197  0.75237996  1
  V  V44  1  0.37520130  0.37602184  0.49927463  1
  V  V45  1  0.25067959  0.62343490  0.87276199  1
  V  V46  1  0.37489009  0.87467657  0.50060766  1
  V  V47  1  0.74627663  0.12642354  0.87657819  1
  V  V48  1  0.25107176  0.50010312  0.24889106  1
  V  V49  1  0.87529675  -0.00136959  0.87574132  1
  V  V50  1  0.12559217  0.87515532  0.75015694  1
  V  V51  1  0.12597650  0.75066068  0.37496645  1
  V  V52  1  0.37617995  0.75057614  0.12486501  1
  V  V53  1  0.00068623  0.00024042  0.50072922  1
  V  V54  1  0.24955662  0.25002271  0.00121072  1
  V  V55  1  0.74974547  0.25011159  0.49937102  1
  V  V56  1  0.12478061  0.74970491  0.87532923  1
  V  V57  1  0.50113110  0.75056022  0.24967126  1
  V  V58  1  -0.00035290  -0.00086128  0.00057997  1
  V  V59  1  0.00118119  0.87535622  0.37500370  1
  V  V60  1  0.62474235  0.50024775  0.62422104  1
  V  V61  1  0.62682643  0.62565159  0.49869322  1
  V  V62  1  0.12457999  0.62435858  0.50043940  1
  V  V63  1  0.62434172  0.74913750  0.87480208  1
  V  V64  1  0.25078852  0.62554225  0.37469722  1
  V  V65  1  0.25036904  0.25133141  0.50035999  1
  V  V66  1  0.74978255  0.37503425  0.62440139  1
  V  V67  1  0.87390583  0.25014218  0.12470164  1
  V  V68  1  0.37523502  0.49750080  0.87325587  1
  V  V69  1  0.87465630  0.24975395  0.62524449  1
  V  V70  1  0.37523482  0.00131492  0.37459896  1
  V  V71  1  0.37521755  0.12528956  0.25090619  1
  V  V72  1  0.87535342  0.75004385  0.62533576  1
  V  V73  1  0.87438239  0.12474904  0.75031714  1
  V  V74  1  0.37464719  -0.00129613  0.87552520  1
  V  V75  1  0.87489310  0.62507638  0.74912660  1
  V  V76  1  0.37663437  0.62595718  0.24878250  1
  V  V77  1  0.12506218  -0.00007125  0.12528660  1
  V  V78  1  0.75056276  0.37516067  0.12301501  1
  V  V79  1  0.37442224  0.25104509  0.62659986  1
  V  V80  1  0.37604492  0.50027442  0.37463789  1
  V  V81  1  0.00022865  0.12447579  0.12504230  1
  V  V82  1  0.49896092  0.87488386  0.87525244  1
  V  V83  1  0.87565965  0.49767388  0.87752115  1
  V  V84  1  0.12569614  0.00013577  0.62630743  1
  V  V85  1  0.12410384  0.62365610  0.00070205  1
  V  V86  1  0.49935496  0.62596781  0.62487501  1
  V  V87  1  0.87550182  0.12481439  0.25058528  1
  V  V88  1  0.00047169  0.37452123  0.37464896  1
  V  V89  1  0.12600876  0.49986991  0.12507833  1
  V  V90  1  0.12372562  0.24935531  0.87603144  1
  V  V91  1  0.49915418  0.12597196  0.62538421  1
  V  V92  1  0.74952908  0.50010310  0.74960340  1
  V  V93  1  0.49904050  0.74828139  0.74884580  1
  V  V94  1  0.50087200  0.49990705  0.00020163  1
  V  V95  1  0.62578523  0.87496904  0.25070182  1
  Zn  Zn96  1  0.49763159  0.37007157  0.87596855  1
  Zn  Zn97  1  0.37372248  0.62474181  0.74630016  1
  Zn  Zn98  1  0.61969536  0.24875757  0.87831162  1
  Zn  Zn99  1  0.37722315  0.87454718  0.00128866  1
  Zn  Zn100  1  0.74791921  0.25035634  -0.00112359  1
  Zn  Zn101  1  0.75287079  0.87422641  0.12570372  1
  Zn  Zn102  1  0.50244626  0.62563853  0.12394580  1
  Zn  Zn103  1  0.37449126  0.74883317  0.62591832  1
  Zn  Zn104  1  0.74998834  0.75022828  0.49882374  1
  Zn  Zn105  1  0.62731677  0.75094504  0.37553563  1
  Zn  Zn106  1  0.37394743  0.12544630  0.75072521  1
  Zn  Zn107  1  0.50085413  -0.00043469  -0.00028657  1
  Zn  Zn108  1  0.50083931  0.37551008  0.37425552  1
  Zn  Zn109  1  0.37623784  0.37340228  -0.00074820  1
  Zn  Zn110  1  0.12598132  0.50157453  0.62597227  1
  Zn  Zn111  1  0.12551748  0.37517021  0.25018990  1
  Zn  Zn112  1  0.24889470  0.37867484  0.62488218  1
  Zn  Zn113  1  0.87529376  0.75129336  0.12426614  1
  Zn  Zn114  1  0.25017813  -0.00030182  0.74999150  1
  Zn  Zn115  1  0.62528806  0.12593340  0.49979715  1
  Zn  Zn116  1  0.62369459  0.50193669  0.12410730  1
  Zn  Zn117  1  0.24963273  0.49984965  0.74681382  1
  Zn  Zn118  1  -0.00111875  0.37371636  0.87864562  1
  Zn  Zn119  1  0.87541248  0.87400782  0.00289368  1
  Zn  Zn120  1  0.62264921  0.12761302  -0.00054525  1
  Zn  Zn121  1  0.87596199  0.37223581  -0.00100784  1
  Zn  Zn122  1  -0.00060353  0.49736928  0.00155760  1
  Zn  Zn123  1  0.12339088  0.12508478  0.00128964  1
  Zn  Zn124  1  0.00121341  0.62364034  0.62554981  1
  Zn  Zn125  1  0.62375781  0.62502599  0.00221608  1
  Zn  Zn126  1  0.49846373  0.24937295  0.75314374  1
  Zn  Zn127  1  0.25048286  0.00072151  0.24933259  1
  Zn  Zn128  1  0.18690200  0.18696643  0.18852462  1
  Zn  Zn129  1  0.18770989  0.18947776  0.68960320  1
  Zn  Zn130  1  0.18836219  0.68771846  0.18703327  1
  Zn  Zn131  1  0.18661880  0.68810920  0.68596774  1
  Zn  Zn132  1  0.68738599  0.18777464  0.18838744  1
  Zn  Zn133  1  0.68637138  0.18742181  0.68787013  1
  Zn  Zn134  1  0.68533749  0.68625370  0.18559395  1
  Zn  Zn135  1  0.68760884  0.68791910  0.68655313  1
  Zn  Zn136  1  0.31293872  0.31376229  0.31205711  1
  Zn  Zn137  1  0.30953618  0.31313298  0.81278881  1
  Zn  Zn138  1  0.31399142  0.81360261  0.31177874  1
  Zn  Zn139  1  0.31333329  0.81180065  0.81100662  1
  Zn  Zn140  1  0.81255368  0.31315564  0.31120202  1
  Zn  Zn141  1  0.80985730  0.31242521  0.81143412  1
  Zn  Zn142  1  0.81293996  0.81134392  0.31246996  1
  Zn  Zn143  1  0.81248428  0.81239957  0.81348570  1
  Zn  Zn144  1  0.18819036  0.43784118  0.43750334  1
  Zn  Zn145  1  0.18712775  0.43589806  0.93816196  1
  Zn  Zn146  1  0.18849952  0.93893958  0.43808497  1
  Zn  Zn147  1  0.18708969  0.93711628  0.93992185  1
  Zn  Zn148  1  0.68730969  0.43822075  0.43601095  1
  Zn  Zn149  1  0.68665547  0.43799538  0.93744759  1
  Zn  Zn150  1  0.68764058  0.93783503  0.43816555  1
  Zn  Zn151  1  0.68687068  0.93628216  0.93798777  1
  Zn  Zn152  1  0.31250051  0.06241971  0.06118155  1
  Zn  Zn153  1  0.31266845  0.06276100  0.56182405  1
  Zn  Zn154  1  0.31469323  0.56278776  0.06112462  1
  Zn  Zn155  1  0.31115430  0.56168738  0.56370046  1
  Zn  Zn156  1  0.81302135  0.06181910  0.06143328  1
  Zn  Zn157  1  0.81225397  0.06228337  0.56219929  1
  Zn  Zn158  1  0.81162592  0.56469407  0.06252731  1
  Zn  Zn159  1  0.81315077  0.56315131  0.56234389  1
  Zn  Zn160  1  0.43771455  0.43645130  0.18570428  1
  Zn  Zn161  1  0.43766140  0.43865542  0.68705012  1
  Zn  Zn162  1  0.43816479  0.93741406  0.18837618  1
  Zn  Zn163  1  0.43595148  0.93732553  0.68909177  1
  Zn  Zn164  1  0.93801308  0.43753164  0.18727085  1
  Zn  Zn165  1  0.93954559  0.43800387  0.68832317  1
  Zn  Zn166  1  0.93691446  0.93536136  0.18614621  1
  Zn  Zn167  1  0.93821903  0.93706916  0.68890458  1
  Zn  Zn168  1  0.06358615  0.06276618  0.31165711  1
  Zn  Zn169  1  0.06278070  0.06204071  0.81321133  1
  Zn  Zn170  1  0.06368792  0.56200698  0.31244940  1
  Zn  Zn171  1  0.06029364  0.56216818  0.81315296  1
  Zn  Zn172  1  0.56354578  0.06323220  0.31176407  1
  Zn  Zn173  1  0.56097424  0.06085478  0.81043174  1
  Zn  Zn174  1  0.56339028  0.56347260  0.31196534  1
  Zn  Zn175  1  0.56116702  0.56189151  0.81306384  1
  Zn  Zn176  1  0.43856803  0.18882269  0.43826985  1
  Zn  Zn177  1  0.43787732  0.18600378  0.93956686  1
  Zn  Zn178  1  0.43874976  0.68838813  0.43697307  1
  Zn  Zn179  1  0.43696397  0.68570893  0.93733007  1
  Zn  Zn180  1  0.93771572  0.18785682  0.43785165  1
  Zn  Zn181  1  0.93485142  0.18701104  0.93991250  1
  Zn  Zn182  1  0.93781229  0.68786165  0.43738013  1
  Zn  Zn183  1  0.93646550  0.68501178  0.93804615  1
  Zn  Zn184  1  0.06209503  0.31444543  0.06130256  1
  Zn  Zn185  1  0.06182783  0.31375788  0.56412808  1
  Zn  Zn186  1  0.06335718  0.81209984  0.06230291  1
  Zn  Zn187  1  0.06294903  0.81117973  0.56355276  1
  Zn  Zn188  1  0.56386625  0.31291368  0.05995615  1
  Zn  Zn189  1  0.56144334  0.31333334  0.56202534  1
  Zn  Zn190  1  0.56327910  0.81433544  0.06183307  1
  Zn  Zn191  1  0.56315223  0.81062474  0.56178072  1
  O  O192  1  0.11784863  0.11839716  0.12503085  1
  O  O193  1  0.11943503  0.12100853  0.62047314  1
  O  O194  1  0.12137130  0.61971314  0.12002655  1
  O  O195  1  0.12194844  0.62441004  0.61591524  1
  O  O196  1  0.61986711  0.11482147  0.12870681  1
  O  O197  1  0.61604772  0.11950789  0.62361038  1
  O  O198  1  0.62041245  0.61934919  0.12085731  1
  O  O199  1  0.62075005  0.61841816  0.61926993  1
  O  O200  1  0.37691964  0.38224652  0.38094478  1
  O  O201  1  0.37376135  0.38601297  0.87622689  1
  O  O202  1  0.38073340  0.88155239  0.38054171  1
  O  O203  1  0.37948739  0.88348473  0.87535719  1
  O  O204  1  0.88020764  0.38016937  0.38058659  1
  O  O205  1  0.87252526  0.38608238  0.87422552  1
  O  O206  1  0.88200563  0.88128540  0.38023361  1
  O  O207  1  0.88241268  0.88196186  0.87459214  1
  O  O208  1  0.25705532  0.00797968  0.37487345  1
  O  O209  1  0.25598107  0.00737309  0.87563821  1
  O  O210  1  0.25622037  0.50628554  0.36921582  1
  O  O211  1  0.25737882  0.50896156  0.87596396  1
  O  O212  1  0.75686361  0.00591448  0.37074588  1
  O  O213  1  0.75434930  0.00594535  0.86854052  1
  O  O214  1  0.75733553  0.50493323  0.36916317  1
  O  O215  1  0.75647598  0.50544598  0.86882251  1
  O  O216  1  0.24649993  0.49531513  0.12952629  1
  O  O217  1  0.24514226  0.49681031  0.62936068  1
  O  O218  1  0.24367218  0.99411183  0.12593922  1
  O  O219  1  0.24308873  0.99477853  0.62577505  1
  O  O220  1  0.75122054  0.49072990  0.13145746  1
  O  O221  1  0.74516865  0.49433012  0.62974393  1
  O  O222  1  0.74160009  1.00126911  0.13226264  1
  O  O223  1  0.74515667  0.99525888  0.63075090  1
  O  O224  1  0.00101566  0.36800640  0.25745695  1
  O  O225  1  0.00709396  0.36764169  0.75312182  1
  O  O226  1  0.00642075  0.86976824  0.25637035  1
  O  O227  1  0.00592370  0.86943927  0.75644203  1
  O  O228  1  0.50682762  0.36834075  0.25050088  1
  O  O229  1  0.51183827  0.37471579  0.74941937  1
  O  O230  1  0.50586084  0.87043530  0.25630770  1
  O  O231  1  0.50584406  0.86888036  0.75441992  1
  O  O232  1  0.49453279  0.13149268  0.24505926  1
  O  O233  1  0.49745066  0.12573755  0.73522593  1
  O  O234  1  0.49310117  0.63233584  0.24975326  1
  O  O235  1  0.50053209  0.63101778  0.74256666  1
  O  O236  1  0.99426135  0.13012322  0.24561851  1
  O  O237  1  0.99407227  0.12979424  0.74494502  1
  O  O238  1  0.99599066  0.63025327  0.24588094  1
  O  O239  1  0.99315306  0.63257929  0.74951777  1
  O  O240  1  0.36744687  0.25013008  0.00801467  1
  O  O241  1  0.37047127  0.25518369  0.50746438  1
  O  O242  1  0.36843445  0.75068378  0.00609549  1
  O  O243  1  0.36828938  0.75762609  0.49994746  1
  O  O244  1  0.86858125  0.25108427  0.00926698  1
  O  O245  1  0.87052921  0.25609262  0.50561076  1
  O  O246  1  0.86355120  0.75041999  -0.00095272  1
  O  O247  1  0.87520563  0.75764272  0.50657038  1
  O  O248  1  0.12932185  0.24467315  0.49556865  1
  O  O249  1  0.13129866  0.24727118  0.99390305  1
  O  O250  1  0.13045890  0.74579118  0.49321765  1
  O  O251  1  0.13132899  0.74372677  0.99406768  1
  O  O252  1  0.63235881  0.24967927  0.49427600  1
  O  O253  1  0.63087267  0.24551079  0.99658330  1
  O  O254  1  0.62861437  0.74152703  0.49717950  1
  O  O255  1  0.63358195  0.74979538  0.99221952  1
  O  O256  1  0.49456967  0.24460316  0.13108509  1
  O  O257  1  0.49058356  0.24172237  0.62248383  1
  O  O258  1  0.49366184  0.75094525  0.13181290  1
  O  O259  1  0.49976082  0.74366631  0.63128360  1
  O  O260  1  0.99454303  0.24443807  0.13108149  1
  O  O261  1  0.99320673  0.24354262  0.63045718  1
  O  O262  1  1.00159258  0.74242096  0.13212466  1
  O  O263  1  0.99291148  0.74994969  0.63289770  1
  O  O264  1  0.00463051  0.25459393  0.37063546  1
  O  O265  1  0.00466672  0.24808661  0.86886321  1
  O  O266  1  0.00657971  0.75630788  0.36962025  1
  O  O267  1  0.00563246  0.75430185  0.87031854  1
  O  O268  1  0.50685027  0.25119603  0.36870375  1
  O  O269  1  0.50081644  0.25145265  0.87021248  1
  O  O270  1  0.50160719  0.75819207  0.36799341  1
  O  O271  1  0.50482628  0.75450240  0.86908548  1
  O  O272  1  0.24422887  0.13152818  0.49485367  1
  O  O273  1  0.24788458  0.13056049  0.98982572  1
  O  O274  1  0.24511887  0.63116943  0.49285339  1
  O  O275  1  0.24463613  0.63020262  0.99105734  1
  O  O276  1  0.75009825  0.13208128  0.49385312  1
  O  O277  1  0.74874302  0.12329564  0.98674620  1
  O  O278  1  0.74474105  0.62458811  0.49314123  1
  O  O279  1  0.74815203  0.63446766  0.99257951  1
  O  O280  1  0.25158291  0.36723330  0.00711302  1
  O  O281  1  0.25676875  0.36792267  0.50095322  1
  O  O282  1  0.25100153  0.86710495  0.00695718  1
  O  O283  1  0.25469085  0.87014025  0.50468308  1
  O  O284  1  0.75145690  0.37555078  0.01294571  1
  O  O285  1  0.75634829  0.37037647  0.50507237  1
  O  O286  1  0.75151582  0.86311742  -0.00058080  1
  O  O287  1  0.75801386  0.87572309  0.50700713  1
  O  O288  1  0.13384223  0.49980039  0.24381174  1
  O  O289  1  0.12374462  0.48872206  0.75134179  1
  O  O290  1  0.12635871  0.99316475  0.24405709  1
  O  O291  1  0.12529409  0.99294238  0.74357409  1
  O  O292  1  0.63237226  0.49308775  0.24970895  1
  O  O293  1  0.63014444  0.49253998  0.74385779  1
  O  O294  1  0.63074872  0.99541354  0.24312711  1
  O  O295  1  0.63000269  0.99330059  0.74310804  1
  O  O296  1  0.37442637  0.00758436  0.25734137  1
  O  O297  1  0.37133160  0.00224455  0.76223422  1
  O  O298  1  0.37048364  0.50588603  0.25462581  1
  O  O299  1  0.37324279  0.50235652  0.76099255  1
  O  O300  1  0.87146450  0.00545272  0.25661078  1
  O  O301  1  0.86990992  0.00550823  0.75475144  1
  O  O302  1  0.87029211  0.50574691  0.25614597  1
  O  O303  1  0.86870757  0.50444281  0.75659187  1
  O  O304  1  0.11851374  0.36783260  0.37412410  1
  O  O305  1  0.12351949  0.36772907  0.86657550  1
  O  O306  1  0.12025319  0.87073943  0.37082494  1
  O  O307  1  0.12002080  0.86902378  0.87025178  1
  O  O308  1  0.62505476  0.36823634  0.36773874  1
  O  O309  1  0.62623257  0.37438985  0.86170149  1
  O  O310  1  0.61824481  0.87620386  0.36884034  1
  O  O311  1  0.61933103  0.87032546  0.86753367  1
  O  O312  1  0.37975853  0.12970760  0.13150976  1
  O  O313  1  0.38223645  0.13313568  0.62436264  1
  O  O314  1  0.37568065  0.63282243  0.13213866  1
  O  O315  1  0.38367733  0.62721905  0.62591838  1
  O  O316  1  0.87999802  0.12929406  0.13220238  1
  O  O317  1  0.87998727  0.12956904  0.63048630  1
  O  O318  1  0.88226809  0.62654228  0.13240708  1
  O  O319  1  0.87594770  0.63160473  0.63201975  1
  O  O320  1  0.25461285  0.25364978  0.12110142  1
  O  O321  1  0.25998980  0.24891983  0.61861781  1
  O  O322  1  0.25555696  0.75550272  0.12007329  1
  O  O323  1  0.25074406  0.75725026  0.61727840  1
  O  O324  1  0.75600253  0.25961568  0.12852254  1
  O  O325  1  0.75584451  0.25458666  0.61955610  1
  O  O326  1  0.75044240  0.75067226  0.11285969  1
  O  O327  1  0.75737750  0.75784873  0.62432243  1
  O  O328  1  0.24479298  0.24476807  0.38049104  1
  O  O329  1  0.24561296  0.24138130  0.88055621  1
  O  O330  1  0.24514381  0.74553384  0.37962049  1
  O  O331  1  0.24509461  0.74195422  0.87971905  1
  O  O332  1  0.74622060  0.24530911  0.37989588  1
  O  O333  1  0.74861145  0.23655049  0.87294611  1
  O  O334  1  0.74915264  0.74141319  0.37777140  1
  O  O335  1  0.74424205  0.74529185  0.88047252  1
  O  O336  1  0.00033883  0.11757851  0.00759826  1
  O  O337  1  0.00503046  0.12021014  0.50617790  1
  O  O338  1  0.00715077  0.62321713  0.00661750  1
  O  O339  1  0.00668699  0.61895735  0.49912219  1
  O  O340  1  0.50261383  0.11987424  0.01004196  1
  O  O341  1  0.50033352  0.11932602  0.51075881  1
  O  O342  1  0.50086737  0.61372803  0.00022672  1
  O  O343  1  0.50641506  0.61961293  0.50431559  1
  O  O344  1  0.49362176  0.38281664  0.49819747  1
  O  O345  1  0.49692178  0.38553055  0.99684586  1
  O  O346  1  0.49505929  0.88065850  0.49529941  1
  O  O347  1  0.49808043  0.87853204  0.99032174  1
  O  O348  1  0.99404955  0.37947005  0.49428028  1
  O  O349  1  0.99424339  0.37956606  0.99659982  1
  O  O350  1  0.99606383  0.88099437  0.49464510  1
  O  O351  1  0.99995342  0.88043083  0.99269803  1
  O  O352  1  0.49320833  0.49943174  0.38104226  1
  O  O353  1  0.49008482  0.49896621  0.88143858  1
  O  O354  1  0.49481508  0.99574039  0.38049460  1
  O  O355  1  0.49061003  0.99458081  0.87388191  1
  O  O356  1  0.99469532  0.49419775  0.37976497  1
  O  O357  1  0.98626255  0.49942073  0.87601930  1
  O  O358  1  0.99562783  0.99555914  0.38107532  1
  O  O359  1  0.99505879  0.99524677  0.88018702  1
  O  O360  1  0.00519661  0.00509482  0.12080147  1
  O  O361  1  0.00520914  0.00561382  0.62002441  1
  O  O362  1  0.00752065  0.50733119  0.12577894  1
  O  O363  1  0.00212842  0.50221708  0.61600661  1
  O  O364  1  0.51013919  0.00533280  0.12726329  1
  O  O365  1  0.50346445  0.00723420  0.62043053  1
  O  O366  1  0.49892331  0.50099974  0.11273983  1
  O  O367  1  0.50576252  0.50610061  0.61809578  1
  O  O368  1  0.24898201  0.38223206  0.24364791  1
  O  O369  1  0.23651631  0.37515936  0.74876707  1
  O  O370  1  0.24349633  0.87670136  0.24387184  1
  O  O371  1  0.24223901  0.87531406  0.74359335  1
  O  O372  1  0.74605681  0.38048015  0.24266753  1
  O  O373  1  0.74201809  0.38021183  0.74260464  1
  O  O374  1  0.74414788  0.88246070  0.25086760  1
  O  O375  1  0.74439728  0.88039391  0.74498371  1
  O  O376  1  0.25721032  0.12446368  0.25766655  1
  O  O377  1  0.25058006  0.12368534  0.76314093  1
  O  O378  1  0.25654191  0.62058567  0.25566097  1
  O  O379  1  0.24890984  0.62468450  0.76334287  1
  O  O380  1  0.75673252  0.11961160  0.25659063  1
  O  O381  1  0.75486616  0.11849408  0.75559470  1
  O  O382  1  0.75626518  0.61976132  0.25486527  1
  O  O383  1  0.75472455  0.61937514  0.75450476  1
  O  O384  1  0.37043709  0.12111229  0.37103971  1
  O  O385  1  0.36577283  0.11682942  0.87395621  1
  O  O386  1  0.36941803  0.62011057  0.36934987  1
  O  O387  1  0.36450522  0.61662248  0.87382889  1
  O  O388  1  0.87100872  0.11959652  0.37038655  1
  O  O389  1  0.86648762  0.11847691  0.86856334  1
  O  O390  1  0.87095054  0.61888016  0.36931131  1
  O  O391  1  0.86834037  0.61701427  0.86803864  1
  O  O392  1  0.13217669  0.38166293  0.12775422  1
  O  O393  1  0.12545077  0.37431071  0.63727604  1
  O  O394  1  0.13041754  0.87993599  0.13113692  1
  O  O395  1  0.12995611  0.88070430  0.62986953  1
  O  O396  1  0.63589671  0.37624901  0.13191154  1
  O  O397  1  0.63041433  0.38062460  0.63110163  1
  O  O398  1  0.62664885  0.88598452  0.13216381  1
  O  O399  1  0.63048181  0.88069019  0.62999328  1
  O  O400  1  0.11784353  0.25042653  0.25799569  1
  O  O401  1  0.11856718  0.25655318  0.75590824  1
  O  O402  1  0.12056987  0.75533120  0.25628023  1
  O  O403  1  0.11927453  0.75534147  0.75617146  1
  O  O404  1  0.61997394  0.25566595  0.25561221  1
  O  O405  1  0.62362584  0.26167946  0.74887586  1
  O  O406  1  0.61906684  0.75760872  0.25158864  1
  O  O407  1  0.61988949  0.75582668  0.75488638  1
  O  O408  1  0.38044418  0.24453227  0.24533166  1
  O  O409  1  0.37478339  0.24923766  0.73686085  1
  O  O410  1  0.38077222  0.74544636  0.24489158  1
  O  O411  1  0.38355266  0.74679483  0.74754958  1
  O  O412  1  0.88094022  0.24370402  0.24576822  1
  O  O413  1  0.87874698  0.24442810  0.74394798  1
  O  O414  1  0.88363610  0.74285689  0.25016582  1
  O  O415  1  0.87978604  0.74493521  0.74585454  1
  O  O416  1  0.38017733  0.49556895  0.49380941  1
  O  O417  1  0.38182203  0.49885137  0.98987994  1
  O  O418  1  0.38098611  0.99481042  0.49444366  1
  O  O419  1  0.37640989  0.99754952  0.98715461  1
  O  O420  1  0.88038168  0.49421423  0.49418944  1
  O  O421  1  0.87359673  0.50050600  0.98728212  1
  O  O422  1  0.88179058  0.99495606  0.49539071  1
  O  O423  1  0.88181318  0.99764928  0.99288145  1
  O  O424  1  0.11741072  0.00158358  0.00728245  1
  O  O425  1  0.11932441  0.00642834  0.50587158  1
  O  O426  1  0.12498832  0.50706993  0.00675771  1
  O  O427  1  0.11844350  0.50680947  0.49842857  1
  O  O428  1  0.62553917  0.00115343  0.01339805  1
  O  O429  1  0.61812013  0.00230868  0.50700755  1
  O  O430  1  0.61329477  0.50129644  -0.00105767  1
  O  O431  1  0.62015589  0.50447855  0.50525476  1
  O  O432  1  0.36726181  0.36671526  0.12412294  1
  O  O433  1  0.37499887  0.36555973  0.61874855  1
  O  O434  1  0.36868677  0.86925056  0.12446003  1
  O  O435  1  0.36817457  0.87501151  0.61763503  1
  O  O436  1  0.86497475  0.36924760  0.12736887  1
  O  O437  1  0.86952687  0.36952450  0.62028896  1
  O  O438  1  0.87121832  0.87002999  0.12165565  1
  O  O439  1  0.87036789  0.87099549  0.62073502  1
  O  O440  1  0.12965846  0.13026913  0.38168250  1
  O  O441  1  0.13367600  0.12954441  0.87635719  1
  O  O442  1  0.13162729  0.63159028  0.37942908  1
  O  O443  1  0.13225600  0.62953451  0.87982446  1
  O  O444  1  0.63276328  0.13184320  0.37625890  1
  O  O445  1  0.63562685  0.12280532  0.87287907  1
  O  O446  1  0.63297441  0.62510478  0.38105456  1
  O  O447  1  0.63178721  0.63173380  0.87430654  1
