# generated using pymatgen
data_V3Zn3O8
_symmetry_space_group_name_H-M   'P 1'
_cell_length_a   17.08858255
_cell_length_b   17.08747544
_cell_length_c   17.08836082
_cell_angle_alpha   89.99484024
_cell_angle_beta   89.98363770
_cell_angle_gamma   89.99794667
_symmetry_Int_Tables_number   1
_chemical_formula_structural   V3Zn3O8
_chemical_formula_sum   'V96 Zn96 O256'
_cell_volume   4989.81368534
_cell_formula_units_Z   32
loop_
 _symmetry_equiv_pos_site_id
 _symmetry_equiv_pos_as_xyz
  1  'x, y, z'
loop_
 _atom_site_type_symbol
 _atom_site_label
 _atom_site_symmetry_multiplicity
 _atom_site_fract_x
 _atom_site_fract_y
 _atom_site_fract_z
 _atom_site_occupancy
  V  V0  1  0.49941574  0.24861262  0.24871210  1
  V  V1  1  0.25078741  0.12474581  0.37391287  1
  V  V2  1  0.25063541  0.62469797  0.87548873  1
  V  V3  1  0.62394062  0.87375365  0.74993714  1
  V  V4  1  0.75058376  -0.00097628  0.24962890  1
  V  V5  1  0.00061758  0.62501897  0.62550767  1
  V  V6  1  0.87607783  0.87560991  -0.00057120  1
  V  V7  1  0.50054372  0.50047181  -0.00015149  1
  V  V8  1  0.50036247  0.12529286  0.62357609  1
  V  V9  1  0.74900681  0.49980509  0.74889222  1
  V  V10  1  0.62507676  0.12360620  0.00043203  1
  V  V11  1  0.12535590  0.12451807  0.50228970  1
  V  V12  1  0.62404692  0.50029705  0.12398349  1
  V  V13  1  0.24929877  0.87425890  0.12446194  1
  V  V14  1  0.75063072  0.87597389  0.12607697  1
  V  V15  1  0.62419159  0.62547450  0.49947980  1
  V  V16  1  0.00009306  0.24884160  0.75126562  1
  V  V17  1  0.00056500  0.87497131  0.87515819  1
  V  V18  1  0.25032712  0.24981381  0.00039369  1
  V  V19  1  0.37363406  0.87455140  0.49941789  1
  V  V20  1  0.12447899  0.37615444  0.25044529  1
  V  V21  1  -0.00120280  0.49931284  0.50027727  1
  V  V22  1  0.62479804  0.24967860  0.87399176  1
  V  V23  1  0.87539279  0.75003151  0.12536486  1
  V  V24  1  0.62534994  0.62469454  -0.00049301  1
  V  V25  1  0.49913630  0.87539649  0.37515387  1
  V  V26  1  0.24896055  0.87494683  0.62511430  1
  V  V27  1  0.12453312  0.25025349  0.37489564  1
  V  V28  1  0.50062794  -0.00151462  -0.00036264  1
  V  V29  1  0.25113495  0.37399248  0.62511352  1
  V  V30  1  0.37441472  0.37404344  0.00007905  1
  V  V31  1  0.12472887  0.87386908  0.24969180  1
  V  V32  1  0.87501451  0.62536763  0.75005535  1
  V  V33  1  0.49909710  0.49945943  0.49911722  1
  V  V34  1  0.37536381  0.62490774  0.24978740  1
  V  V35  1  0.74959731  0.50105336  0.25046322  1
  V  V36  1  -0.00022695  0.75000870  0.25013187  1
  V  V37  1  0.12505257  0.75077484  0.87488988  1
  V  V38  1  -0.00032599  0.62510073  0.12521639  1
  V  V39  1  0.74983609  0.62591927  0.87515258  1
  V  V40  1  0.00078721  0.75128376  0.75023387  1
  V  V41  1  0.12484805  0.74892179  0.37629932  1
  V  V42  1  0.25014037  0.49977506  0.75062075  1
  V  V43  1  0.50013704  0.12467357  0.12498582  1
  V  V44  1  0.87433279  0.25020433  0.12520138  1
  V  V45  1  -0.00072015  0.50016211  -0.00022642  1
  V  V46  1  0.87609673  0.12606098  0.25012357  1
  V  V47  1  0.37550149  0.62511466  0.74942034  1
  V  V48  1  0.12560011  0.62519903  0.00062983  1
  V  V49  1  0.75078654  0.25111098  0.50066486  1
  V  V50  1  0.12488586  0.12525198  0.00200026  1
  V  V51  1  0.00092724  0.00022697  0.00009705  1
  V  V52  1  0.37517206  0.24936279  0.12418145  1
  V  V53  1  0.75000398  0.74987311  -0.00026739  1
  V  V54  1  -0.00025188  0.37656115  0.87550684  1
  V  V55  1  0.75035183  0.24956659  -0.00026973  1
  V  V56  1  0.87531374  0.50040174  0.87511381  1
  V  V57  1  0.37559556  0.12466676  0.74967176  1
  V  V58  1  0.87307630  0.62393511  0.25061256  1
  V  V59  1  0.49831470  0.62475177  0.62481188  1
  V  V60  1  0.25124848  0.75019986  0.00028667  1
  V  V61  1  0.37489047  0.49914671  0.37493759  1
  V  V62  1  0.49904879  0.75007677  0.24902361  1
  V  V63  1  0.37440870  0.25075332  0.62412336  1
  V  V64  1  0.24989111  -0.00005802  0.74991402  1
  V  V65  1  0.24929366  0.49951079  0.25028133  1
  V  V66  1  0.75082250  0.87491886  0.62406806  1
  V  V67  1  0.62459994  0.75001043  0.37578086  1
  V  V68  1  0.62428379  0.12515541  0.49949338  1
  V  V69  1  0.37592158  0.87427982  -0.00141936  1
  V  V70  1  0.75050036  0.12537415  0.37514962  1
  V  V71  1  0.62527441  0.49943850  0.62534214  1
  V  V72  1  -0.00097284  0.37581812  0.37662545  1
  V  V73  1  0.50038788  0.00062725  0.49892246  1
  V  V74  1  0.12446763  0.50036831  0.62638986  1
  V  V75  1  -0.00101839  0.25039489  0.24995798  1
  V  V76  1  0.49984361  0.75025708  0.74890893  1
  V  V77  1  0.75136608  0.00097396  0.75039300  1
  V  V78  1  0.24904805  0.62495046  0.37593095  1
  V  V79  1  0.87483854  0.75031965  0.62371451  1
  V  V80  1  0.50096963  0.24949512  0.74987870  1
  V  V81  1  0.12497746  0.37500876  0.75142338  1
  V  V82  1  0.87592944  0.00015754  0.37579473  1
  V  V83  1  0.25186509  0.12520063  0.87558807  1
  V  V84  1  0.62493417  0.25014183  0.37428295  1
  V  V85  1  0.12485222  0.50005998  0.12630905  1
  V  V86  1  -0.00104762  -0.00042002  0.50092117  1
  V  V87  1  0.24951191  -0.00047311  0.24948566  1
  V  V88  1  0.49886423  0.37516274  0.37430568  1
  V  V89  1  0.37542348  0.49956751  0.87547318  1
  V  V90  1  0.87511438  0.25039701  0.62522276  1
  V  V91  1  0.74946535  0.37420185  0.12403177  1
  V  V92  1  0.75097763  0.12448818  0.87456675  1
  V  V93  1  0.62469083  0.37513470  0.24910143  1
  V  V94  1  0.50083599  0.37389689  0.87402113  1
  V  V95  1  0.74942318  0.75010362  0.49943304  1
  Zn  Zn96  1  0.62565195  0.00115658  0.62364674  1
  Zn  Zn97  1  0.87804203  0.12373853  0.75200756  1
  Zn  Zn98  1  0.12229164  -0.00047070  0.62633819  1
  Zn  Zn99  1  0.87261287  0.37556176  0.49935660  1
  Zn  Zn100  1  0.62648611  0.37440044  0.74815983  1
  Zn  Zn101  1  0.87208644  0.49972248  0.37581790  1
  Zn  Zn102  1  0.87658009  0.00126796  0.87524080  1
  Zn  Zn103  1  0.00146159  0.12393099  0.62873159  1
  Zn  Zn104  1  0.49902242  0.62541342  0.12346410  1
  Zn  Zn105  1  -0.00136010  0.87465868  0.37501647  1
  Zn  Zn106  1  0.62400302  0.74982062  0.87595373  1
  Zn  Zn107  1  0.62599236  -0.00176641  0.12697491  1
  Zn  Zn108  1  0.37589459  0.74739590  0.12389985  1
  Zn  Zn109  1  -0.00022463  0.12479259  0.12533137  1
  Zn  Zn110  1  0.75017738  0.62428850  0.37499793  1
  Zn  Zn111  1  0.37584281  0.00085663  0.37345786  1
  Zn  Zn112  1  0.12509407  0.25143938  0.87665228  1
  Zn  Zn113  1  0.87498816  0.87404182  0.49814527  1
  Zn  Zn114  1  0.50081508  0.87357675  0.87430070  1
  Zn  Zn115  1  0.37553916  0.12414479  0.24930207  1
  Zn  Zn116  1  0.87481787  0.37452889  -0.00041658  1
  Zn  Zn117  1  0.24833997  0.74859277  0.50183485  1
  Zn  Zn118  1  0.12627090  0.62623720  0.50216212  1
  Zn  Zn119  1  0.74845734  0.37533817  0.62471368  1
  Zn  Zn120  1  0.12447916  0.87623763  0.74970028  1
  Zn  Zn121  1  0.62485655  0.87611374  0.24945369  1
  Zn  Zn122  1  0.25084361  0.25152150  0.49985732  1
  Zn  Zn123  1  0.37725759  -0.00063718  0.87350060  1
  Zn  Zn124  1  0.37280719  0.74818316  0.62457899  1
  Zn  Zn125  1  0.12310269  -0.00024675  0.12583065  1
  Zn  Zn126  1  0.37304239  0.37350629  0.49911422  1
  Zn  Zn127  1  0.24949004  0.37484229  0.12491111  1
  Zn  Zn128  1  0.18701013  0.18899122  0.18640174  1
  Zn  Zn129  1  0.18792788  0.18837222  0.68790820  1
  Zn  Zn130  1  0.18884488  0.68745282  0.18802184  1
  Zn  Zn131  1  0.18685797  0.68818234  0.68839734  1
  Zn  Zn132  1  0.68735584  0.18555923  0.18658887  1
  Zn  Zn133  1  0.68746391  0.18695116  0.68679935  1
  Zn  Zn134  1  0.68614370  0.68767605  0.18677438  1
  Zn  Zn135  1  0.68687733  0.68698233  0.68583277  1
  Zn  Zn136  1  0.31248955  0.31243347  0.31069131  1
  Zn  Zn137  1  0.31329286  0.31089595  0.81298386  1
  Zn  Zn138  1  0.31227777  0.81184076  0.31339546  1
  Zn  Zn139  1  0.31401188  0.81200590  0.81292348  1
  Zn  Zn140  1  0.81330244  0.31478646  0.31335267  1
  Zn  Zn141  1  0.81242703  0.31444158  0.81187283  1
  Zn  Zn142  1  0.81283545  0.81341869  0.31410356  1
  Zn  Zn143  1  0.81324523  0.81287703  0.81322297  1
  Zn  Zn144  1  0.18670283  0.43746587  0.43931019  1
  Zn  Zn145  1  0.18701016  0.43690977  0.93834327  1
  Zn  Zn146  1  0.18560024  0.93748093  0.43623769  1
  Zn  Zn147  1  0.18731945  0.93864801  0.93634000  1
  Zn  Zn148  1  0.68743189  0.43721464  0.43760520  1
  Zn  Zn149  1  0.68761703  0.43673780  0.93625771  1
  Zn  Zn150  1  0.68662457  0.93694932  0.43624037  1
  Zn  Zn151  1  0.68808111  0.93678534  0.93662409  1
  Zn  Zn152  1  0.31322931  0.06169915  0.06378271  1
  Zn  Zn153  1  0.31358272  0.06130618  0.56287881  1
  Zn  Zn154  1  0.31346582  0.56208699  0.06451435  1
  Zn  Zn155  1  0.31195877  0.56144403  0.56119371  1
  Zn  Zn156  1  0.81428998  0.06215858  0.06322387  1
  Zn  Zn157  1  0.81365229  0.06531563  0.56484946  1
  Zn  Zn158  1  0.81204538  0.56214504  0.06296169  1
  Zn  Zn159  1  0.81172683  0.56416144  0.56305589  1
  Zn  Zn160  1  0.43694348  0.43686183  0.18639013  1
  Zn  Zn161  1  0.43800539  0.43654702  0.68722623  1
  Zn  Zn162  1  0.43544386  0.93635325  0.18558788  1
  Zn  Zn163  1  0.43716472  0.93841669  0.68405287  1
  Zn  Zn164  1  0.93590858  0.43703990  0.18780689  1
  Zn  Zn165  1  0.93603669  0.43570038  0.68758983  1
  Zn  Zn166  1  0.93851183  0.93848379  0.18672515  1
  Zn  Zn167  1  0.93673910  0.93638405  0.68650748  1
  Zn  Zn168  1  0.06245865  0.06266202  0.31381968  1
  Zn  Zn169  1  0.06515422  0.06290853  0.81616050  1
  Zn  Zn170  1  0.06115149  0.56310405  0.31368080  1
  Zn  Zn171  1  0.06262930  0.56364838  0.81280346  1
  Zn  Zn172  1  0.56391465  0.06136759  0.31197890  1
  Zn  Zn173  1  0.56391522  0.06170907  0.81309449  1
  Zn  Zn174  1  0.56246955  0.56349865  0.31278679  1
  Zn  Zn175  1  0.56356522  0.56285722  0.81235266  1
  Zn  Zn176  1  0.43604391  0.18884672  0.43756734  1
  Zn  Zn177  1  0.43726506  0.18631468  0.93699001  1
  Zn  Zn178  1  0.43608949  0.68801729  0.43702291  1
  Zn  Zn179  1  0.43998411  0.68830757  0.93452224  1
  Zn  Zn180  1  0.93800757  0.18726244  0.43834007  1
  Zn  Zn181  1  0.93613625  0.18688395  0.93697103  1
  Zn  Zn182  1  0.93634180  0.68501592  0.43720777  1
  Zn  Zn183  1  0.93745396  0.68806545  0.93724749  1
  Zn  Zn184  1  0.06167517  0.31297471  0.06361530  1
  Zn  Zn185  1  0.06353883  0.31280407  0.56365993  1
  Zn  Zn186  1  0.06333166  0.81323903  0.06268487  1
  Zn  Zn187  1  0.06241623  0.81418444  0.56252079  1
  Zn  Zn188  1  0.56244703  0.31188179  0.06118875  1
  Zn  Zn189  1  0.56245098  0.31404770  0.56195179  1
  Zn  Zn190  1  0.56525900  0.81230183  0.06522064  1
  Zn  Zn191  1  0.56188368  0.81228402  0.56391606  1
  O  O192  1  0.12422350  0.12404030  0.11246164  1
  O  O193  1  0.12573130  0.12333472  0.61279700  1
  O  O194  1  0.11944881  0.62025188  0.12011938  1
  O  O195  1  0.11842795  0.61827200  0.62578605  1
  O  O196  1  0.61828682  0.12284659  0.11732691  1
  O  O197  1  0.61784339  0.12494940  0.61690469  1
  O  O198  1  0.62328196  0.61768945  0.11723057  1
  O  O199  1  0.61787153  0.61950127  0.61886343  1
  O  O200  1  0.38128131  0.38130767  0.37452737  1
  O  O201  1  0.38082158  0.38015520  0.88026077  1
  O  O202  1  0.37891380  0.87660816  0.38494179  1
  O  O203  1  0.37661705  0.87700412  0.88764995  1
  O  O204  1  0.88383744  0.37830379  0.37824009  1
  O  O205  1  0.88194342  0.38322007  0.87637962  1
  O  O206  1  0.87860553  0.88382718  0.37864029  1
  O  O207  1  0.88252023  0.87534166  0.88224744  1
  O  O208  1  0.24896091  0.00804725  0.36586384  1
  O  O209  1  0.25270740  0.00523005  0.86506896  1
  O  O210  1  0.25411302  0.50483372  0.36949627  1
  O  O211  1  0.25548244  0.50517038  0.87023650  1
  O  O212  1  0.75592872  0.00631164  0.37079069  1
  O  O213  1  0.75034241  0.00491571  0.86539687  1
  O  O214  1  0.75039436  0.50234404  0.36630821  1
  O  O215  1  0.75564359  0.50631338  0.86998774  1
  O  O216  1  0.24251056  0.49910275  0.13221133  1
  O  O217  1  0.24456786  0.49507202  0.63205939  1
  O  O218  1  0.24802353  0.99439479  0.13463015  1
  O  O219  1  0.24977381  0.99232344  0.63393693  1
  O  O220  1  0.74340780  0.49378075  0.12938111  1
  O  O221  1  0.74355595  0.50061770  0.63114314  1
  O  O222  1  0.75130160  0.99358732  0.13172679  1
  O  O223  1  0.74902574  0.99550076  0.63434433  1
  O  O224  1  0.00526971  0.37069911  0.25631559  1
  O  O225  1  0.00547815  0.36834102  0.75539013  1
  O  O226  1  0.00658708  0.86767193  0.25084782  1
  O  O227  1  0.00193389  0.86895440  0.75584075  1
  O  O228  1  0.50580238  0.36913454  0.25445633  1
  O  O229  1  0.50082337  0.36762134  0.75720429  1
  O  O230  1  0.49787613  0.86583114  0.25553498  1
  O  O231  1  0.50841096  0.87139485  0.74805440  1
  O  O232  1  0.49881627  0.13060164  0.24384824  1
  O  O233  1  0.49560460  0.12916894  0.74443244  1
  O  O234  1  0.49411733  0.63486326  0.25053691  1
  O  O235  1  0.49464921  0.62944518  0.74460263  1
  O  O236  1  0.99461793  0.13241164  0.24996538  1
  O  O237  1  1.00152268  0.13606540  0.75083013  1
  O  O238  1  0.99446452  0.63003901  0.24355578  1
  O  O239  1  0.99449954  0.63088130  0.74543862  1
  O  O240  1  0.37050713  0.25448536  0.00455883  1
  O  O241  1  0.37144746  0.25203943  0.50814786  1
  O  O242  1  0.37045439  0.75820206  -0.00022661  1
  O  O243  1  0.37223444  0.76286483  0.50128231  1
  O  O244  1  0.86791001  0.25109969  0.00647371  1
  O  O245  1  0.87062680  0.24963655  0.50925823  1
  O  O246  1  0.87055124  0.75486925  0.00636351  1
  O  O247  1  0.86901093  0.75002771  0.50641870  1
  O  O248  1  0.12570532  0.23989549  0.49427045  1
  O  O249  1  0.13029377  0.24186343  0.99952932  1
  O  O250  1  0.12490621  0.74922783  0.48803805  1
  O  O251  1  0.13095878  0.74401375  0.99489235  1
  O  O252  1  0.62960572  0.24475079  0.49332380  1
  O  O253  1  0.63004356  0.24312443  0.99403385  1
  O  O254  1  0.62867400  0.74477581  0.49583591  1
  O  O255  1  0.63214704  0.74369219  0.99899519  1
  O  O256  1  0.49542074  0.24443390  0.12909811  1
  O  O257  1  0.49488479  0.24456831  0.62995261  1
  O  O258  1  0.49863386  0.74873226  0.13735509  1
  O  O259  1  0.49713618  0.74248060  0.63127893  1
  O  O260  1  0.99278065  0.24957355  0.13256800  1
  O  O261  1  0.99394409  0.25008786  0.63525285  1
  O  O262  1  0.99525131  0.74416427  0.12984322  1
  O  O263  1  0.99565042  0.74548331  0.63006348  1
  O  O264  1  0.00535119  0.25522395  0.37008099  1
  O  O265  1  -0.00024799  0.25671040  0.86565718  1
  O  O266  1  0.00909509  0.74942247  0.36907206  1
  O  O267  1  0.00547241  0.75454022  0.86997416  1
  O  O268  1  0.50528797  0.25449602  0.36875556  1
  O  O269  1  0.50495731  0.25366135  0.86973785  1
  O  O270  1  0.50376315  0.75523404  0.36758692  1
  O  O271  1  0.50414237  0.75320257  0.86477425  1
  O  O272  1  0.24131759  0.12221915  0.49044175  1
  O  O273  1  0.24397830  0.12886717  0.99590344  1
  O  O274  1  0.24656194  0.62771457  0.49258555  1
  O  O275  1  0.24548462  0.62953060  0.99476813  1
  O  O276  1  0.74448393  0.13066683  0.49422555  1
  O  O277  1  0.74451991  0.12934796  0.99485401  1
  O  O278  1  0.74207489  0.63217582  0.49939027  1
  O  O279  1  0.74552185  0.63021565  0.99505625  1
  O  O280  1  0.25654758  0.36869429  0.00070238  1
  O  O281  1  0.25112419  0.37277781  0.50889637  1
  O  O282  1  0.25745157  0.87082246  0.00357726  1
  O  O283  1  0.25708463  0.87732956  0.50781460  1
  O  O284  1  0.75047064  0.36755633  0.00600866  1
  O  O285  1  0.75188591  0.36649478  0.50248062  1
  O  O286  1  0.75612734  0.86977278  0.00478176  1
  O  O287  1  0.75014065  0.86878552  0.50690759  1
  O  O288  1  0.12911834  0.49597452  0.24584192  1
  O  O289  1  0.13032304  0.49520450  0.74600991  1
  O  O290  1  0.13429593  0.99422545  0.25008891  1
  O  O291  1  0.13814176  0.99972196  0.74854618  1
  O  O292  1  0.62847053  0.49452060  0.24401670  1
  O  O293  1  0.63119725  0.50046629  0.74312409  1
  O  O294  1  0.63450434  0.99737379  0.24803115  1
  O  O295  1  0.63398500  0.99161836  0.74819848  1
  O  O296  1  0.36170916  0.00094012  0.25160638  1
  O  O297  1  0.36595150  0.00550999  0.75005064  1
  O  O298  1  0.36987005  0.50434708  0.25550076  1
  O  O299  1  0.36968993  0.50502445  0.75624025  1
  O  O300  1  0.87120894  0.00655720  0.25596749  1
  O  O301  1  0.86267235  0.00033692  0.75163742  1
  O  O302  1  0.86759413  0.50657111  0.24906850  1
  O  O303  1  0.87054385  0.50661288  0.75483553  1
  O  O304  1  0.11940717  0.36966055  0.36994827  1
  O  O305  1  0.11827769  0.37434442  0.86876398  1
  O  O306  1  0.12408285  0.86442869  0.36863010  1
  O  O307  1  0.11940620  0.86764373  0.87422294  1
  O  O308  1  0.61875708  0.36914934  0.36821016  1
  O  O309  1  0.61791847  0.36737193  0.87399650  1
  O  O310  1  0.61648145  0.86763682  0.37371573  1
  O  O311  1  0.62494684  0.87278040  0.86105686  1
  O  O312  1  0.38210294  0.13147775  0.12595336  1
  O  O313  1  0.38044618  0.13027649  0.63006013  1
  O  O314  1  0.37836519  0.62735810  0.13332139  1
  O  O315  1  0.38001163  0.62488388  0.63172011  1
  O  O316  1  0.87595224  0.13294881  0.13250778  1
  O  O317  1  0.87884970  0.13814713  0.62960515  1
  O  O318  1  0.88060948  0.63085508  0.12974592  1
  O  O319  1  0.88106502  0.63091273  0.63152600  1
  O  O320  1  0.25692082  0.25175534  0.11853378  1
  O  O321  1  0.25660623  0.25625672  0.62548527  1
  O  O322  1  0.25189607  0.75582052  0.11800643  1
  O  O323  1  0.25117498  0.76155879  0.62408846  1
  O  O324  1  0.75398720  0.25485878  0.11967776  1
  O  O325  1  0.75894092  0.24981434  0.62003334  1
  O  O326  1  0.75661174  0.75510298  0.11958171  1
  O  O327  1  0.75530902  0.75461485  0.61955506  1
  O  O328  1  0.24341293  0.23993225  0.37417422  1
  O  O329  1  0.24874805  0.24302350  0.88174834  1
  O  O330  1  0.23929690  0.74426149  0.37433730  1
  O  O331  1  0.24531370  0.74396331  0.88042901  1
  O  O332  1  0.74455822  0.24475113  0.37948118  1
  O  O333  1  0.74483715  0.24476797  0.87954463  1
  O  O334  1  0.74254055  0.74907918  0.38152575  1
  O  O335  1  0.74971341  0.74317834  0.88178598  1
  O  O336  1  0.00989958  0.12047191  -0.00086165  1
  O  O337  1  0.01031539  0.11718027  0.49971575  1
  O  O338  1  0.00609815  0.62066463  0.00555103  1
  O  O339  1  0.00181638  0.61551851  0.50721650  1
  O  O340  1  0.50437198  0.11665084  0.00424139  1
  O  O341  1  0.50458546  0.12061461  0.50323060  1
  O  O342  1  0.50646369  0.61817657  -0.00030785  1
  O  O343  1  0.50371783  0.61971339  0.50486427  1
  O  O344  1  0.49842041  0.38165969  0.49142714  1
  O  O345  1  0.49433766  0.37988187  0.99342158  1
  O  O346  1  0.49193610  0.87970979  0.49660619  1
  O  O347  1  0.49312081  0.88139976  1.00084072  1
  O  O348  1  1.00079985  0.38424653  0.49590772  1
  O  O349  1  0.99897807  0.38246102  0.99377314  1
  O  O350  1  0.99904015  0.88828735  0.49858522  1
  O  O351  1  0.99587766  0.87970643  0.99521389  1
  O  O352  1  0.49482476  0.49459515  0.37891539  1
  O  O353  1  0.49448430  0.49463027  0.87988461  1
  O  O354  1  0.49732617  0.99412276  0.38045480  1
  O  O355  1  0.49860354  0.99747195  0.88737551  1
  O  O356  1  1.00031817  0.49535948  0.38555417  1
  O  O357  1  0.99497970  0.49683387  0.87997098  1
  O  O358  1  0.99473241  0.99998469  0.38457795  1
  O  O359  1  0.99960694  0.99298474  0.88141730  1
  O  O360  1  0.00351343  0.00377679  0.11656224  1
  O  O361  1  0.00136828  0.00355183  0.61617239  1
  O  O362  1  0.00499769  0.50599263  0.12018035  1
  O  O363  1  0.00459635  0.50426296  0.61987142  1
  O  O364  1  0.50029713  0.00457488  0.11455386  1
  O  O365  1  0.50163158  0.00800096  0.61703912  1
  O  O366  1  0.50661832  0.50017809  0.11757267  1
  O  O367  1  0.50425872  0.50571648  0.61934889  1
  O  O368  1  0.24203287  0.38189382  0.24929714  1
  O  O369  1  0.24506304  0.38072423  0.74654125  1
  O  O370  1  0.24544846  0.88169160  0.24582023  1
  O  O371  1  0.25198072  0.88326907  0.74252960  1
  O  O372  1  0.74305138  0.37974322  0.24403474  1
  O  O373  1  0.74736707  0.38426892  0.74754960  1
  O  O374  1  0.75095800  0.88132542  0.24353127  1
  O  O375  1  0.74331778  0.88127780  0.74528044  1
  O  O376  1  0.24753310  0.11665366  0.25789901  1
  O  O377  1  0.25515893  0.11791858  0.75405634  1
  O  O378  1  0.25522075  0.61906933  0.25608752  1
  O  O379  1  0.25510492  0.61921693  0.75610176  1
  O  O380  1  0.75587964  0.12022937  0.25621337  1
  O  O381  1  0.74848433  0.11469622  0.75541119  1
  O  O382  1  0.75536785  0.61894309  0.24921347  1
  O  O383  1  0.75603485  0.62076627  0.75492173  1
  O  O384  1  0.36176069  0.12359383  0.37310197  1
  O  O385  1  0.36940825  0.12270123  0.86762350  1
  O  O386  1  0.36917331  0.61891789  0.36948851  1
  O  O387  1  0.36952632  0.61866114  0.86987060  1
  O  O388  1  0.86922818  0.12093038  0.36974493  1
  O  O389  1  0.86631094  0.12183088  0.87179933  1
  O  O390  1  0.87196103  0.62173290  0.36566236  1
  O  O391  1  0.87026756  0.62017053  0.86919987  1
  O  O392  1  0.12538712  0.38271768  0.13249848  1
  O  O393  1  0.13058157  0.38052940  0.63264064  1
  O  O394  1  0.13232444  0.87566342  0.13168561  1
  O  O395  1  0.13687078  0.87820367  0.62666403  1
  O  O396  1  0.62958728  0.37967265  0.12977141  1
  O  O397  1  0.62602030  0.38386971  0.62729479  1
  O  O398  1  0.63540238  0.87741306  0.12834397  1
  O  O399  1  0.63106860  0.87692382  0.63511324  1
  O  O400  1  0.11913959  0.25567875  0.25524916  1
  O  O401  1  0.11563710  0.25585883  0.75145284  1
  O  O402  1  0.11988401  0.75338644  0.25761053  1
  O  O403  1  0.11859765  0.75133166  0.75764860  1
  O  O404  1  0.61977365  0.25524258  0.25469542  1
  O  O405  1  0.61839354  0.24988070  0.75652173  1
  O  O406  1  0.61418394  0.75054729  0.25596870  1
  O  O407  1  0.61980499  0.75920323  0.74898266  1
  O  O408  1  0.38182835  0.24824667  0.24280162  1
  O  O409  1  0.38130327  0.24369096  0.74448670  1
  O  O410  1  0.38397143  0.74456785  0.25084157  1
  O  O411  1  0.38121404  0.74289990  0.74868097  1
  O  O412  1  0.87944982  0.24511579  0.24569028  1
  O  O413  1  0.88464415  0.24999381  0.74349309  1
  O  O414  1  0.88020238  0.74469375  0.24425633  1
  O  O415  1  0.88074367  0.74448491  0.74431115  1
  O  O416  1  0.38179828  0.49828444  0.49228525  1
  O  O417  1  0.37994251  0.49473873  0.99433902  1
  O  O418  1  0.38044893  0.98982899  0.49793571  1
  O  O419  1  0.38309630  0.99129538  0.99938939  1
  O  O420  1  0.88759226  0.49864305  0.50163929  1
  O  O421  1  0.88184202  0.49993981  0.99358667  1
  O  O422  1  0.88457139  1.00307640  0.49526274  1
  O  O423  1  0.88230636  0.99304771  0.99833080  1
  O  O424  1  0.12121489  0.00960866  0.00114788  1
  O  O425  1  0.11659038  0.00861737  0.49898753  1
  O  O426  1  0.11968979  0.50647044  0.00544485  1
  O  O427  1  0.11429168  0.50155513  0.50737533  1
  O  O428  1  0.61601972  0.00413442  0.00108832  1
  O  O429  1  0.61879230  0.00759781  0.50039794  1
  O  O430  1  0.62008769  0.50453019  0.00440974  1
  O  O431  1  0.61835106  0.50595640  0.50454732  1
  O  O432  1  0.37383093  0.36806282  0.11732267  1
  O  O433  1  0.36862338  0.36878886  0.62493057  1
  O  O434  1  0.36847253  0.87248291  0.11310445  1
  O  O435  1  0.36575682  0.87452807  0.61578716  1
  O  O436  1  0.86712266  0.36831838  0.12364734  1
  O  O437  1  0.87350036  0.36162055  0.62328045  1
  O  O438  1  0.87091301  0.86848343  0.11907295  1
  O  O439  1  0.86815127  0.86724600  0.62261245  1
  O  O440  1  0.13280123  0.12971294  0.38240408  1
  O  O441  1  0.13283359  0.12765961  0.88701771  1
  O  O442  1  0.13014117  0.63463085  0.37474798  1
  O  O443  1  0.13094982  0.63007605  0.88115324  1
  O  O444  1  0.63083426  0.13160783  0.37992752  1
  O  O445  1  0.63067760  0.13031503  0.88101469  1
  O  O446  1  0.62475826  0.63235864  0.38251695  1
  O  O447  1  0.63275207  0.62578804  0.88156920  1
