# generated using pymatgen
data_V3Zn3O8
_symmetry_space_group_name_H-M   'P 1'
_cell_length_a   17.08751657
_cell_length_b   17.08654562
_cell_length_c   17.08694110
_cell_angle_alpha   89.98672634
_cell_angle_beta   90.02483301
_cell_angle_gamma   90.01716891
_symmetry_Int_Tables_number   1
_chemical_formula_structural   V3Zn3O8
_chemical_formula_sum   'V96 Zn96 O256'
_cell_volume   4988.81580690
_cell_formula_units_Z   32
loop_
 _symmetry_equiv_pos_site_id
 _symmetry_equiv_pos_as_xyz
  1  'x, y, z'
loop_
 _atom_site_type_symbol
 _atom_site_label
 _atom_site_symmetry_multiplicity
 _atom_site_fract_x
 _atom_site_fract_y
 _atom_site_fract_z
 _atom_site_occupancy
  V  V0  1  0.24977223  0.62495766  0.87453819  1
  V  V1  1  0.87459586  0.74958577  0.12614353  1
  V  V2  1  0.62594902  0.25005328  0.37421786  1
  V  V3  1  0.49953476  0.62522873  0.62478759  1
  V  V4  1  0.62352515  0.62551885  0.00031083  1
  V  V5  1  0.25096752  0.00027381  0.74963215  1
  V  V6  1  0.75108953  -0.00009381  0.25064142  1
  V  V7  1  0.87547755  0.87443095  0.00155049  1
  V  V8  1  0.62645174  0.12502839  -0.00125748  1
  V  V9  1  0.37379121  0.74982794  0.12536481  1
  V  V10  1  0.12730119  0.37459719  0.24844700  1
  V  V11  1  0.75081118  0.12485488  0.37439865  1
  V  V12  1  0.37461390  0.87508640  0.00043320  1
  V  V13  1  0.62464982  0.74908236  0.87589782  1
  V  V14  1  0.24985474  0.25023965  -0.00100170  1
  V  V15  1  0.37606641  0.00026846  0.87451012  1
  V  V16  1  0.50004169  0.37573912  0.37538680  1
  V  V17  1  0.50063142  0.24964554  0.24855244  1
  V  V18  1  0.24905681  0.50117764  0.75015554  1
  V  V19  1  0.49896646  0.49984389  -0.00008406  1
  V  V20  1  0.24857203  0.74993164  0.50110034  1
  V  V21  1  0.00088144  0.24858966  0.24880560  1
  V  V22  1  0.12462268  0.87589021  0.75082669  1
  V  V23  1  0.00184276  0.00029893  0.00054840  1
  V  V24  1  0.12498018  0.37483615  0.74955411  1
  V  V25  1  0.75118671  0.24977073  0.50004048  1
  V  V26  1  0.74858075  0.74955804  0.49980974  1
  V  V27  1  0.49955274  0.87452450  0.37462140  1
  V  V28  1  0.87544936  -0.00075691  0.87513356  1
  V  V29  1  0.62377037  0.87456740  0.25049503  1
  V  V30  1  0.25046035  0.62374435  0.37471762  1
  V  V31  1  0.62538043  -0.00036574  0.12498751  1
  V  V32  1  0.12393229  0.62535707  0.50126068  1
  V  V33  1  0.49843423  0.75011517  0.25035527  1
  V  V34  1  0.74967799  0.62448294  0.87486606  1
  V  V35  1  0.00035824  0.12516298  0.62545713  1
  V  V36  1  0.00005448  0.37625342  0.37623056  1
  V  V37  1  0.49927128  0.74979075  0.74953447  1
  V  V38  1  0.25008136  0.37575133  0.12441520  1
  V  V39  1  0.87476976  0.49984502  0.87404018  1
  V  V40  1  0.75077215  -0.00107099  0.75021645  1
  V  V41  1  -0.00021378  0.62389589  0.12616365  1
  V  V42  1  -0.00112850  0.62496973  0.62480196  1
  V  V43  1  0.75048990  0.12630135  0.87479702  1
  V  V44  1  0.87461165  0.37525126  0.00026013  1
  V  V45  1  0.12697250  0.24910130  0.37416993  1
  V  V46  1  0.37440276  0.87570615  0.50016961  1
  V  V47  1  0.37538823  0.75044408  0.62617124  1
  V  V48  1  0.50004305  0.00058191  0.49893627  1
  V  V49  1  0.87583855  0.24992792  0.62448941  1
  V  V50  1  0.62569444  0.87496450  0.75018570  1
  V  V51  1  0.87399215  0.74877027  0.62606367  1
  V  V52  1  0.37639082  0.12663994  0.74942630  1
  V  V53  1  0.75072625  0.50035840  0.25108261  1
  V  V54  1  -0.00059437  0.50034177  0.00111843  1
  V  V55  1  0.37546748  0.37591039  -0.00084081  1
  V  V56  1  -0.00056463  0.74945713  0.25276798  1
  V  V57  1  0.62458656  0.49997662  0.12527728  1
  V  V58  1  0.12478065  0.87522016  0.25035374  1
  V  V59  1  0.50077223  0.87459764  0.87487655  1
  V  V60  1  0.25108026  0.25036781  0.49922260  1
  V  V61  1  0.37638393  0.25006849  0.12413069  1
  V  V62  1  0.49862861  0.62543689  0.12616052  1
  V  V63  1  0.50128679  0.37435085  0.87300818  1
  V  V64  1  0.25064026  0.12501505  0.37462810  1
  V  V65  1  0.24951965  0.75105419  0.00071478  1
  V  V66  1  -0.00153508  0.74944930  0.75066149  1
  V  V67  1  0.12445942  0.75075468  0.87658569  1
  V  V68  1  0.87617299  0.24788394  0.12410932  1
  V  V69  1  0.12424585  0.00051671  0.62471710  1
  V  V70  1  -0.00018808  0.87459756  0.87604915  1
  V  V71  1  0.49888425  0.49985206  0.49999259  1
  V  V72  1  0.62527972  0.37485471  0.24943692  1
  V  V73  1  0.50058627  0.12523503  0.12439721  1
  V  V74  1  0.37509841  0.37535410  0.49946281  1
  V  V75  1  0.00108119  0.25039103  0.74880127  1
  V  V76  1  0.74997508  0.37501568  0.62498913  1
  V  V77  1  0.62473591  0.12470100  0.49979563  1
  V  V78  1  0.12507884  0.25150522  0.87405958  1
  V  V79  1  0.12505806  0.49921157  0.12434490  1
  V  V80  1  0.24928282  -0.00101118  0.25003194  1
  V  V81  1  0.74946000  0.62488203  0.37512387  1
  V  V82  1  0.50018968  -0.00022697  0.00007880  1
  V  V83  1  0.75023737  0.37491412  0.12488205  1
  V  V84  1  -0.00066164  -0.00004962  0.50094586  1
  V  V85  1  0.12325525  0.50070997  0.62460252  1
  V  V86  1  0.62523556  0.49947068  0.62541773  1
  V  V87  1  0.24975971  0.87535049  0.62501959  1
  V  V88  1  0.25062875  0.37535712  0.62428908  1
  V  V89  1  0.87415343  0.87573616  0.50067409  1
  V  V90  1  0.50069870  0.12619734  0.62463521  1
  V  V91  1  0.74920521  0.87488187  0.62582305  1
  V  V92  1  0.12523880  0.12477217  0.00011568  1
  V  V93  1  0.75032064  0.87423549  0.12534943  1
  V  V94  1  0.37399123  0.00045170  0.37411080  1
  V  V95  1  0.87492076  0.00002733  0.37579227  1
  Zn  Zn96  1  0.24922101  0.87579705  0.12465966  1
  Zn  Zn97  1  0.37496078  0.50068401  0.87328367  1
  Zn  Zn98  1  0.12299424  0.74992108  0.37741689  1
  Zn  Zn99  1  0.25208952  0.12614716  0.87433109  1
  Zn  Zn100  1  0.12582071  0.12434776  0.49964984  1
  Zn  Zn101  1  -0.00074115  0.37554088  0.87406853  1
  Zn  Zn102  1  0.37495083  0.62462126  0.74993707  1
  Zn  Zn103  1  0.50230925  0.25064645  0.75054375  1
  Zn  Zn104  1  0.87364514  0.62351273  0.74855055  1
  Zn  Zn105  1  0.62355428  0.62732985  0.49964951  1
  Zn  Zn106  1  0.87763833  0.12311522  0.24940427  1
  Zn  Zn107  1  0.87524688  0.62250702  0.25061554  1
  Zn  Zn108  1  0.62651763  0.25155104  0.87405525  1
  Zn  Zn109  1  0.25265066  0.50077361  0.24936432  1
  Zn  Zn110  1  0.37550205  0.25182961  0.62560554  1
  Zn  Zn111  1  0.00034471  0.12238293  0.12634277  1
  Zn  Zn112  1  0.87659997  0.37639628  0.49888170  1
  Zn  Zn113  1  0.37440751  0.62359450  0.25096160  1
  Zn  Zn114  1  0.12535948  0.00010376  0.12517663  1
  Zn  Zn115  1  0.37568467  0.50050036  0.37270340  1
  Zn  Zn116  1  0.87553521  0.49904260  0.37513805  1
  Zn  Zn117  1  0.87572751  0.12500268  0.75039518  1
  Zn  Zn118  1  0.62391551  0.37174944  0.75065214  1
  Zn  Zn119  1  0.62327361  0.74995188  0.37639615  1
  Zn  Zn120  1  -0.00206769  0.50089290  0.49914677  1
  Zn  Zn121  1  0.74982526  0.75025338  0.00189941  1
  Zn  Zn122  1  -0.00078302  0.87473020  0.37703213  1
  Zn  Zn123  1  0.74942126  0.49864094  0.74935177  1
  Zn  Zn124  1  0.12452304  0.62556345  0.00163169  1
  Zn  Zn125  1  0.62630939  -0.00006612  0.62498182  1
  Zn  Zn126  1  0.37483081  0.12430392  0.24847422  1
  Zn  Zn127  1  0.74965009  0.25073169  -0.00147452  1
  Zn  Zn128  1  0.18911923  0.18713106  0.18700018  1
  Zn  Zn129  1  0.18827814  0.18805404  0.68573474  1
  Zn  Zn130  1  0.18627201  0.68724380  0.18801773  1
  Zn  Zn131  1  0.18562094  0.68821147  0.68838120  1
  Zn  Zn132  1  0.68929223  0.18675949  0.18709296  1
  Zn  Zn133  1  0.68574178  0.18915202  0.69031984  1
  Zn  Zn134  1  0.68617507  0.68791099  0.18976092  1
  Zn  Zn135  1  0.68642141  0.68657295  0.68826928  1
  Zn  Zn136  1  0.31440468  0.31265429  0.31156110  1
  Zn  Zn137  1  0.31337078  0.31295468  0.81277503  1
  Zn  Zn138  1  0.31127927  0.81048926  0.31334372  1
  Zn  Zn139  1  0.31286006  0.81239890  0.81284029  1
  Zn  Zn140  1  0.81449060  0.31172464  0.31016521  1
  Zn  Zn141  1  0.81390692  0.31210567  0.80927969  1
  Zn  Zn142  1  0.81236222  0.81233661  0.31377422  1
  Zn  Zn143  1  0.81251453  0.81131962  0.81342323  1
  Zn  Zn144  1  0.18620681  0.43893708  0.43810376  1
  Zn  Zn145  1  0.18600296  0.43811224  0.93768787  1
  Zn  Zn146  1  0.18565877  0.93748692  0.43588335  1
  Zn  Zn147  1  0.18942273  0.93869411  0.93625931  1
  Zn  Zn148  1  0.68688097  0.43857383  0.43899857  1
  Zn  Zn149  1  0.68681211  0.43821639  0.93949027  1
  Zn  Zn150  1  0.68662227  0.93766341  0.43751671  1
  Zn  Zn151  1  0.68875132  0.93778455  0.93804594  1
  Zn  Zn152  1  0.31103983  0.06221746  0.06413554  1
  Zn  Zn153  1  0.31241750  0.06325678  0.56157408  1
  Zn  Zn154  1  0.31246097  0.56294055  0.06143343  1
  Zn  Zn155  1  0.31302949  0.56246573  0.56198485  1
  Zn  Zn156  1  0.81311612  0.06161734  0.06145754  1
  Zn  Zn157  1  0.81316195  0.06338354  0.56353694  1
  Zn  Zn158  1  0.81271634  0.56327076  0.06262778  1
  Zn  Zn159  1  0.81496034  0.56076133  0.55718320  1
  Zn  Zn160  1  0.43564536  0.43876604  0.18901584  1
  Zn  Zn161  1  0.43484457  0.43983541  0.68857906  1
  Zn  Zn162  1  0.43588574  0.93689990  0.18735820  1
  Zn  Zn163  1  0.43852168  0.93889733  0.68675726  1
  Zn  Zn164  1  0.93724780  0.43671621  0.18991651  1
  Zn  Zn165  1  0.93727622  0.43737742  0.68764890  1
  Zn  Zn166  1  0.93875961  0.93746845  0.18731734  1
  Zn  Zn167  1  0.93648735  0.93724072  0.68807229  1
  Zn  Zn168  1  0.06199878  0.06276830  0.31376082  1
  Zn  Zn169  1  0.06283405  0.06437469  0.81323497  1
  Zn  Zn170  1  0.06681834  0.56172126  0.31163814  1
  Zn  Zn171  1  0.06206510  0.56342411  0.81189552  1
  Zn  Zn172  1  0.56270947  0.06259701  0.31175821  1
  Zn  Zn173  1  0.56463649  0.06128851  0.81204903  1
  Zn  Zn174  1  0.56363084  0.56318239  0.31260695  1
  Zn  Zn175  1  0.56223374  0.56076203  0.81063719  1
  Zn  Zn176  1  0.43597881  0.18854993  0.43634970  1
  Zn  Zn177  1  0.43868382  0.18869338  0.93749733  1
  Zn  Zn178  1  0.43596720  0.68760981  0.43887365  1
  Zn  Zn179  1  0.43573920  0.68773288  0.93815403  1
  Zn  Zn180  1  0.93809648  0.18731926  0.43821314  1
  Zn  Zn181  1  0.93868171  0.18797645  0.93656462  1
  Zn  Zn182  1  0.93437687  0.68651523  0.43834084  1
  Zn  Zn183  1  0.93706967  0.68680651  0.94042491  1
  Zn  Zn184  1  0.06121530  0.31333248  0.06088899  1
  Zn  Zn185  1  0.06519598  0.31132281  0.56094290  1
  Zn  Zn186  1  0.06256874  0.81173430  0.06512135  1
  Zn  Zn187  1  0.06124358  0.81230003  0.56379054  1
  Zn  Zn188  1  0.56407941  0.31127374  0.05911528  1
  Zn  Zn189  1  0.56322081  0.31204275  0.56110537  1
  Zn  Zn190  1  0.56186120  0.81157233  0.06304367  1
  Zn  Zn191  1  0.56343858  0.81232469  0.56229520  1
  O  O192  1  0.12404005  0.12579615  0.11048184  1
  O  O193  1  0.11920958  0.11758908  0.62369075  1
  O  O194  1  0.11787188  0.61801049  0.12397665  1
  O  O195  1  0.11906430  0.62068106  0.62083950  1
  O  O196  1  0.62100053  0.11882118  0.11919040  1
  O  O197  1  0.61652968  0.12337913  0.61893032  1
  O  O198  1  0.61908529  0.61987441  0.12006751  1
  O  O199  1  0.61951880  0.61538814  0.62413590  1
  O  O200  1  0.38285502  0.37593388  0.38140109  1
  O  O201  1  0.38339815  0.37683837  0.88167489  1
  O  O202  1  0.37958522  0.88032739  0.38134780  1
  O  O203  1  0.38176514  0.88031162  0.87983571  1
  O  O204  1  0.88864047  0.37282485  0.37415531  1
  O  O205  1  0.87338584  0.38530031  0.88020287  1
  O  O206  1  0.87467322  0.88222051  0.38331565  1
  O  O207  1  0.88049626  0.87910899  0.88141667  1
  O  O208  1  0.25504375  0.00481422  0.37025070  1
  O  O209  1  0.25839934  0.00202804  0.86696479  1
  O  O210  1  0.25038076  0.51188272  0.37523443  1
  O  O211  1  0.24827207  0.51003505  0.87001405  1
  O  O212  1  0.75477320  0.00533835  0.37024488  1
  O  O213  1  0.75583694  0.00638253  0.87049758  1
  O  O214  1  0.74842990  0.50792533  0.36964776  1
  O  O215  1  0.75737168  0.50779327  0.87545267  1
  O  O216  1  0.24326353  0.49289808  0.12338119  1
  O  O217  1  0.24310459  0.49555467  0.63014207  1
  O  O218  1  0.24696781  0.99658644  0.13387822  1
  O  O219  1  0.24518045  0.99424654  0.62985583  1
  O  O220  1  0.74407984  0.49503658  0.13004846  1
  O  O221  1  0.74239022  0.49214684  0.62303003  1
  O  O222  1  0.74509005  0.99429463  0.13029654  1
  O  O223  1  0.74966917  0.99302525  0.63176940  1
  O  O224  1  0.00731288  0.36825552  0.25689584  1
  O  O225  1  0.00748531  0.36852451  0.75043905  1
  O  O226  1  0.00726273  0.86596897  0.25119264  1
  O  O227  1  0.00517519  0.86969418  0.75638769  1
  O  O228  1  0.50674932  0.36934947  0.25453103  1
  O  O229  1  0.49796207  0.37479779  0.76121808  1
  O  O230  1  0.50434644  0.87058533  0.25513395  1
  O  O231  1  0.50525042  0.87060617  0.75550161  1
  O  O232  1  0.50013602  0.13161869  0.24221506  1
  O  O233  1  0.49235886  0.12199629  0.74161881  1
  O  O234  1  0.49998305  0.63196750  0.24350763  1
  O  O235  1  0.49865299  0.63230232  0.74372742  1
  O  O236  1  0.99860425  0.13298888  0.24676102  1
  O  O237  1  0.99948091  0.13194184  0.74341981  1
  O  O238  1  1.00009852  0.63420889  0.24579306  1
  O  O239  1  0.99828147  0.63259885  0.74353935  1
  O  O240  1  0.36984138  0.25541942  0.00500334  1
  O  O241  1  0.36868182  0.25732198  0.50120307  1
  O  O242  1  0.36981713  0.75653115  0.00494340  1
  O  O243  1  0.36889841  0.75734462  0.50729128  1
  O  O244  1  0.87495514  0.25607640  0.00869999  1
  O  O245  1  0.86823525  0.25235289  0.50665657  1
  O  O246  1  0.87409940  0.75726236  0.00787387  1
  O  O247  1  0.86834588  0.75612456  0.50691280  1
  O  O248  1  0.13399957  0.24804402  0.49195396  1
  O  O249  1  0.12943119  0.24392125  0.99426203  1
  O  O250  1  0.13113324  0.74449563  0.50104181  1
  O  O251  1  0.13063953  0.75016799  0.99367357  1
  O  O252  1  0.63096374  0.24400967  0.49332609  1
  O  O253  1  0.62964105  0.24066607  0.99630397  1
  O  O254  1  0.63299050  0.74844770  0.49760610  1
  O  O255  1  0.62551491  0.74338133  0.99344939  1
  O  O256  1  0.49635731  0.24512199  0.12862633  1
  O  O257  1  0.49810976  0.23677494  0.62473383  1
  O  O258  1  0.49401207  0.74479636  0.12997623  1
  O  O259  1  0.49510190  0.74582103  0.63005651  1
  O  O260  1  0.99034289  0.25080654  0.12966906  1
  O  O261  1  0.99651307  0.24539092  0.62904089  1
  O  O262  1  0.99491258  0.74464946  0.13408902  1
  O  O263  1  0.99362979  0.74514724  0.63136074  1
  O  O264  1  0.00676984  0.25619840  0.36929047  1
  O  O265  1  0.00635393  0.25242812  0.86732688  1
  O  O266  1  -0.00048081  0.75081678  0.36414536  1
  O  O267  1  0.00426458  0.75511984  0.87131625  1
  O  O268  1  0.50681873  0.25505511  0.36921526  1
  O  O269  1  0.50157406  0.26283903  0.87605465  1
  O  O270  1  0.49941970  0.75725744  0.36955352  1
  O  O271  1  0.50487400  0.75509576  0.86999288  1
  O  O272  1  0.24967202  0.13128997  0.49281396  1
  O  O273  1  0.24224692  0.13109909  0.99769909  1
  O  O274  1  0.24393681  0.63063015  0.49511431  1
  O  O275  1  0.24777756  0.63179072  0.99014157  1
  O  O276  1  0.74422268  0.13000486  0.49461755  1
  O  O277  1  0.74513679  0.12292984  0.98968375  1
  O  O278  1  0.74836153  0.63082889  0.49113698  1
  O  O279  1  0.74285685  0.62554985  0.99046511  1
  O  O280  1  0.25507672  0.36957121  0.00465935  1
  O  O281  1  0.25491462  0.37055541  0.50462426  1
  O  O282  1  0.25709642  0.86916655  -0.00020283  1
  O  O283  1  0.25470683  0.87075590  0.50562705  1
  O  O284  1  0.75647209  0.37416007  0.00743002  1
  O  O285  1  0.74921193  0.36803201  0.51002078  1
  O  O286  1  0.75693107  0.87415473  0.00726386  1
  O  O287  1  0.75450290  0.87043513  0.50610226  1
  O  O288  1  0.12860350  0.49190881  0.24141048  1
  O  O289  1  0.12938975  0.49461266  0.74436883  1
  O  O290  1  0.12970768  0.99079404  0.25055550  1
  O  O291  1  0.13068469  0.99474657  0.74563994  1
  O  O292  1  0.63002717  0.49348222  0.24365020  1
  O  O293  1  0.62627243  0.49607658  0.73622345  1
  O  O294  1  0.63045537  0.99440762  0.24399374  1
  O  O295  1  0.63239584  0.99173896  0.74890327  1
  O  O296  1  0.36800261  0.00003187  0.25674213  1
  O  O297  1  0.37111875  0.00720116  0.75434410  1
  O  O298  1  0.37077181  0.50469046  0.25411234  1
  O  O299  1  0.36444475  0.50475609  0.75284648  1
  O  O300  1  0.86858193  0.00013856  0.25646872  1
  O  O301  1  0.86883837  0.00027528  0.75796628  1
  O  O302  1  0.86605449  0.50136417  0.25340291  1
  O  O303  1  0.87251746  0.50179199  0.76196959  1
  O  O304  1  0.11953129  0.36891006  0.36860506  1
  O  O305  1  0.12338867  0.36947629  0.86742538  1
  O  O306  1  0.12136746  0.87150446  0.36382138  1
  O  O307  1  0.11937858  0.87066252  0.86981299  1
  O  O308  1  0.62046133  0.36887766  0.36961796  1
  O  O309  1  0.61437058  0.37656764  0.87456800  1
  O  O310  1  0.61719955  0.87521208  0.36791754  1
  O  O311  1  0.62017539  0.86930611  0.87074460  1
  O  O312  1  0.38304970  0.13187988  0.12463175  1
  O  O313  1  0.38357274  0.12426555  0.63316049  1
  O  O314  1  0.38164426  0.63226488  0.12480867  1
  O  O315  1  0.38106879  0.63304685  0.62613775  1
  O  O316  1  0.87619691  0.13644914  0.12479671  1
  O  O317  1  0.88168153  0.13201208  0.62737417  1
  O  O318  1  0.88123594  0.63120162  0.12743611  1
  O  O319  1  0.87965878  0.63117706  0.62616023  1
  O  O320  1  0.25631222  0.25587970  0.11851237  1
  O  O321  1  0.25149503  0.25765232  0.61789813  1
  O  O322  1  0.25552422  0.75088690  0.11832021  1
  O  O323  1  0.25459636  0.75664995  0.62146466  1
  O  O324  1  0.76017847  0.25578814  0.12458831  1
  O  O325  1  0.75410740  0.25652813  0.62010590  1
  O  O326  1  0.75580433  0.75638337  0.12530689  1
  O  O327  1  0.75439212  0.75491584  0.62105330  1
  O  O328  1  0.24622789  0.24505622  0.37877236  1
  O  O329  1  0.24372544  0.24868982  0.88127212  1
  O  O330  1  0.24817269  0.74114589  0.38356200  1
  O  O331  1  0.24435083  0.74402989  0.87927939  1
  O  O332  1  0.74501441  0.24547929  0.37905375  1
  O  O333  1  0.75217439  0.23777026  0.87599446  1
  O  O334  1  0.74848094  0.74172775  0.38030855  1
  O  O335  1  0.74397694  0.74063577  0.87736989  1
  O  O336  1  0.01036758  0.11934301  -0.00101642  1
  O  O337  1  0.00224414  0.11803206  0.50757226  1
  O  O338  1  0.00147577  0.61836351  0.00789616  1
  O  O339  1  0.00620174  0.62592473  0.50695761  1
  O  O340  1  0.50593383  0.11866544  0.00453781  1
  O  O341  1  0.50392855  0.12064786  0.50617647  1
  O  O342  1  0.50449989  0.62015025  0.00537220  1
  O  O343  1  0.50132422  0.61886253  0.50686417  1
  O  O344  1  0.49535665  0.37926890  0.49464868  1
  O  O345  1  0.49549833  0.38062880  0.99324816  1
  O  O346  1  0.49398029  0.88065701  0.49537722  1
  O  O347  1  0.49528076  0.88033686  0.99411916  1
  O  O348  1  1.00224459  0.37433990  0.48691467  1
  O  O349  1  0.99223054  0.38254606  0.99699842  1
  O  O350  1  0.99206058  0.88119712  0.50085349  1
  O  O351  1  0.99577164  0.87981917  0.99485232  1
  O  O352  1  0.50194168  0.49302801  0.38213001  1
  O  O353  1  0.49867507  0.49243171  0.88134813  1
  O  O354  1  0.49399069  0.99510313  0.37954757  1
  O  O355  1  0.49584262  0.99393268  0.88047831  1
  O  O356  1  1.00205307  0.48722175  0.37330250  1
  O  O357  1  0.98921361  0.50138602  0.88053297  1
  O  O358  1  0.99261086  0.99880376  0.38269347  1
  O  O359  1  0.99544755  0.99368362  0.87975741  1
  O  O360  1  0.00333480  0.00224547  0.11628804  1
  O  O361  1  0.00466793  0.00468918  0.62141169  1
  O  O362  1  0.00451047  0.50392133  0.12113153  1
  O  O363  1  0.00604136  0.50700828  0.62509025  1
  O  O364  1  0.50565482  0.00488545  0.11958943  1
  O  O365  1  0.50106330  0.01023778  0.61799223  1
  O  O366  1  0.50574153  0.50504511  0.11999455  1
  O  O367  1  0.50696492  0.50424297  0.62031959  1
  O  O368  1  0.24428668  0.37425683  0.24185764  1
  O  O369  1  0.24489813  0.38063516  0.74438937  1
  O  O370  1  0.24030036  0.87953525  0.25109671  1
  O  O371  1  0.24476417  0.88041084  0.74487263  1
  O  O372  1  0.74380615  0.37965763  0.24473872  1
  O  O373  1  0.74801189  0.37620765  0.73613695  1
  O  O374  1  0.74399734  0.88048486  0.24492638  1
  O  O375  1  0.74492122  0.87870872  0.74602026  1
  O  O376  1  0.25151710  0.11782295  0.25623096  1
  O  O377  1  0.26086827  0.11926133  0.74906645  1
  O  O378  1  0.24966406  0.62578678  0.26261012  1
  O  O379  1  0.24859735  0.62107249  0.75928648  1
  O  O380  1  0.75105146  0.11740157  0.25678589  1
  O  O381  1  0.75111635  0.11819874  0.75953356  1
  O  O382  1  0.74956925  0.61904696  0.25832119  1
  O  O383  1  0.75043233  0.62248340  0.76345801  1
  O  O384  1  0.36926688  0.11805793  0.37232221  1
  O  O385  1  0.37705813  0.11887853  0.86524164  1
  O  O386  1  0.36280166  0.62396405  0.37619252  1
  O  O387  1  0.36162281  0.62532024  0.87314888  1
  O  O388  1  0.86764262  0.11878191  0.37405816  1
  O  O389  1  0.86650692  0.11796977  0.87487650  1
  O  O390  1  0.86129616  0.62365113  0.37239111  1
  O  O391  1  0.86595001  0.61687682  0.87690822  1
  O  O392  1  0.13049667  0.37884461  0.12880458  1
  O  O393  1  0.13111322  0.38059428  0.63002137  1
  O  O394  1  0.12665255  0.87612593  0.13831567  1
  O  O395  1  0.13018494  0.88041208  0.63195710  1
  O  O396  1  0.62997772  0.38008672  0.12943455  1
  O  O397  1  0.63271089  0.38220541  0.62406653  1
  O  O398  1  0.62967141  0.88071924  0.12985472  1
  O  O399  1  0.63128144  0.87636208  0.63243534  1
  O  O400  1  0.12094992  0.25529015  0.25409398  1
  O  O401  1  0.12131328  0.25545388  0.75423089  1
  O  O402  1  0.11487773  0.75779384  0.25085954  1
  O  O403  1  0.11862523  0.75735997  0.75607271  1
  O  O404  1  0.62067518  0.25551485  0.25432560  1
  O  O405  1  0.61956429  0.25368817  0.75598567  1
  O  O406  1  0.61649998  0.75818655  0.25109804  1
  O  O407  1  0.61887026  0.75563404  0.75629234  1
  O  O408  1  0.38325553  0.24888733  0.24171736  1
  O  O409  1  0.37783372  0.23766663  0.74841699  1
  O  O410  1  0.38116017  0.74901936  0.24310273  1
  O  O411  1  0.38195145  0.75053086  0.74338223  1
  O  O412  1  0.88137302  0.24888228  0.23876972  1
  O  O413  1  0.88317045  0.24831793  0.74224895  1
  O  O414  1  0.88506926  0.75068823  0.24457365  1
  O  O415  1  0.88113760  0.74860751  0.74438625  1
  O  O416  1  0.38201676  0.49263671  0.49881749  1
  O  O417  1  0.38166001  0.49334357  0.99811357  1
  O  O418  1  0.37991196  0.99440894  0.49410335  1
  O  O419  1  0.38093793  0.99547935  0.99457438  1
  O  O420  1  0.88072695  0.49366336  0.49321409  1
  O  O421  1  0.87921718  0.49514784  0.99288346  1
  O  O422  1  0.87926751  0.99461319  0.49588408  1
  O  O423  1  0.88165184  0.99357411  0.99473439  1
  O  O424  1  0.12118248  0.00890940  -0.00137434  1
  O  O425  1  0.11823984  -0.00024807  0.50747148  1
  O  O426  1  0.11683515  0.50070925  0.00672962  1
  O  O427  1  0.12222832  0.50720847  0.50825463  1
  O  O428  1  0.61924949  0.00403230  0.00579211  1
  O  O429  1  0.61776665  0.00715517  0.50085885  1
  O  O430  1  0.61870379  0.50620662  0.00690133  1
  O  O431  1  0.61832637  0.50039813  0.51171491  1
  O  O432  1  0.37092526  0.36938556  0.11824242  1
  O  O433  1  0.36852993  0.37396730  0.61831525  1
  O  O434  1  0.37410721  0.86809887  0.11721575  1
  O  O435  1  0.36957933  0.87122676  0.61982951  1
  O  O436  1  0.87010880  0.36707645  0.12050977  1
  O  O437  1  0.86549871  0.36962644  0.62346857  1
  O  O438  1  0.86970402  0.86979628  0.12056789  1
  O  O439  1  0.86846459  0.86877407  0.62051269  1
  O  O440  1  0.13261351  0.13159230  0.37645682  1
  O  O441  1  0.12789472  0.13150306  0.88454221  1
  O  O442  1  0.13346595  0.62706418  0.38249179  1
  O  O443  1  0.13392809  0.63195970  0.87639352  1
  O  O444  1  0.63031071  0.13069714  0.37995714  1
  O  O445  1  0.63544282  0.12248217  0.88064196  1
  O  O446  1  0.63674710  0.62725190  0.37719054  1
  O  O447  1  0.63133553  0.62829499  0.87999030  1
