# generated using pymatgen
data_V3Zn3O8
_symmetry_space_group_name_H-M   'P 1'
_cell_length_a   17.08827666
_cell_length_b   17.08733819
_cell_length_c   17.08789330
_cell_angle_alpha   90.00018471
_cell_angle_beta   90.00281975
_cell_angle_gamma   89.99726254
_symmetry_Int_Tables_number   1
_chemical_formula_structural   V3Zn3O8
_chemical_formula_sum   'V96 Zn96 O256'
_cell_volume   4989.54798834
_cell_formula_units_Z   32
loop_
 _symmetry_equiv_pos_site_id
 _symmetry_equiv_pos_as_xyz
  1  'x, y, z'
loop_
 _atom_site_type_symbol
 _atom_site_label
 _atom_site_symmetry_multiplicity
 _atom_site_fract_x
 _atom_site_fract_y
 _atom_site_fract_z
 _atom_site_occupancy
  V  V0  1  -0.00152019  0.12648017  0.12607730  1
  V  V1  1  0.87464674  0.62632904  0.24994633  1
  V  V2  1  0.87577715  0.49959959  0.87598349  1
  V  V3  1  0.62535159  0.25077619  0.87474280  1
  V  V4  1  0.62489228  0.12485999  0.50151777  1
  V  V5  1  0.25081625  0.24907438  0.49996930  1
  V  V6  1  -0.00090834  0.74946895  0.24883638  1
  V  V7  1  -0.00034252  0.62522019  0.62529695  1
  V  V8  1  0.62486847  0.62561052  0.00035052  1
  V  V9  1  0.62485556  0.00113876  0.12605005  1
  V  V10  1  0.37367900  0.12426241  0.24973027  1
  V  V11  1  0.62553080  0.37627325  0.75003063  1
  V  V12  1  0.62469192  0.62595463  0.50013136  1
  V  V13  1  0.12465471  0.24911151  0.87263255  1
  V  V14  1  0.12549832  0.74932742  0.87439239  1
  V  V15  1  0.12396295  0.49985340  0.12404864  1
  V  V16  1  0.25001731  0.37424774  0.62378286  1
  V  V17  1  0.87459537  0.37497768  0.50121706  1
  V  V18  1  0.12460794  0.62514863  0.49935096  1
  V  V19  1  0.12435298  0.37413137  0.25038489  1
  V  V20  1  0.62440326  0.87641761  0.24978937  1
  V  V21  1  0.25119477  0.49913956  0.74990085  1
  V  V22  1  0.75086540  0.25160100  0.00167598  1
  V  V23  1  0.12636510  0.12455062  0.50005898  1
  V  V24  1  0.24956737  0.24928507  0.00012814  1
  V  V25  1  0.24909145  0.87489745  0.62514894  1
  V  V26  1  0.62633734  0.87610178  0.75006986  1
  V  V27  1  0.75079181  0.62518905  0.87536189  1
  V  V28  1  -0.00004131  -0.00065886  -0.00054367  1
  V  V29  1  0.37472119  0.74911166  0.12441119  1
  V  V30  1  0.87601035  0.62602250  0.75016164  1
  V  V31  1  0.87524459  0.24967341  0.62495631  1
  V  V32  1  0.87473964  0.87506508  0.50002825  1
  V  V33  1  -0.00071580  0.37545290  0.87550670  1
  V  V34  1  0.12556929  0.49893629  0.62412006  1
  V  V35  1  0.12546149  -0.00032006  0.62480663  1
  V  V36  1  0.37568641  0.87542726  0.50025989  1
  V  V37  1  0.24920624  0.37375783  0.12471022  1
  V  V38  1  0.74859045  0.50025145  0.25047225  1
  V  V39  1  0.50110545  0.00133756  0.50281134  1
  V  V40  1  0.25033076  0.62280018  0.87373136  1
  V  V41  1  0.37442570  0.62509307  0.25003545  1
  V  V42  1  0.12505854  0.87422558  0.74940525  1
  V  V43  1  0.87434306  0.75050261  0.12517092  1
  V  V44  1  0.62550458  0.50069658  0.62555210  1
  V  V45  1  0.87520552  0.12539791  0.74966829  1
  V  V46  1  0.87503767  0.87503554  0.00020550  1
  V  V47  1  0.49976921  0.62637967  0.62508719  1
  V  V48  1  0.37399867  0.25020537  0.12406768  1
  V  V49  1  0.75011663  0.75112486  0.50053114  1
  V  V50  1  0.74971720  0.50105541  0.75014587  1
  V  V51  1  0.62458992  0.75089528  0.37480861  1
  V  V52  1  -0.00022346  0.87586380  0.37352718  1
  V  V53  1  0.37445932  -0.00093698  0.87581044  1
  V  V54  1  0.74927782  0.00170949  0.25035054  1
  V  V55  1  0.87516738  0.00133689  0.37333871  1
  V  V56  1  0.37666635  0.12563511  0.74908728  1
  V  V57  1  0.62519172  0.12553336  0.00045018  1
  V  V58  1  0.74938593  0.62544943  0.37528408  1
  V  V59  1  0.87558907  0.00007196  0.87587957  1
  V  V60  1  0.75012827  0.75086548  0.00103995  1
  V  V61  1  0.24974331  0.75030077  0.49989439  1
  V  V62  1  0.75099030  0.37505610  0.12558901  1
  V  V63  1  0.00089549  0.12470613  0.62487634  1
  V  V64  1  0.75111576  0.12562707  0.37517704  1
  V  V65  1  0.49877039  0.49987932  0.00049123  1
  V  V66  1  0.25053625  -0.00020338  0.24942609  1
  V  V67  1  0.50054691  0.74998008  0.75015918  1
  V  V68  1  0.12465895  0.62282958  0.00048945  1
  V  V69  1  0.62456816  0.75002889  0.87548783  1
  V  V70  1  0.12427175  0.12370425  -0.00119107  1
  V  V71  1  0.49923664  0.37478864  0.87463280  1
  V  V72  1  0.00065893  0.37454497  0.37489628  1
  V  V73  1  0.37533352  0.74970956  0.62569964  1
  V  V74  1  0.49941178  0.87556695  0.37593707  1
  V  V75  1  0.49912357  -0.00022793  0.00044768  1
  V  V76  1  0.75001704  -0.00012046  0.75045425  1
  V  V77  1  0.87431269  0.50040331  0.37597181  1
  V  V78  1  0.25011552  0.50012861  0.25029700  1
  V  V79  1  0.49909389  0.74992545  0.24929720  1
  V  V80  1  0.75025903  0.12605615  0.87596155  1
  V  V81  1  0.37622508  0.37464792  0.49828202  1
  V  V82  1  0.24997396  0.62457163  0.37444249  1
  V  V83  1  0.49969223  0.12617467  0.12525667  1
  V  V84  1  0.12558499  0.87408924  0.24865371  1
  V  V85  1  0.12462512  0.75003378  0.37430807  1
  V  V86  1  0.49932281  0.50023062  0.49929311  1
  V  V87  1  0.12535346  0.24935828  0.37484021  1
  V  V88  1  0.75017025  0.25036429  0.50031753  1
  V  V89  1  0.25068331  0.74882320  -0.00044735  1
  V  V90  1  0.62513240  0.50071452  0.12572274  1
  V  V91  1  0.62392544  0.25120549  0.37519555  1
  V  V92  1  0.00077870  0.74928950  0.75012541  1
  V  V93  1  0.50014423  0.25077229  0.25109390  1
  V  V94  1  0.24997672  0.87300372  0.12374614  1
  V  V95  1  -0.00032840  0.50037559  0.50031021  1
  Zn  Zn96  1  -0.00197354  0.50075092  0.00207791  1
  Zn  Zn97  1  0.50271353  0.12846005  0.62682576  1
  Zn  Zn98  1  0.00081059  0.87461028  0.87481574  1
  Zn  Zn99  1  0.62790850  0.00196592  0.62629503  1
  Zn  Zn100  1  0.74951107  0.87666435  0.12535862  1
  Zn  Zn101  1  0.37596833  0.62518129  0.75071547  1
  Zn  Zn102  1  0.25054961  0.12402124  0.37541625  1
  Zn  Zn103  1  0.12516399  0.37245921  0.74795085  1
  Zn  Zn104  1  -0.00164229  0.24990172  0.24947997  1
  Zn  Zn105  1  0.12446585  -0.00142220  0.12265611  1
  Zn  Zn106  1  0.75201624  0.87571641  0.62545381  1
  Zn  Zn107  1  0.25009825  -0.00005088  0.75126383  1
  Zn  Zn108  1  0.37730287  0.24788190  0.62535952  1
  Zn  Zn109  1  0.37327750  0.37451947  -0.00131016  1
  Zn  Zn110  1  0.87566847  0.25134687  0.12666881  1
  Zn  Zn111  1  0.37643864  0.50036633  0.37377834  1
  Zn  Zn112  1  0.24954020  0.12421723  0.87422597  1
  Zn  Zn113  1  0.87575076  0.37566327  0.00090765  1
  Zn  Zn114  1  0.87553226  0.12817413  0.25033307  1
  Zn  Zn115  1  -0.00076129  0.62333143  0.12356795  1
  Zn  Zn116  1  0.87432494  0.75124701  0.62646338  1
  Zn  Zn117  1  0.75019912  0.37537472  0.62567439  1
  Zn  Zn118  1  0.49895607  0.87330183  0.87685827  1
  Zn  Zn119  1  0.37427855  0.49946329  0.87467643  1
  Zn  Zn120  1  0.37466271  0.00143318  0.37600263  1
  Zn  Zn121  1  0.00014936  0.25034369  0.74898850  1
  Zn  Zn122  1  0.50092287  0.37716228  0.37331053  1
  Zn  Zn123  1  0.49965642  0.62473361  0.12553539  1
  Zn  Zn124  1  0.00105068  0.00047422  0.49814072  1
  Zn  Zn125  1  0.62286247  0.37634538  0.25259018  1
  Zn  Zn126  1  0.50100352  0.24969328  0.74737581  1
  Zn  Zn127  1  0.37610590  0.87320683  -0.00133030  1
  Zn  Zn128  1  0.18454325  0.18663343  0.18657336  1
  Zn  Zn129  1  0.19152186  0.18559504  0.68741798  1
  Zn  Zn130  1  0.18725672  0.68618468  0.18631086  1
  Zn  Zn131  1  0.18743338  0.68632328  0.68716500  1
  Zn  Zn132  1  0.68676632  0.18867882  0.18946081  1
  Zn  Zn133  1  0.68747554  0.18820317  0.68703416  1
  Zn  Zn134  1  0.68708450  0.68801550  0.18653728  1
  Zn  Zn135  1  0.68879650  0.68923054  0.68656944  1
  Zn  Zn136  1  0.31193647  0.31143719  0.31284842  1
  Zn  Zn137  1  0.31277510  0.31166112  0.81193361  1
  Zn  Zn138  1  0.31338138  0.81315969  0.31284520  1
  Zn  Zn139  1  0.31213694  0.81269688  0.81192934  1
  Zn  Zn140  1  0.81386275  0.31126040  0.31091057  1
  Zn  Zn141  1  0.81259604  0.31283062  0.81178313  1
  Zn  Zn142  1  0.81118639  0.81434136  0.31228391  1
  Zn  Zn143  1  0.81336955  0.81278939  0.81428595  1
  Zn  Zn144  1  0.18856990  0.43699805  0.43658300  1
  Zn  Zn145  1  0.18555670  0.43563725  0.93784168  1
  Zn  Zn146  1  0.18723600  0.93797103  0.43687848  1
  Zn  Zn147  1  0.18828447  0.93604100  0.93681757  1
  Zn  Zn148  1  0.68687065  0.43627172  0.43844759  1
  Zn  Zn149  1  0.68695391  0.43809166  0.93838134  1
  Zn  Zn150  1  0.68770939  0.93868208  0.43646413  1
  Zn  Zn151  1  0.68798076  0.93776374  0.93754443  1
  Zn  Zn152  1  0.31136609  0.06304857  0.06211412  1
  Zn  Zn153  1  0.31285188  0.06177734  0.56453776  1
  Zn  Zn154  1  0.31242386  0.56201241  0.06313799  1
  Zn  Zn155  1  0.31342202  0.56229461  0.56275727  1
  Zn  Zn156  1  0.81315898  0.06271285  0.06335862  1
  Zn  Zn157  1  0.81237041  0.06133950  0.56320730  1
  Zn  Zn158  1  0.81351211  0.56225301  0.06219201  1
  Zn  Zn159  1  0.81225824  0.56375440  0.56396896  1
  Zn  Zn160  1  0.43587708  0.43582774  0.18725255  1
  Zn  Zn161  1  0.43713950  0.43734551  0.68526048  1
  Zn  Zn162  1  0.43600918  0.93646847  0.18597996  1
  Zn  Zn163  1  0.43841472  0.93727010  0.68839906  1
  Zn  Zn164  1  0.93768341  0.43888011  0.18889056  1
  Zn  Zn165  1  0.93761374  0.43676201  0.68941652  1
  Zn  Zn166  1  0.93648127  0.93919931  0.18635614  1
  Zn  Zn167  1  0.93944370  0.93797662  0.68683270  1
  Zn  Zn168  1  0.06419776  0.06205868  0.31168770  1
  Zn  Zn169  1  0.06090047  0.06141024  0.81077497  1
  Zn  Zn170  1  0.06187349  0.56205680  0.31116552  1
  Zn  Zn171  1  0.06391669  0.56095323  0.81240031  1
  Zn  Zn172  1  0.56203578  0.06397935  0.31484027  1
  Zn  Zn173  1  0.56061334  0.06194874  0.81436803  1
  Zn  Zn174  1  0.56095603  0.56281048  0.31314257  1
  Zn  Zn175  1  0.56295329  0.56319600  0.81264826  1
  Zn  Zn176  1  0.43670305  0.18679615  0.43535052  1
  Zn  Zn177  1  0.43679025  0.18682256  0.93674972  1
  Zn  Zn178  1  0.43677373  0.68779467  0.43684281  1
  Zn  Zn179  1  0.43570932  0.68522306  0.93548067  1
  Zn  Zn180  1  0.93907591  0.18753164  0.43852424  1
  Zn  Zn181  1  0.93639103  0.18907749  0.94018735  1
  Zn  Zn182  1  0.93724051  0.68883756  0.43668910  1
  Zn  Zn183  1  0.93938384  0.68723349  0.93802158  1
  Zn  Zn184  1  0.06286690  0.31178481  0.06052966  1
  Zn  Zn185  1  0.06267293  0.31098058  0.56157974  1
  Zn  Zn186  1  0.06192142  0.81120394  0.06212714  1
  Zn  Zn187  1  0.06089312  0.81266365  0.56280648  1
  Zn  Zn188  1  0.56419943  0.31333989  0.06365162  1
  Zn  Zn189  1  0.56117932  0.31190416  0.56430569  1
  Zn  Zn190  1  0.56096094  0.81445238  0.06350242  1
  Zn  Zn191  1  0.56335261  0.81422779  0.56465804  1
  O  O192  1  0.11532598  0.12319094  0.11677584  1
  O  O193  1  0.12108132  0.11978043  0.62025299  1
  O  O194  1  0.12487731  0.61765176  0.11860151  1
  O  O195  1  0.11975267  0.61903765  0.61792410  1
  O  O196  1  0.61890636  0.12078809  0.11971425  1
  O  O197  1  0.62332378  0.12212089  0.61722138  1
  O  O198  1  0.62317726  0.61871244  0.11790046  1
  O  O199  1  0.61954153  0.62107090  0.61911498  1
  O  O200  1  0.37500211  0.37709555  0.38755609  1
  O  O201  1  0.38694761  0.37694340  0.87710469  1
  O  O202  1  0.38189948  0.87564502  0.38270999  1
  O  O203  1  0.37697218  0.88580635  0.87583980  1
  O  O204  1  0.88014043  0.38150917  0.38121468  1
  O  O205  1  0.88361842  0.38052474  0.87462804  1
  O  O206  1  0.87977750  0.88027174  0.38167725  1
  O  O207  1  0.87692555  0.88224836  0.88204454  1
  O  O208  1  0.25185070  -0.00092850  0.36109081  1
  O  O209  1  0.26175857  0.00184104  0.87426200  1
  O  O210  1  0.25039224  0.50739408  0.36817899  1
  O  O211  1  0.24908490  0.50246432  0.86520421  1
  O  O212  1  0.75465938  0.00646059  0.36961940  1
  O  O213  1  0.75573770  0.00734136  0.87091740  1
  O  O214  1  0.75464051  0.50614626  0.37105550  1
  O  O215  1  0.75439404  0.50616276  0.86990821  1
  O  O216  1  0.24422937  0.49355787  0.13080795  1
  O  O217  1  0.24457868  0.49551660  0.63079150  1
  O  O218  1  0.24898091  0.99303773  0.13395638  1
  O  O219  1  0.24338018  0.99128379  0.62636674  1
  O  O220  1  0.74488882  0.49390506  0.13008927  1
  O  O221  1  0.74313105  0.50071453  0.63219549  1
  O  O222  1  0.74202801  1.00068182  0.13168342  1
  O  O223  1  0.74844680  0.99685490  0.63475045  1
  O  O224  1  0.00705382  0.37571010  0.25785726  1
  O  O225  1  0.00329158  0.37227762  0.76161772  1
  O  O226  1  0.00527583  0.86947972  0.25431632  1
  O  O227  1  0.00697710  0.86749498  0.75091322  1
  O  O228  1  0.50144207  0.36680894  0.25190629  1
  O  O229  1  0.50595601  0.37799147  0.76071672  1
  O  O230  1  0.50459101  0.87012389  0.25582473  1
  O  O231  1  0.51061906  0.86896764  0.75171176  1
  O  O232  1  0.49415095  0.12987415  0.24409481  1
  O  O233  1  0.49044591  0.12607500  0.75019068  1
  O  O234  1  0.49312566  0.63231350  0.24910322  1
  O  O235  1  0.50011121  0.63143722  0.74284489  1
  O  O236  1  1.00126354  0.12521335  0.23779197  1
  O  O237  1  0.99235345  0.12668377  0.74288994  1
  O  O238  1  0.99222836  0.63200430  0.25036046  1
  O  O239  1  0.99602142  0.62905611  0.74472656  1
  O  O240  1  0.36829008  0.25015170  0.00651896  1
  O  O241  1  0.36949054  0.25873084  0.49995467  1
  O  O242  1  0.36819137  0.74896692  0.00563367  1
  O  O243  1  0.36954520  0.75567352  0.50569354  1
  O  O244  1  0.86523975  0.25433727  0.00403984  1
  O  O245  1  0.86975218  0.25559736  0.50507155  1
  O  O246  1  0.86972451  0.75453594  0.00463271  1
  O  O247  1  0.86926658  0.75995079  0.49816351  1
  O  O248  1  0.13162190  0.24460943  0.49471749  1
  O  O249  1  0.12963163  0.24412992  0.99040405  1
  O  O250  1  0.12982208  0.74495314  0.49405598  1
  O  O251  1  0.13138222  0.74345117  0.99447039  1
  O  O252  1  0.63046820  0.24479500  0.49521350  1
  O  O253  1  0.63056904  0.24448645  0.99488136  1
  O  O254  1  0.62938343  0.74585164  0.49440249  1
  O  O255  1  0.62946719  0.74547718  0.99562835  1
  O  O256  1  0.49509503  0.24491744  0.12958922  1
  O  O257  1  0.49519289  0.24721045  0.62977319  1
  O  O258  1  0.49356595  0.74834183  0.13183009  1
  O  O259  1  0.49539054  0.74538065  0.62982542  1
  O  O260  1  0.99931545  0.23933701  0.12404931  1
  O  O261  1  0.99371074  0.24343691  0.62623182  1
  O  O262  1  0.99263270  0.74773405  0.13214194  1
  O  O263  1  0.99925825  0.74204410  0.63148933  1
  O  O264  1  0.00771927  0.25772752  0.37578329  1
  O  O265  1  0.00799250  0.25726289  0.87478487  1
  O  O266  1  0.00552610  0.75547265  0.36850178  1
  O  O267  1  0.00819243  0.75016098  0.86773152  1
  O  O268  1  0.50653922  0.25067909  0.36849306  1
  O  O269  1  0.50670861  0.26108340  0.87662630  1
  O  O270  1  0.50569000  0.75562573  0.36986745  1
  O  O271  1  0.50689999  0.75005937  0.86882721  1
  O  O272  1  0.24471211  0.13081655  0.49945302  1
  O  O273  1  0.24217030  0.13174118  0.99857265  1
  O  O274  1  0.24392507  0.63069504  0.49527208  1
  O  O275  1  0.24445940  0.62882786  0.99373148  1
  O  O276  1  0.74514862  0.13023090  0.49438506  1
  O  O277  1  0.74417305  0.13067794  0.99544839  1
  O  O278  1  0.74442060  0.63032299  0.49424703  1
  O  O279  1  0.74452535  0.63071282  0.99438182  1
  O  O280  1  0.25034195  0.36762666  0.00678439  1
  O  O281  1  0.25746275  0.37078232  0.50432829  1
  O  O282  1  0.25135468  0.86640390  0.00620009  1
  O  O283  1  0.25498245  0.86895269  0.50459660  1
  O  O284  1  0.74879253  0.37068395  0.00972639  1
  O  O285  1  0.75746639  0.36902876  0.50200095  1
  O  O286  1  0.75615461  0.86851375  0.00129696  1
  O  O287  1  0.75919371  0.87007268  0.49844228  1
  O  O288  1  0.13096103  0.49451167  0.24497896  1
  O  O289  1  0.13599254  0.49820469  0.74292631  1
  O  O290  1  0.13490005  0.99248969  0.24750224  1
  O  O291  1  0.12659790  0.99285082  0.74358735  1
  O  O292  1  0.63116666  0.50065027  0.24410059  1
  O  O293  1  0.63064139  0.49657097  0.74519150  1
  O  O294  1  0.62857733  0.99610148  0.24577550  1
  O  O295  1  0.63043921  0.99111451  0.75274886  1
  O  O296  1  0.36591056  0.00474828  0.24953099  1
  O  O297  1  0.37598240  0.00625467  0.75928150  1
  O  O298  1  0.36779709  0.50636407  0.25059715  1
  O  O299  1  0.36193062  0.50141275  0.74881554  1
  O  O300  1  0.86750115  0.00182056  0.25667565  1
  O  O301  1  0.87022836  0.00527355  0.75599405  1
  O  O302  1  0.86842475  0.50633057  0.25715902  1
  O  O303  1  0.86953439  0.50671482  0.75580039  1
  O  O304  1  0.11987300  0.37030206  0.37049120  1
  O  O305  1  0.11659014  0.36521281  0.87394104  1
  O  O306  1  0.12009190  0.86865623  0.36904003  1
  O  O307  1  0.12458598  0.86689555  0.86777771  1
  O  O308  1  0.62291334  0.36648637  0.37381989  1
  O  O309  1  0.61766855  0.37135782  0.87037935  1
  O  O310  1  0.61896945  0.86966592  0.36978570  1
  O  O311  1  0.62475714  0.86893752  0.86543356  1
  O  O312  1  0.38063154  0.13086533  0.12996271  1
  O  O313  1  0.37815883  0.12371303  0.63694479  1
  O  O314  1  0.37591094  0.63144981  0.13232870  1
  O  O315  1  0.38177246  0.63252900  0.62532262  1
  O  O316  1  0.88684978  0.12588833  0.12556432  1
  O  O317  1  0.88057946  0.12974730  0.62946965  1
  O  O318  1  0.87499775  0.63163990  0.13267443  1
  O  O319  1  0.88246204  0.62613635  0.63192357  1
  O  O320  1  0.25378228  0.25452270  0.12000774  1
  O  O321  1  0.25260936  0.25703146  0.61771767  1
  O  O322  1  0.25513951  0.75362250  0.11944822  1
  O  O323  1  0.25441456  0.75449383  0.61847044  1
  O  O324  1  0.74790677  0.26009151  0.12049194  1
  O  O325  1  0.75725569  0.25159135  0.61778403  1
  O  O326  1  0.75596953  0.75224887  0.11854293  1
  O  O327  1  0.75367138  0.75300679  0.61612441  1
  O  O328  1  0.24247001  0.24870596  0.38188606  1
  O  O329  1  0.23953950  0.25051954  0.88091993  1
  O  O330  1  0.24385006  0.74516016  0.38036426  1
  O  O331  1  0.24495018  0.74316824  0.87928512  1
  O  O332  1  0.74493713  0.24496117  0.38109016  1
  O  O333  1  0.74460449  0.24553695  0.88125830  1
  O  O334  1  0.74359460  0.74471228  0.37976074  1
  O  O335  1  0.74461514  0.74373722  0.88118834  1
  O  O336  1  0.00436008  0.11944289  0.00670987  1
  O  O337  1  0.00810949  0.12324364  0.50710571  1
  O  O338  1  0.00955520  0.62247031  0.00198399  1
  O  O339  1  0.00497858  0.62005361  0.50402349  1
  O  O340  1  0.50608632  0.12055924  0.00598778  1
  O  O341  1  0.50517576  0.11501376  0.49889973  1
  O  O342  1  0.50596993  0.61452140  -0.00042181  1
  O  O343  1  0.50572531  0.62144462  0.50513306  1
  O  O344  1  0.49051022  0.38139081  0.49999642  1
  O  O345  1  0.50240012  0.38389655  0.99132134  1
  O  O346  1  0.49628526  0.88162908  0.49581490  1
  O  O347  1  0.49723950  0.88389516  0.99770619  1
  O  O348  1  0.99465164  0.38172087  0.49475677  1
  O  O349  1  0.99853221  0.37689774  0.98736277  1
  O  O350  1  0.99085363  0.87470388  0.49213523  1
  O  O351  1  0.99343014  0.88095198  0.99859592  1
  O  O352  1  0.49708461  0.49852818  0.38364066  1
  O  O353  1  0.50166123  0.49170965  0.88356907  1
  O  O354  1  0.49932070  0.99374935  0.38583723  1
  O  O355  1  0.49058829  0.99892332  0.88273419  1
  O  O356  1  0.99423929  0.49544916  0.38116279  1
  O  O357  1  0.99546087  0.49073049  0.87473207  1
  O  O358  1  0.99427548  0.99286500  0.37494822  1
  O  O359  1  0.99265474  0.99916672  0.88183930  1
  O  O360  1  0.00182030  0.00848982  0.11794251  1
  O  O361  1  0.00741689  0.00672976  0.62196004  1
  O  O362  1  0.00812812  0.50194481  0.12356445  1
  O  O363  1  0.00553248  0.50516212  0.61976468  1
  O  O364  1  0.50479257  0.00697802  0.12085571  1
  O  O365  1  0.50330272  -0.00094229  0.61175664  1
  O  O366  1  0.50571806  0.49902618  0.11509390  1
  O  O367  1  0.50605492  0.50676394  0.61951570  1
  O  O368  1  0.24418445  0.38012449  0.24462511  1
  O  O369  1  0.24931711  0.38321158  0.74327945  1
  O  O370  1  0.24563839  0.88060066  0.24442777  1
  O  O371  1  0.24273738  0.87473620  0.74186544  1
  O  O372  1  0.74816678  0.38212016  0.24181630  1
  O  O373  1  0.74342032  0.38346383  0.74969627  1
  O  O374  1  0.74153163  0.88303119  0.24997806  1
  O  O375  1  0.74191894  0.88035037  0.75148694  1
  O  O376  1  0.25404980  0.11456554  0.24763342  1
  O  O377  1  0.26194216  0.12091441  0.75349560  1
  O  O378  1  0.25439949  0.62011054  0.25550197  1
  O  O379  1  0.24997227  0.61484530  0.75423952  1
  O  O380  1  0.74999742  0.11897509  0.25769961  1
  O  O381  1  0.75501738  0.11993838  0.75714964  1
  O  O382  1  0.75470958  0.62062805  0.25650834  1
  O  O383  1  0.75521380  0.62098461  0.75619845  1
  O  O384  1  0.37076062  0.12171338  0.36529448  1
  O  O385  1  0.37464198  0.11589618  0.86789181  1
  O  O386  1  0.36690704  0.62531809  0.36865877  1
  O  O387  1  0.36627584  0.61980077  0.87053920  1
  O  O388  1  0.86914568  0.11865670  0.37582339  1
  O  O389  1  0.86930387  0.12049315  0.87049942  1
  O  O390  1  0.86883082  0.62000583  0.37058868  1
  O  O391  1  0.86991830  0.62006806  0.86950015  1
  O  O392  1  0.13007096  0.37926317  0.13034803  1
  O  O393  1  0.13131272  0.38138327  0.62466153  1
  O  O394  1  0.13185086  0.87450165  0.13154591  1
  O  O395  1  0.12968645  0.87918857  0.62904181  1
  O  O396  1  0.63565626  0.38189734  0.12692142  1
  O  O397  1  0.62632543  0.38335245  0.63184511  1
  O  O398  1  0.62562097  0.88329172  0.13241907  1
  O  O399  1  0.62818196  0.87627246  0.63905782  1
  O  O400  1  0.12368528  0.25716151  0.25670391  1
  O  O401  1  0.12483023  0.24982116  0.76134635  1
  O  O402  1  0.12000650  0.75425592  0.25538052  1
  O  O403  1  0.12037408  0.75381243  0.75451537  1
  O  O404  1  0.61752726  0.25057615  0.25749198  1
  O  O405  1  0.62491414  0.25741020  0.75800328  1
  O  O406  1  0.61955974  0.75548783  0.25542049  1
  O  O407  1  0.62155599  0.75712460  0.75563950  1
  O  O408  1  0.37909549  0.24421171  0.24350463  1
  O  O409  1  0.37732495  0.23846367  0.75107041  1
  O  O410  1  0.37952473  0.74497562  0.24475033  1
  O  O411  1  0.38211828  0.74956432  0.74282229  1
  O  O412  1  0.88013431  0.24621292  0.24553574  1
  O  O413  1  0.87481319  0.24241914  0.74346515  1
  O  O414  1  0.87886278  0.74593232  0.24594041  1
  O  O415  1  0.88166886  0.74335892  0.75020669  1
  O  O416  1  0.37997672  0.49156338  0.49914819  1
  O  O417  1  0.38698061  0.49748726  0.99909311  1
  O  O418  1  0.38399369  0.99373537  0.49921847  1
  O  O419  1  0.38046249  1.00085574  0.99182410  1
  O  O420  1  0.88006425  0.49614454  0.49517596  1
  O  O421  1  0.87685395  0.49782502  0.99091102  1
  O  O422  1  0.87577632  0.98994010  0.49269092  1
  O  O423  1  0.87930369  0.99487163  0.99473224  1
  O  O424  1  0.11871691  0.00569821  -0.00061702  1
  O  O425  1  0.12432088  0.00567901  0.50618904  1
  O  O426  1  0.12494754  0.50570359  0.00670401  1
  O  O427  1  0.11938724  0.50569555  0.50400111  1
  O  O428  1  0.62017128  0.00659083  0.00517259  1
  O  O429  1  0.61698252  0.00505032  0.50021496  1
  O  O430  1  0.61742768  0.50580683  0.00479185  1
  O  O431  1  0.62033017  0.50688779  0.50544197  1
  O  O432  1  0.36682897  0.36727928  0.12287388  1
  O  O433  1  0.36875110  0.37498063  0.61319569  1
  O  O434  1  0.36768101  0.86667394  0.12309910  1
  O  O435  1  0.36973864  0.86916857  0.61963967  1
  O  O436  1  0.86160388  0.37727845  0.12400742  1
  O  O437  1  0.87447916  0.36913395  0.61890093  1
  O  O438  1  0.87222565  0.86868251  0.11857597  1
  O  O439  1  0.87518007  0.87350480  0.61226854  1
  O  O440  1  0.12711226  0.13087583  0.38160796  1
  O  O441  1  0.12366148  0.13417929  0.87966080  1
  O  O442  1  0.12958635  0.63065782  0.38013018  1
  O  O443  1  0.13151239  0.62942382  0.87990597  1
  O  O444  1  0.63123623  0.13126866  0.38187738  1
  O  O445  1  0.63063652  0.13055566  0.88105878  1
  O  O446  1  0.63011090  0.63157422  0.38076287  1
  O  O447  1  0.63145011  0.63040292  0.88060306  1
