# generated using pymatgen
data_V3Zn3O8
_symmetry_space_group_name_H-M   'P 1'
_cell_length_a   17.08891781
_cell_length_b   17.08735788
_cell_length_c   17.08685111
_cell_angle_alpha   90.00526288
_cell_angle_beta   90.01606077
_cell_angle_gamma   89.98842693
_symmetry_Int_Tables_number   1
_chemical_formula_structural   V3Zn3O8
_chemical_formula_sum   'V96 Zn96 O256'
_cell_volume   4989.43631561
_cell_formula_units_Z   32
loop_
 _symmetry_equiv_pos_site_id
 _symmetry_equiv_pos_as_xyz
  1  'x, y, z'
loop_
 _atom_site_type_symbol
 _atom_site_label
 _atom_site_symmetry_multiplicity
 _atom_site_fract_x
 _atom_site_fract_y
 _atom_site_fract_z
 _atom_site_occupancy
  V  V0  1  0.62607135  0.62507172  -0.00065512  1
  V  V1  1  0.37494063  0.37588399  -0.00014302  1
  V  V2  1  0.37539132  0.12549237  0.74987184  1
  V  V3  1  0.25140476  0.25089842  0.00008391  1
  V  V4  1  0.12475761  0.87451855  0.25098583  1
  V  V5  1  0.74973934  0.49985424  0.75031693  1
  V  V6  1  0.62394191  0.24978666  0.87409353  1
  V  V7  1  0.49997045  0.74932236  0.74933365  1
  V  V8  1  0.00052127  0.87577706  0.37522861  1
  V  V9  1  0.12458409  0.12544908  0.50030964  1
  V  V10  1  0.75007258  0.12452101  0.37579331  1
  V  V11  1  0.12429436  0.49979159  0.62507272  1
  V  V12  1  0.62312662  0.37478813  0.74960421  1
  V  V13  1  0.12503965  0.62531127  0.49974534  1
  V  V14  1  -0.00057512  0.37439719  0.37345832  1
  V  V15  1  0.24971572  0.87566365  0.62594075  1
  V  V16  1  -0.00095507  0.49813758  -0.00170253  1
  V  V17  1  0.12538392  0.87639592  0.74956266  1
  V  V18  1  0.87514503  0.12580028  0.75017314  1
  V  V19  1  0.12379798  0.25136611  0.87475917  1
  V  V20  1  0.75009552  0.74873696  0.49959800  1
  V  V21  1  0.24955128  0.37565735  0.62431669  1
  V  V22  1  0.24958291  0.74975128  0.50032607  1
  V  V23  1  0.12451844  0.37515107  0.75059929  1
  V  V24  1  0.62617504  0.87443962  0.75055078  1
  V  V25  1  0.00054024  0.00074969  0.49950215  1
  V  V26  1  0.50075404  0.12441545  0.12602672  1
  V  V27  1  0.87298551  0.25069880  0.62425176  1
  V  V28  1  0.00089868  0.00032552  -0.00023128  1
  V  V29  1  0.00013224  0.87560083  0.87418098  1
  V  V30  1  0.74866733  0.49932895  0.24930871  1
  V  V31  1  0.37608864  -0.00076749  0.87572727  1
  V  V32  1  0.37542806  0.12416179  0.25069352  1
  V  V33  1  0.37467548  0.00043842  0.37608392  1
  V  V34  1  0.87361463  0.49911732  0.37469914  1
  V  V35  1  0.12558376  0.00045124  0.12423033  1
  V  V36  1  0.37463754  0.87511525  0.50035054  1
  V  V37  1  0.37468560  0.62597801  0.24952419  1
  V  V38  1  0.37605787  0.87530673  0.00028250  1
  V  V39  1  0.00094875  0.12616579  0.12510199  1
  V  V40  1  0.75022249  0.12519369  0.87433296  1
  V  V41  1  0.12485399  0.37451644  0.25037303  1
  V  V42  1  0.49968211  0.62539332  0.62491354  1
  V  V43  1  0.49961423  0.49917142  -0.00029769  1
  V  V44  1  0.24985052  0.75042701  0.00006308  1
  V  V45  1  0.37493196  0.50012869  0.37439119  1
  V  V46  1  0.87508644  0.25032426  0.12453825  1
  V  V47  1  0.12583191  0.75143620  0.87527718  1
  V  V48  1  0.74960266  0.62477948  0.37499970  1
  V  V49  1  0.37583605  0.74988042  0.62577554  1
  V  V50  1  0.62297464  0.49957234  0.62440922  1
  V  V51  1  0.74904826  0.25016543  0.00029440  1
  V  V52  1  0.25088121  0.62515814  0.87508717  1
  V  V53  1  0.62451407  0.12393120  0.00044645  1
  V  V54  1  0.24956189  0.25099810  0.50060855  1
  V  V55  1  0.62479347  0.24892961  0.37596770  1
  V  V56  1  0.74934630  0.37446355  0.12458676  1
  V  V57  1  0.49898669  0.37485493  0.87472176  1
  V  V58  1  -0.00035322  0.12520531  0.62478437  1
  V  V59  1  0.87541375  -0.00017424  0.37437536  1
  V  V60  1  0.62539221  0.87424904  0.24995768  1
  V  V61  1  0.49983345  0.50070982  0.49995819  1
  V  V62  1  0.49895894  0.24896284  0.25076379  1
  V  V63  1  0.87527682  0.62517185  0.24972303  1
  V  V64  1  0.50205356  -0.00051487  0.50116140  1
  V  V65  1  0.49992211  0.75020166  0.25092145  1
  V  V66  1  0.87387567  0.87234126  0.00154487  1
  V  V67  1  0.87508806  0.74949374  0.62475186  1
  V  V68  1  0.25020420  0.12529644  0.37515115  1
  V  V69  1  0.62497173  0.49928903  0.12465231  1
  V  V70  1  0.37508876  0.75034247  0.12656261  1
  V  V71  1  0.87532458  0.00153842  0.87399352  1
  V  V72  1  0.62541867  0.74959924  0.37434306  1
  V  V73  1  0.87346279  0.37401498  0.49963322  1
  V  V74  1  0.24893792  0.62548412  0.37573771  1
  V  V75  1  0.75045618  0.87523285  0.62571802  1
  V  V76  1  0.25012277  0.50024546  0.24981906  1
  V  V77  1  0.37318120  0.37519354  0.50014554  1
  V  V78  1  -0.00107399  0.50019763  0.49962025  1
  V  V79  1  0.62604295  0.74880125  0.87633734  1
  V  V80  1  0.12500300  0.50022075  0.12526297  1
  V  V81  1  0.24985162  0.87588262  0.12557668  1
  V  V82  1  0.24996517  -0.00034134  0.75006737  1
  V  V83  1  0.24965920  0.50146928  0.75046437  1
  V  V84  1  0.25098008  0.37471133  0.12461838  1
  V  V85  1  0.49989405  0.12580462  0.62615837  1
  V  V86  1  0.25102928  0.12553712  0.87535025  1
  V  V87  1  0.87473595  0.62315024  0.75069350  1
  V  V88  1  0.74994649  -0.00199712  0.25005050  1
  V  V89  1  -0.00015451  0.75004491  0.74973345  1
  V  V90  1  0.49928657  0.37447672  0.37446490  1
  V  V91  1  0.12360965  0.25036786  0.37430400  1
  V  V92  1  0.50050593  0.87474873  0.87555106  1
  V  V93  1  -0.00086332  0.62695269  0.12592644  1
  V  V94  1  -0.00000152  0.62498377  0.62484962  1
  V  V95  1  0.62643450  -0.00048096  0.12556188  1
  Zn  Zn96  1  0.74676857  0.37342169  0.62231682  1
  Zn  Zn97  1  0.37551704  0.62417675  0.75026635  1
  Zn  Zn98  1  0.37558027  0.24884874  0.12516638  1
  Zn  Zn99  1  -0.00124341  0.25220343  0.75126726  1
  Zn  Zn100  1  0.75331253  0.62548342  0.87586306  1
  Zn  Zn101  1  0.87548789  0.49772393  0.87460485  1
  Zn  Zn102  1  0.50010094  0.87438502  0.37604828  1
  Zn  Zn103  1  0.12339117  0.74996827  0.37526149  1
  Zn  Zn104  1  0.62611882  0.12403482  0.50295795  1
  Zn  Zn105  1  0.25151664  0.00058545  0.25011939  1
  Zn  Zn106  1  0.87374573  0.37603926  -0.00393935  1
  Zn  Zn107  1  0.87555439  0.12429081  0.24942295  1
  Zn  Zn108  1  0.74941809  0.00045271  0.74926519  1
  Zn  Zn109  1  0.37416222  0.25096718  0.62641788  1
  Zn  Zn110  1  0.12482721  0.00175190  0.62532760  1
  Zn  Zn111  1  0.37508161  0.50033544  0.87383213  1
  Zn  Zn112  1  -0.00170337  0.75025556  0.25216880  1
  Zn  Zn113  1  0.50118491  -0.00055732  0.00077073  1
  Zn  Zn114  1  0.62443865  0.62479287  0.49943523  1
  Zn  Zn115  1  0.12472260  0.62617397  0.00142444  1
  Zn  Zn116  1  0.12738170  0.12535852  -0.00019632  1
  Zn  Zn117  1  -0.00276447  0.37565266  0.87364687  1
  Zn  Zn118  1  0.75025823  0.87201524  0.12472805  1
  Zn  Zn119  1  0.62795517  0.00126398  0.62660534  1
  Zn  Zn120  1  0.62358398  0.37547488  0.24941862  1
  Zn  Zn121  1  0.74847356  0.25048635  0.49930872  1
  Zn  Zn122  1  0.75151015  0.74848722  0.00055329  1
  Zn  Zn123  1  0.49949432  0.62435570  0.12515786  1
  Zn  Zn124  1  0.87306796  0.75092672  0.12677487  1
  Zn  Zn125  1  0.49802319  0.25127794  0.74902832  1
  Zn  Zn126  1  0.87674620  0.87458107  0.49966440  1
  Zn  Zn127  1  -0.00057014  0.25014028  0.24930824  1
  Zn  Zn128  1  0.18844323  0.18821957  0.18799138  1
  Zn  Zn129  1  0.18760633  0.18806308  0.68791728  1
  Zn  Zn130  1  0.18673866  0.68864298  0.18778880  1
  Zn  Zn131  1  0.18741114  0.68819237  0.68789233  1
  Zn  Zn132  1  0.68696038  0.18635130  0.18970214  1
  Zn  Zn133  1  0.68692341  0.18750898  0.68896502  1
  Zn  Zn134  1  0.68932648  0.68880907  0.18448755  1
  Zn  Zn135  1  0.68628128  0.68600896  0.68742399  1
  Zn  Zn136  1  0.31233844  0.31129509  0.31225754  1
  Zn  Zn137  1  0.31295003  0.31286003  0.81196017  1
  Zn  Zn138  1  0.31203796  0.81335887  0.31421033  1
  Zn  Zn139  1  0.31399270  0.81223809  0.81212001  1
  Zn  Zn140  1  0.81159156  0.31229292  0.30974175  1
  Zn  Zn141  1  0.81189909  0.31501387  0.81230212  1
  Zn  Zn142  1  0.81387180  0.81210952  0.31189726  1
  Zn  Zn143  1  0.81184310  0.81060182  0.81423734  1
  Zn  Zn144  1  0.18644568  0.43812164  0.43706544  1
  Zn  Zn145  1  0.18579533  0.43836162  0.93860525  1
  Zn  Zn146  1  0.18738858  0.93919015  0.43804330  1
  Zn  Zn147  1  0.18831105  0.93825377  0.93796594  1
  Zn  Zn148  1  0.68669593  0.43602828  0.43795625  1
  Zn  Zn149  1  0.68675714  0.43676344  0.93682333  1
  Zn  Zn150  1  0.68786466  0.93524670  0.43774531  1
  Zn  Zn151  1  0.68881185  0.93844761  0.93701585  1
  Zn  Zn152  1  0.31368549  0.06262391  0.06265516  1
  Zn  Zn153  1  0.31344969  0.06255477  0.56304968  1
  Zn  Zn154  1  0.31308136  0.56274165  0.06163520  1
  Zn  Zn155  1  0.31333356  0.56311646  0.56329452  1
  Zn  Zn156  1  0.81247920  0.06127892  0.06195442  1
  Zn  Zn157  1  0.81461407  0.06154025  0.56094270  1
  Zn  Zn158  1  0.81324462  0.56138135  0.06288338  1
  Zn  Zn159  1  0.81096242  0.56222760  0.56340102  1
  Zn  Zn160  1  0.43818301  0.43681702  0.18648159  1
  Zn  Zn161  1  0.43532915  0.43908819  0.68860878  1
  Zn  Zn162  1  0.43960539  0.93777377  0.18873183  1
  Zn  Zn163  1  0.43812865  0.93756921  0.68809983  1
  Zn  Zn164  1  0.93666512  0.43752404  0.18602757  1
  Zn  Zn165  1  0.93732886  0.43546230  0.68797582  1
  Zn  Zn166  1  0.93809028  0.93921916  0.18822134  1
  Zn  Zn167  1  0.93681615  0.93917493  0.68687583  1
  Zn  Zn168  1  0.06338776  0.06170045  0.31108539  1
  Zn  Zn169  1  0.06250177  0.06483321  0.81122922  1
  Zn  Zn170  1  0.06231358  0.56135561  0.31247815  1
  Zn  Zn171  1  0.06412411  0.56365286  0.81345420  1
  Zn  Zn172  1  0.56285835  0.06159604  0.31310561  1
  Zn  Zn173  1  0.56342798  0.06043878  0.81151867  1
  Zn  Zn174  1  0.56267954  0.56387805  0.31151271  1
  Zn  Zn175  1  0.56231026  0.56228186  0.81294076  1
  Zn  Zn176  1  0.43644192  0.18716265  0.43931244  1
  Zn  Zn177  1  0.43833217  0.18819272  0.93847266  1
  Zn  Zn178  1  0.43770997  0.68744949  0.43735921  1
  Zn  Zn179  1  0.43853847  0.68809892  0.93840630  1
  Zn  Zn180  1  0.93688648  0.18746260  0.43796285  1
  Zn  Zn181  1  0.93780324  0.18771476  0.93955277  1
  Zn  Zn182  1  0.93718004  0.68928826  0.43655347  1
  Zn  Zn183  1  0.93784847  0.68519366  0.93634985  1
  Zn  Zn184  1  0.06394144  0.31361982  0.06088497  1
  Zn  Zn185  1  0.06060298  0.31216631  0.56209776  1
  Zn  Zn186  1  0.06235032  0.81237079  0.06227377  1
  Zn  Zn187  1  0.06364956  0.81374385  0.56234797  1
  Zn  Zn188  1  0.56208577  0.31198920  0.06268341  1
  Zn  Zn189  1  0.56084095  0.31249662  0.56176965  1
  Zn  Zn190  1  0.56221895  0.81203550  0.06419110  1
  Zn  Zn191  1  0.56453935  0.81203542  0.56236041  1
  O  O192  1  0.11695113  0.12063112  0.12343565  1
  O  O193  1  0.11818390  0.12582057  0.61825770  1
  O  O194  1  0.11604725  0.61896864  0.12591274  1
  O  O195  1  0.11952927  0.61941088  0.61992523  1
  O  O196  1  0.62068908  0.11960955  0.12060691  1
  O  O197  1  0.61471539  0.12259051  0.62346378  1
  O  O198  1  0.62340258  0.61847695  0.11507507  1
  O  O199  1  0.61701144  0.61817608  0.62265154  1
  O  O200  1  0.37901257  0.38113139  0.38001358  1
  O  O201  1  0.38058691  0.37673442  0.88205225  1
  O  O202  1  0.37641791  0.88155278  0.38300391  1
  O  O203  1  0.38037508  0.87919054  0.88047146  1
  O  O204  1  0.87957018  0.37960850  0.37866189  1
  O  O205  1  0.87940265  0.37839415  0.87829649  1
  O  O206  1  0.88215576  0.88223675  0.37618656  1
  O  O207  1  0.88158505  0.88032430  0.88108827  1
  O  O208  1  0.25709171  0.00800850  0.37552463  1
  O  O209  1  0.25600592  0.00508997  0.86982767  1
  O  O210  1  0.25527004  0.50513135  0.36954140  1
  O  O211  1  0.24799591  0.51054048  0.87041383  1
  O  O212  1  0.75414676  0.00670791  0.37105177  1
  O  O213  1  0.75798046  0.00793151  0.87383113  1
  O  O214  1  0.75460471  0.50440827  0.36970038  1
  O  O215  1  0.74873460  0.50107674  0.86045851  1
  O  O216  1  0.24497219  0.49528767  0.13057360  1
  O  O217  1  0.24313997  0.49579341  0.62932561  1
  O  O218  1  0.24370140  0.99335582  0.12606112  1
  O  O219  1  0.24945735  0.99346687  0.63193116  1
  O  O220  1  0.74497938  0.49401308  0.12994810  1
  O  O221  1  0.74280080  0.49909067  0.63462224  1
  O  O222  1  0.74396917  0.99948176  0.13241697  1
  O  O223  1  0.75043134  0.98808941  0.62541077  1
  O  O224  1  0.00681439  0.37518370  0.25562973  1
  O  O225  1  0.00949118  0.37274403  0.75214505  1
  O  O226  1  0.00980615  0.87577611  0.25513872  1
  O  O227  1  0.00472663  0.86991604  0.75479272  1
  O  O228  1  0.50039656  0.36811463  0.25753142  1
  O  O229  1  0.50529482  0.37491781  0.75621090  1
  O  O230  1  0.50686685  0.86804231  0.25320376  1
  O  O231  1  0.50580312  0.86882707  0.75510524  1
  O  O232  1  0.49500119  0.12955277  0.24624366  1
  O  O233  1  0.49440895  0.12364888  0.74054501  1
  O  O234  1  0.49169796  0.63143064  0.24879283  1
  O  O235  1  0.49856716  0.63156663  0.74377370  1
  O  O236  1  0.99896871  0.12660092  0.23647287  1
  O  O237  1  0.99313265  0.12881373  0.74320392  1
  O  O238  1  0.99478252  0.62263048  0.24093637  1
  O  O239  1  0.99620682  0.63019271  0.74368529  1
  O  O240  1  0.36857114  0.25746249  0.00155743  1
  O  O241  1  0.36706838  0.25779229  0.50051874  1
  O  O242  1  0.36974008  0.75589121  0.00616934  1
  O  O243  1  0.36946469  0.75544923  0.50582254  1
  O  O244  1  0.86826177  0.24984717  0.01070150  1
  O  O245  1  0.87387233  0.25531032  0.50843700  1
  O  O246  1  0.87703567  0.76172601  -0.00093265  1
  O  O247  1  0.86859156  0.75117669  0.50728213  1
  O  O248  1  0.12957414  0.24546324  0.49359505  1
  O  O249  1  0.13247977  0.24989965  0.99044496  1
  O  O250  1  0.13218694  0.74267377  0.50026546  1
  O  O251  1  0.13193857  0.75025008  0.99323985  1
  O  O252  1  0.62518354  0.24719911  0.48720043  1
  O  O253  1  0.63041212  0.24353087  0.99447000  1
  O  O254  1  0.63182002  0.74818160  0.49273454  1
  O  O255  1  0.62345721  0.73979949  0.99521817  1
  O  O256  1  0.50023559  0.24266766  0.13293399  1
  O  O257  1  0.49716900  0.23752494  0.62465176  1
  O  O258  1  0.49210835  0.74828464  0.13282208  1
  O  O259  1  0.49530625  0.74561574  0.62949854  1
  O  O260  1  0.99280824  0.24289642  0.12292952  1
  O  O261  1  0.98866604  0.24408157  0.62465427  1
  O  O262  1  0.99936511  0.73660964  0.12586909  1
  O  O263  1  0.99559116  0.74474102  0.63023961  1
  O  O264  1  0.00534508  0.25616647  0.37273356  1
  O  O265  1  0.01293664  0.25051403  0.87613400  1
  O  O266  1  0.00389259  0.75848263  0.37325414  1
  O  O267  1  0.00610694  0.75524759  0.86881890  1
  O  O268  1  0.50690357  0.25324325  0.37141735  1
  O  O269  1  0.50710956  0.25652218  0.87378803  1
  O  O270  1  0.50642645  0.75099157  0.36918163  1
  O  O271  1  0.50525942  0.75550554  0.86921440  1
  O  O272  1  0.24502379  0.13095026  0.49523058  1
  O  O273  1  0.25010966  0.13177207  0.99300881  1
  O  O274  1  0.24474685  0.62946600  0.49553200  1
  O  O275  1  0.24777753  0.63148679  0.99195068  1
  O  O276  1  0.74784236  0.12520269  0.48691928  1
  O  O277  1  0.74446092  0.13056948  0.99445309  1
  O  O278  1  0.74882877  0.63058884  0.49305927  1
  O  O279  1  0.73726611  0.62212229  0.99768758  1
  O  O280  1  0.25505538  0.37139667  0.00545442  1
  O  O281  1  0.25349767  0.37122005  0.50447988  1
  O  O282  1  0.25582982  0.86946910  0.00526528  1
  O  O283  1  0.25458033  0.87013377  0.50603134  1
  O  O284  1  0.74979933  0.36768387  0.00677317  1
  O  O285  1  0.75795936  0.37209556  0.50192261  1
  O  O286  1  0.76361592  0.87577628  -0.00007824  1
  O  O287  1  0.75202929  0.86824360  0.50983707  1
  O  O288  1  0.13148476  0.49405833  0.24555449  1
  O  O289  1  0.12993335  0.49563074  0.74371011  1
  O  O290  1  0.12719748  0.98986886  0.24342856  1
  O  O291  1  0.13188957  0.99398713  0.74935797  1
  O  O292  1  0.63109265  0.49926961  0.24321219  1
  O  O293  1  0.63123764  0.49516663  0.74433566  1
  O  O294  1  0.63007046  0.99401017  0.24599372  1
  O  O295  1  0.62875788  0.98987191  0.74776965  1
  O  O296  1  0.37477082  0.00608967  0.25809008  1
  O  O297  1  0.36925646  0.00437232  0.75647707  1
  O  O298  1  0.36933239  0.50526677  0.25503420  1
  O  O299  1  0.36519547  0.50381529  0.75334551  1
  O  O300  1  0.86832045  0.00214841  0.25644165  1
  O  O301  1  0.87421544  0.00738998  0.75709135  1
  O  O302  1  0.86861036  0.50442592  0.25566140  1
  O  O303  1  0.86553432  0.50466569  0.74754655  1
  O  O304  1  0.11919811  0.37044956  0.37026095  1
  O  O305  1  0.12613619  0.36549590  0.86933759  1
  O  O306  1  0.12054155  0.87650720  0.36564227  1
  O  O307  1  0.11983321  0.87075120  0.86942400  1
  O  O308  1  0.61845839  0.36501125  0.37365018  1
  O  O309  1  0.61869712  0.36917396  0.86977297  1
  O  O310  1  0.62358751  0.86761783  0.36818505  1
  O  O311  1  0.62036801  0.86908066  0.87092779  1
  O  O312  1  0.38206508  0.12575499  0.13230958  1
  O  O313  1  0.38370933  0.12561143  0.63108822  1
  O  O314  1  0.37463249  0.63240434  0.13187890  1
  O  O315  1  0.38110454  0.63255090  0.62630149  1
  O  O316  1  0.88333502  0.13277243  0.12441870  1
  O  O317  1  0.87924179  0.13245134  0.62877657  1
  O  O318  1  0.88504280  0.62340164  0.13097748  1
  O  O319  1  0.88133993  0.62994124  0.63014181  1
  O  O320  1  0.25080526  0.25720730  0.11837449  1
  O  O321  1  0.24979354  0.25782417  0.61771115  1
  O  O322  1  0.25486659  0.75604430  0.11987771  1
  O  O323  1  0.25550974  0.75555903  0.62022003  1
  O  O324  1  0.75643933  0.25270272  0.12095532  1
  O  O325  1  0.76131374  0.24908714  0.62162127  1
  O  O326  1  0.75528070  0.75375438  0.11829026  1
  O  O327  1  0.75499573  0.75619630  0.62060588  1
  O  O328  1  0.24328556  0.24540124  0.38105492  1
  O  O329  1  0.24220507  0.24552894  0.87982698  1
  O  O330  1  0.24830241  0.74311507  0.38275338  1
  O  O331  1  0.24557690  0.74446669  0.87967901  1
  O  O332  1  0.74218891  0.24160366  0.37320430  1
  O  O333  1  0.74394622  0.24470693  0.88057196  1
  O  O334  1  0.74577456  0.74397414  0.37980056  1
  O  O335  1  0.74152756  0.74616851  0.87894277  1
  O  O336  1  0.00187227  0.11946221  0.01055627  1
  O  O337  1  0.00546177  0.12032701  0.50452241  1
  O  O338  1  0.00188542  0.61716084  0.00947332  1
  O  O339  1  0.00451135  0.61938575  0.50528320  1
  O  O340  1  0.50723042  0.12370549  0.00714539  1
  O  O341  1  0.49832587  0.11536514  0.50892707  1
  O  O342  1  0.50947688  0.61886213  0.00093127  1
  O  O343  1  0.50030125  0.61791544  0.50625921  1
  O  O344  1  0.49273631  0.38074102  0.49382282  1
  O  O345  1  0.49514303  0.37965761  0.99464278  1
  O  O346  1  0.49368309  0.88421369  0.50184852  1
  O  O347  1  0.49336005  0.87511118  0.99330971  1
  O  O348  1  0.99436306  0.38138499  0.49329861  1
  O  O349  1  0.99926975  0.38739363  1.00049122  1
  O  O350  1  1.00061800  0.88255550  0.49386858  1
  O  O351  1  0.99364508  0.88019430  0.99350131  1
  O  O352  1  0.49413282  0.49490069  0.37915152  1
  O  O353  1  0.49866065  0.49297893  0.88172567  1
  O  O354  1  0.49416828  1.00021341  0.38642452  1
  O  O355  1  0.49344779  0.99244736  0.87629978  1
  O  O356  1  0.99341846  0.49449273  0.38029894  1
  O  O357  1  1.00249262  0.50077323  0.88704643  1
  O  O358  1  0.99520425  0.99633542  0.37949898  1
  O  O359  1  0.99544357  0.99560561  0.87964162  1
  O  O360  1  0.00502121  0.00858520  0.11971516  1
  O  O361  1  0.00066508  0.00740533  0.61811524  1
  O  O362  1  0.00466360  0.50774142  0.11865589  1
  O  O363  1  0.00476008  0.50542915  0.61910747  1
  O  O364  1  0.50817302  0.00682358  0.12428753  1
  O  O365  1  0.49971779  0.00809622  0.61696461  1
  O  O366  1  0.50673213  0.50100217  0.11810007  1
  O  O367  1  0.50345194  0.50537788  0.61945837  1
  O  O368  1  0.24521296  0.38097958  0.24545949  1
  O  O369  1  0.24414651  0.38150976  0.74414242  1
  O  O370  1  0.24143062  0.87663460  0.24447405  1
  O  O371  1  0.24514439  0.87984899  0.74576923  1
  O  O372  1  0.74744261  0.38180901  0.24302269  1
  O  O373  1  0.74236839  0.38410905  0.74635447  1
  O  O374  1  0.74365600  0.88141746  0.24932390  1
  O  O375  1  0.74583197  0.87388516  0.74065368  1
  O  O376  1  0.25637584  0.12375677  0.25733116  1
  O  O377  1  0.25526114  0.11931763  0.75542114  1
  O  O378  1  0.25441888  0.61976737  0.25540505  1
  O  O379  1  0.24971079  0.62103180  0.75910416  1
  O  O380  1  0.74998442  0.11799083  0.26159644  1
  O  O381  1  0.75692812  0.12363217  0.75689981  1
  O  O382  1  0.75566254  0.61855578  0.25502785  1
  O  O383  1  0.75529676  0.61541728  0.74918900  1
  O  O384  1  0.36938353  0.12031347  0.37096560  1
  O  O385  1  0.37065796  0.11933902  0.87008966  1
  O  O386  1  0.36839451  0.61925010  0.36976014  1
  O  O387  1  0.36173581  0.62578578  0.87415677  1
  O  O388  1  0.86598534  0.12056415  0.37271249  1
  O  O389  1  0.87059045  0.12189557  0.87061495  1
  O  O390  1  0.86999759  0.61785887  0.37001933  1
  O  O391  1  0.87367656  0.62031095  0.86594194  1
  O  O392  1  0.13121747  0.38050633  0.13094373  1
  O  O393  1  0.12960668  0.38081612  0.62912678  1
  O  O394  1  0.12897592  0.87999260  0.13210749  1
  O  O395  1  0.13185958  0.87689846  0.63248592  1
  O  O396  1  0.63146420  0.38080392  0.12640698  1
  O  O397  1  0.62400488  0.38085612  0.63080480  1
  O  O398  1  0.62641774  0.88176525  0.13159512  1
  O  O399  1  0.63574550  0.87384386  0.63139566  1
  O  O400  1  0.12376850  0.25726975  0.25674259  1
  O  O401  1  0.12573156  0.25595605  0.75996341  1
  O  O402  1  0.12318184  0.76349949  0.25115969  1
  O  O403  1  0.11929177  0.75661954  0.75491560  1
  O  O404  1  0.61868783  0.25016134  0.26161402  1
  O  O405  1  0.62283736  0.25685889  0.75670097  1
  O  O406  1  0.62016453  0.75415891  0.25465523  1
  O  O407  1  0.61909345  0.75453360  0.75592044  1
  O  O408  1  0.38151574  0.24228529  0.25012311  1
  O  O409  1  0.37706476  0.24166289  0.74722489  1
  O  O410  1  0.37893565  0.74555012  0.24609211  1
  O  O411  1  0.38221056  0.74947935  0.74294123  1
  O  O412  1  0.87660744  0.24698339  0.23631828  1
  O  O413  1  0.87532925  0.24524718  0.74003994  1
  O  O414  1  0.87854206  0.74079295  0.24787699  1
  O  O415  1  0.88126203  0.74385357  0.74494563  1
  O  O416  1  0.37935321  0.49493325  0.49347361  1
  O  O417  1  0.38141276  0.49397002  0.99821796  1
  O  O418  1  0.38302867  0.99489016  0.49624763  1
  O  O419  1  0.37660632  0.99254021  0.99334459  1
  O  O420  1  0.87996810  0.49485235  0.49477435  1
  O  O421  1  0.88623220  0.49903620  0.99892323  1
  O  O422  1  0.88305370  0.99826139  0.49198141  1
  O  O423  1  0.88169386  0.99281243  0.99391234  1
  O  O424  1  0.11824069  0.00106498  0.00599793  1
  O  O425  1  0.11889922  0.00843027  0.50174885  1
  O  O426  1  0.11676601  0.50246675  0.00777629  1
  O  O427  1  0.11867147  0.50525475  0.50533734  1
  O  O428  1  0.62468353  0.00665135  0.00645849  1
  O  O429  1  0.61297484  0.00013237  0.50193017  1
  O  O430  1  0.61971058  0.50667895  0.00421640  1
  O  O431  1  0.61714101  0.50039417  0.50566694  1
  O  O432  1  0.36814542  0.37300536  0.11871539  1
  O  O433  1  0.36730285  0.37513117  0.61769411  1
  O  O434  1  0.36951813  0.87026166  0.12088731  1
  O  O435  1  0.36924635  0.86955325  0.62021610  1
  O  O436  1  0.86906649  0.36520119  0.12273854  1
  O  O437  1  0.87450732  0.36517909  0.61899940  1
  O  O438  1  0.87770321  0.87554003  0.11261233  1
  O  O439  1  0.86656676  0.86785294  0.62504008  1
  O  O440  1  0.12978055  0.13051109  0.37985541  1
  O  O441  1  0.13199696  0.13459075  0.87553871  1
  O  O442  1  0.13118540  0.62466123  0.38161718  1
  O  O443  1  0.13556593  0.63321230  0.87608925  1
  O  O444  1  0.63268474  0.13240044  0.37625549  1
  O  O445  1  0.62990294  0.12966528  0.87969081  1
  O  O446  1  0.63255951  0.63118217  0.37579817  1
  O  O447  1  0.62469882  0.63012164  0.88456788  1
