# generated using pymatgen
data_V3Zn3O8
_symmetry_space_group_name_H-M   'P 1'
_cell_length_a   17.09057473
_cell_length_b   17.08890461
_cell_length_c   17.09090113
_cell_angle_alpha   89.99397413
_cell_angle_beta   90.00400107
_cell_angle_gamma   90.00493300
_symmetry_Int_Tables_number   1
_chemical_formula_structural   V3Zn3O8
_chemical_formula_sum   'V96 Zn96 O256'
_cell_volume   4991.55487421
_cell_formula_units_Z   32
loop_
 _symmetry_equiv_pos_site_id
 _symmetry_equiv_pos_as_xyz
  1  'x, y, z'
loop_
 _atom_site_type_symbol
 _atom_site_label
 _atom_site_symmetry_multiplicity
 _atom_site_fract_x
 _atom_site_fract_y
 _atom_site_fract_z
 _atom_site_occupancy
  V  V0  1  0.50215223  0.37284292  0.87102536  1
  V  V1  1  0.12401989  0.50080705  0.62361142  1
  V  V2  1  0.87532405  0.50067500  0.87589558  1
  V  V3  1  -0.00047333  0.75047995  0.24953907  1
  V  V4  1  0.74920094  0.24957277  0.49813733  1
  V  V5  1  0.87440843  0.87431837  0.50000167  1
  V  V6  1  0.12515400  0.62519671  0.00036675  1
  V  V7  1  0.87501369  0.62534883  0.75062152  1
  V  V8  1  0.25067124  0.12499775  0.87456942  1
  V  V9  1  -0.00185879  -0.00049075  0.50035507  1
  V  V10  1  0.24948644  -0.00027207  0.25065605  1
  V  V11  1  -0.00035833  0.62592171  0.12539354  1
  V  V12  1  0.37332251  0.75112359  0.62511602  1
  V  V13  1  0.24919885  0.87526492  0.12584300  1
  V  V14  1  0.87511256  0.37574745  0.50008708  1
  V  V15  1  0.25000179  0.00142624  0.74943729  1
  V  V16  1  0.37462928  0.62513804  0.75026459  1
  V  V17  1  0.74962619  0.49860946  0.25005601  1
  V  V18  1  0.87496574  0.37505459  0.00132968  1
  V  V19  1  0.24969801  0.87511882  0.62418108  1
  V  V20  1  -0.00046774  0.87510980  0.37546515  1
  V  V21  1  0.12566212  0.74917300  0.37624486  1
  V  V22  1  0.49986052  0.74991984  0.75037477  1
  V  V23  1  0.49951068  -0.00041691  0.00015730  1
  V  V24  1  0.37494499  0.87518312  -0.00030841  1
  V  V25  1  -0.00006002  0.37597788  0.37496303  1
  V  V26  1  0.87464166  0.75008653  0.62501506  1
  V  V27  1  0.50056748  -0.00040743  0.50055924  1
  V  V28  1  -0.00052767  0.50010899  0.00013083  1
  V  V29  1  0.37525564  0.24944692  0.12440690  1
  V  V30  1  0.37445364  0.12373992  0.25021505  1
  V  V31  1  0.75100956  0.00051117  0.24916066  1
  V  V32  1  0.75135242  0.12412607  0.87425605  1
  V  V33  1  0.12483311  0.25072231  0.37539658  1
  V  V34  1  0.62556399  0.12574770  -0.00032395  1
  V  V35  1  0.37765910  0.12549393  0.74985033  1
  V  V36  1  0.00070275  0.62492694  0.62530629  1
  V  V37  1  0.25024270  0.12396295  0.37445031  1
  V  V38  1  0.49902675  0.87487927  0.87573074  1
  V  V39  1  0.75086391  0.25060363  0.00014690  1
  V  V40  1  0.87514768  0.50020401  0.37532826  1
  V  V41  1  0.87526108  0.87617288  -0.00025935  1
  V  V42  1  0.75021279  0.74991369  0.50019969  1
  V  V43  1  0.25021532  0.62547871  0.87590508  1
  V  V44  1  0.37448863  0.37424390  0.49951311  1
  V  V45  1  0.62445747  0.74940744  0.87576918  1
  V  V46  1  0.25028289  0.75053060  0.00044328  1
  V  V47  1  0.62475063  0.62417548  0.00058132  1
  V  V48  1  0.50122516  0.25009304  0.25004716  1
  V  V49  1  0.12476468  0.00099979  0.62565174  1
  V  V50  1  0.62544713  0.49761449  0.12548269  1
  V  V51  1  0.37495454  0.49990397  0.87496385  1
  V  V52  1  0.62542861  -0.00030361  0.12534830  1
  V  V53  1  0.25030033  0.49929007  0.24948588  1
  V  V54  1  0.49907633  0.50058137  0.49984137  1
  V  V55  1  0.75017366  0.62434409  0.37538933  1
  V  V56  1  0.12336719  0.37411845  0.75077555  1
  V  V57  1  -0.00045851  0.12602114  0.62541691  1
  V  V58  1  0.00007804  0.87475538  0.87525157  1
  V  V59  1  0.37537679  0.37466385  -0.00076956  1
  V  V60  1  0.12445747  0.75050820  0.87509014  1
  V  V61  1  0.37546585  0.62513221  0.25010826  1
  V  V62  1  0.49922467  0.87511096  0.37505247  1
  V  V63  1  0.37585313  0.74923544  0.12576905  1
  V  V64  1  0.49881416  0.62491551  0.62447072  1
  V  V65  1  0.24974971  0.24945647  0.00011467  1
  V  V66  1  0.75012796  -0.00096066  0.74946882  1
  V  V67  1  0.12595658  0.49993306  0.12496023  1
  V  V68  1  0.00100370  0.00126355  0.00039725  1
  V  V69  1  0.74939778  0.87526040  0.12506484  1
  V  V70  1  0.62548473  0.12435984  0.49967309  1
  V  V71  1  0.87543306  0.12455673  0.25057492  1
  V  V72  1  0.62458733  0.74907837  0.37442755  1
  V  V73  1  0.49985904  0.12481686  0.12466276  1
  V  V74  1  0.87548472  0.25037602  0.62648949  1
  V  V75  1  -0.00036040  0.75105581  0.75117298  1
  V  V76  1  0.24883897  0.62605096  0.37611302  1
  V  V77  1  0.62533313  0.87462825  0.74995829  1
  V  V78  1  0.74799246  0.49824110  0.74760647  1
  V  V79  1  0.12505825  0.25115788  0.87412215  1
  V  V80  1  0.12529004  0.87560594  0.25009947  1
  V  V81  1  0.62354601  0.62433903  0.50046633  1
  V  V82  1  0.37709650  0.24953764  0.62460587  1
  V  V83  1  0.25061632  0.24933666  0.49916418  1
  V  V84  1  0.50051471  0.37362399  0.37373042  1
  V  V85  1  0.12449264  0.12553168  0.50022805  1
  V  V86  1  0.49980792  0.74955118  0.25055302  1
  V  V87  1  0.25045606  0.37539977  0.12490743  1
  V  V88  1  0.87504113  0.74985967  0.12544546  1
  V  V89  1  0.24891590  0.50046366  0.75034302  1
  V  V90  1  0.00005414  0.24954332  0.24887255  1
  V  V91  1  0.37423630  0.49989274  0.37480076  1
  V  V92  1  0.74973892  0.62525555  0.87528688  1
  V  V93  1  0.12503889  0.12504011  -0.00010866  1
  V  V94  1  0.50081972  0.49975951  -0.00005116  1
  V  V95  1  0.74969460  0.75043756  0.00066453  1
  Zn  Zn96  1  -0.00004272  0.50207094  0.49824608  1
  Zn  Zn97  1  0.62351863  0.49796790  0.62476663  1
  Zn  Zn98  1  0.00200160  0.12546442  0.12470929  1
  Zn  Zn99  1  0.37405288  -0.00077137  0.37614850  1
  Zn  Zn100  1  0.74984413  0.12255939  0.37446283  1
  Zn  Zn101  1  0.74874732  0.87496676  0.62420497  1
  Zn  Zn102  1  0.87316259  -0.00068488  0.37600447  1
  Zn  Zn103  1  0.87519888  0.62512938  0.25042246  1
  Zn  Zn104  1  0.74670438  0.37577245  0.62455156  1
  Zn  Zn105  1  0.62511259  0.37179853  0.74584208  1
  Zn  Zn106  1  0.87628888  0.24978197  0.12494700  1
  Zn  Zn107  1  0.12522434  0.37504156  0.25016127  1
  Zn  Zn108  1  0.12521672  0.00169586  0.12585737  1
  Zn  Zn109  1  0.12381591  0.87638821  0.75044668  1
  Zn  Zn110  1  0.12467323  0.62682553  0.49998359  1
  Zn  Zn111  1  0.75031055  0.37252892  0.12733213  1
  Zn  Zn112  1  0.24930945  0.37527067  0.62402924  1
  Zn  Zn113  1  0.37459805  0.87516659  0.50035531  1
  Zn  Zn114  1  0.49976278  0.62456807  0.12579623  1
  Zn  Zn115  1  0.50219802  0.12254314  0.62637576  1
  Zn  Zn116  1  0.62550517  0.25075627  0.87047642  1
  Zn  Zn117  1  0.37486372  -0.00004858  0.87488387  1
  Zn  Zn118  1  0.00012421  0.37390282  0.87578006  1
  Zn  Zn119  1  0.62577477  0.25014368  0.37218175  1
  Zn  Zn120  1  0.62559749  0.87500186  0.24944145  1
  Zn  Zn121  1  0.62547628  -0.00238913  0.62478598  1
  Zn  Zn122  1  0.87637016  0.12445054  0.75019803  1
  Zn  Zn123  1  -0.00170599  0.24871526  0.75232313  1
  Zn  Zn124  1  0.24983918  0.74943223  0.50021883  1
  Zn  Zn125  1  0.50520747  0.24844009  0.74808956  1
  Zn  Zn126  1  0.87645840  0.00016744  0.87378421  1
  Zn  Zn127  1  0.62609136  0.37188984  0.25114341  1
  Zn  Zn128  1  0.18619106  0.18655412  0.18656029  1
  Zn  Zn129  1  0.18936195  0.18820532  0.68667563  1
  Zn  Zn130  1  0.18748821  0.68765441  0.18931372  1
  Zn  Zn131  1  0.18659850  0.68839108  0.68913333  1
  Zn  Zn132  1  0.68793048  0.18647628  0.18618879  1
  Zn  Zn133  1  0.68648859  0.18708212  0.68581455  1
  Zn  Zn134  1  0.68664093  0.68569846  0.18831974  1
  Zn  Zn135  1  0.68674094  0.68608981  0.68622880  1
  Zn  Zn136  1  0.31358493  0.31179218  0.31156205  1
  Zn  Zn137  1  0.31179748  0.31258126  0.81111450  1
  Zn  Zn138  1  0.31288189  0.81249775  0.31305496  1
  Zn  Zn139  1  0.31205199  0.81351692  0.81154094  1
  Zn  Zn140  1  0.81340122  0.31339749  0.31410785  1
  Zn  Zn141  1  0.81281890  0.31389380  0.81365101  1
  Zn  Zn142  1  0.81280891  0.81327042  0.31237795  1
  Zn  Zn143  1  0.81328480  0.81363141  0.81377217  1
  Zn  Zn144  1  0.18791766  0.43659745  0.43739751  1
  Zn  Zn145  1  0.18759959  0.43749101  0.93761489  1
  Zn  Zn146  1  0.18526820  0.93787556  0.43812719  1
  Zn  Zn147  1  0.18706931  0.93836566  0.93616752  1
  Zn  Zn148  1  0.68577657  0.43597323  0.43770401  1
  Zn  Zn149  1  0.68761066  0.43714905  0.93558684  1
  Zn  Zn150  1  0.68794360  0.93696691  0.43488221  1
  Zn  Zn151  1  0.68638754  0.93785862  0.93714454  1
  Zn  Zn152  1  0.31197902  0.06093106  0.06332304  1
  Zn  Zn153  1  0.31382200  0.06205092  0.56207017  1
  Zn  Zn154  1  0.31352183  0.56269694  0.06299597  1
  Zn  Zn155  1  0.31054614  0.56342352  0.56168294  1
  Zn  Zn156  1  0.81533268  0.06318240  0.06472256  1
  Zn  Zn157  1  0.81231244  0.06245204  0.56433604  1
  Zn  Zn158  1  0.81194913  0.56304726  0.06402876  1
  Zn  Zn159  1  0.81342187  0.56346296  0.56229900  1
  Zn  Zn160  1  0.43829119  0.43652295  0.18778493  1
  Zn  Zn161  1  0.43631599  0.43771301  0.68614572  1
  Zn  Zn162  1  0.43656464  0.93731289  0.18813568  1
  Zn  Zn163  1  0.43748165  0.93794919  0.68675460  1
  Zn  Zn164  1  0.93729952  0.43731272  0.18752482  1
  Zn  Zn165  1  0.93741891  0.43672996  0.68743803  1
  Zn  Zn166  1  0.93748990  0.93781277  0.18642539  1
  Zn  Zn167  1  0.93555345  0.93724630  0.68708553  1
  Zn  Zn168  1  0.06251531  0.06159976  0.31440419  1
  Zn  Zn169  1  0.06272029  0.06405760  0.81182997  1
  Zn  Zn170  1  0.06312759  0.56313111  0.31109759  1
  Zn  Zn171  1  0.06148093  0.56275992  0.81299371  1
  Zn  Zn172  1  0.56443708  0.06303159  0.31333426  1
  Zn  Zn173  1  0.56404507  0.06124302  0.81424673  1
  Zn  Zn174  1  0.56207640  0.56207278  0.31283317  1
  Zn  Zn175  1  0.56268738  0.56152234  0.81214557  1
  Zn  Zn176  1  0.43836295  0.18656465  0.43584460  1
  Zn  Zn177  1  0.43783215  0.18813954  0.93657983  1
  Zn  Zn178  1  0.43444395  0.68901765  0.43918882  1
  Zn  Zn179  1  0.43810988  0.68705247  0.93856731  1
  Zn  Zn180  1  0.93672876  0.18729329  0.43637883  1
  Zn  Zn181  1  0.93835652  0.18795649  0.93530763  1
  Zn  Zn182  1  0.93860895  0.68619510  0.43846288  1
  Zn  Zn183  1  0.93708312  0.68786330  0.93858054  1
  Zn  Zn184  1  0.06296515  0.31321667  0.06329709  1
  Zn  Zn185  1  0.06079801  0.31409719  0.56212583  1
  Zn  Zn186  1  0.06290514  0.81381455  0.06304569  1
  Zn  Zn187  1  0.06323758  0.81247261  0.56223930  1
  Zn  Zn188  1  0.56333692  0.31244867  0.06064924  1
  Zn  Zn189  1  0.56354617  0.31451567  0.56265002  1
  Zn  Zn190  1  0.56220157  0.81275245  0.06383680  1
  Zn  Zn191  1  0.56373090  0.81235478  0.56336377  1
  O  O192  1  0.12273684  0.12250542  0.11561715  1
  O  O193  1  0.12054330  0.12127248  0.61896727  1
  O  O194  1  0.12030756  0.62025030  0.11918667  1
  O  O195  1  0.11987137  0.61487218  0.62821970  1
  O  O196  1  0.61902242  0.11929910  0.11832324  1
  O  O197  1  0.62238697  0.12211360  0.61170327  1
  O  O198  1  0.62389254  0.61382214  0.11911468  1
  O  O199  1  0.61616675  0.62387806  0.61820785  1
  O  O200  1  0.37970552  0.38026481  0.38017529  1
  O  O201  1  0.38113867  0.38019592  0.87968469  1
  O  O202  1  0.38752058  0.87593380  0.37779937  1
  O  O203  1  0.38112071  0.87553233  0.88161927  1
  O  O204  1  0.88065800  0.38076434  0.38082283  1
  O  O205  1  0.87674381  0.38115297  0.88603334  1
  O  O206  1  0.88252820  0.87487609  0.38216815  1
  O  O207  1  0.88191828  0.87575513  0.88315047  1
  O  O208  1  0.25067456  0.00597190  0.36948850  1
  O  O209  1  0.25230451  0.00703447  0.86827693  1
  O  O210  1  0.25526906  0.50448438  0.36917165  1
  O  O211  1  0.25537538  0.50602726  0.87083035  1
  O  O212  1  0.75314083  0.00162969  0.36542082  1
  O  O213  1  0.75055118  0.00825435  0.86849302  1
  O  O214  1  0.75380160  0.50417720  0.36785644  1
  O  O215  1  0.75547948  0.50630845  0.86814516  1
  O  O216  1  0.24587734  0.49505453  0.12921008  1
  O  O217  1  0.24060624  0.49952877  0.63215606  1
  O  O218  1  0.24839063  0.99253806  0.13178490  1
  O  O219  1  0.24515898  0.99412446  0.62930054  1
  O  O220  1  0.74202097  0.49966052  0.13249496  1
  O  O221  1  0.75059234  0.50098084  0.63681227  1
  O  O222  1  0.74500340  0.99491020  0.12855411  1
  O  O223  1  0.74789985  0.99840568  0.63770513  1
  O  O224  1  -0.00033290  0.36488546  0.25555790  1
  O  O225  1  0.01243363  0.37411986  0.75264549  1
  O  O226  1  0.00513797  0.87013947  0.25475187  1
  O  O227  1  0.00022922  0.86918039  0.75698199  1
  O  O228  1  0.49997751  0.36772606  0.25573544  1
  O  O229  1  0.49781458  0.37512758  0.76124864  1
  O  O230  1  0.50096801  0.86950297  0.25942264  1
  O  O231  1  0.50437096  0.86937320  0.75586346  1
  O  O232  1  0.49473236  0.12913439  0.24383294  1
  O  O233  1  0.48979238  0.12524949  0.74920827  1
  O  O234  1  0.49278533  0.63126839  0.24988686  1
  O  O235  1  0.49376075  0.63013672  0.74606597  1
  O  O236  1  0.99374774  0.13338002  0.25087375  1
  O  O237  1  0.99696273  0.12789128  0.74183968  1
  O  O238  1  0.99855672  0.63228585  0.24252862  1
  O  O239  1  0.99367123  0.63080059  0.74622459  1
  O  O240  1  0.36932587  0.25464695  0.00532090  1
  O  O241  1  0.37079009  0.25295602  0.50681555  1
  O  O242  1  0.36970070  0.75485197  0.00521066  1
  O  O243  1  0.37147038  0.75398366  0.50974226  1
  O  O244  1  0.86825227  0.25767125  0.00002950  1
  O  O245  1  0.86794202  0.25377316  0.50656998  1
  O  O246  1  0.86900194  0.75557576  0.00556785  1
  O  O247  1  0.86977304  0.75425318  0.50540472  1
  O  O248  1  0.13022926  0.24494860  0.49567856  1
  O  O249  1  0.13093647  0.24595241  0.99462103  1
  O  O250  1  0.12800292  0.74858718  0.49188009  1
  O  O251  1  0.13071667  0.74442325  0.99528555  1
  O  O252  1  0.63360086  0.24185572  0.50085450  1
  O  O253  1  0.63542087  0.24467847  0.99776625  1
  O  O254  1  0.62963891  0.74386017  0.49391575  1
  O  O255  1  0.63005301  0.74462403  0.99555148  1
  O  O256  1  0.49448074  0.24438425  0.12811462  1
  O  O257  1  0.48653673  0.24753995  0.62412681  1
  O  O258  1  0.49388274  0.74845076  0.13155792  1
  O  O259  1  0.49396546  0.74489781  0.63142693  1
  O  O260  1  0.99939212  0.24925007  0.13726770  1
  O  O261  1  0.99006531  0.24501437  0.62402533  1
  O  O262  1  0.99492060  0.74562766  0.12919066  1
  O  O263  1  0.99496073  0.74527405  0.63166209  1
  O  O264  1  0.00482765  0.25493109  0.36739801  1
  O  O265  1  0.00888384  0.25315531  0.87204220  1
  O  O266  1  0.00490767  0.75521706  0.36906026  1
  O  O267  1  0.00486820  0.75441389  0.87125232  1
  O  O268  1  0.49971695  0.25596948  0.36780071  1
  O  O269  1  0.50046092  0.26162305  0.87409019  1
  O  O270  1  0.50407080  0.75702760  0.37142672  1
  O  O271  1  0.50509774  0.75451595  0.87003995  1
  O  O272  1  0.24437627  0.12938249  0.49476650  1
  O  O273  1  0.24623273  0.13023418  0.99458102  1
  O  O274  1  0.24654917  0.62722900  0.49152383  1
  O  O275  1  0.24528359  0.63056727  0.99518244  1
  O  O276  1  0.74302746  0.13195732  0.49957237  1
  O  O277  1  0.74731878  0.13125846  0.99357013  1
  O  O278  1  0.74427219  0.63025814  0.49448791  1
  O  O279  1  0.74475052  0.63048935  0.99474325  1
  O  O280  1  0.25607209  0.36970610  0.00454760  1
  O  O281  1  0.25691426  0.36741408  0.50074807  1
  O  O282  1  0.25480618  0.86953217  0.00475627  1
  O  O283  1  0.25160515  0.87665769  0.51331587  1
  O  O284  1  0.75818008  0.36703066  -0.00203184  1
  O  O285  1  0.75580668  0.36545908  0.50089288  1
  O  O286  1  0.75469343  0.86982895  0.00475489  1
  O  O287  1  0.75543220  0.86743284  0.50010346  1
  O  O288  1  0.13225106  0.49827601  0.24226951  1
  O  O289  1  0.12898123  0.49345448  0.74395594  1
  O  O290  1  0.13085334  0.99366294  0.24906718  1
  O  O291  1  0.13211284  1.00038018  0.74288430  1
  O  O292  1  0.63204790  0.49932001  0.24183577  1
  O  O293  1  0.63726612  0.50089887  0.74939477  1
  O  O294  1  0.63189477  1.00018322  0.24219408  1
  O  O295  1  0.63400988  0.99382217  0.75043006  1
  O  O296  1  0.36815962  0.00648858  0.25168692  1
  O  O297  1  0.36993046  0.01100512  0.74965775  1
  O  O298  1  0.36997843  0.50487631  0.25513997  1
  O  O299  1  0.36864052  0.50559547  0.75534232  1
  O  O300  1  0.87081348  0.00898316  0.24958838  1
  O  O301  1  0.86332537  0.00155186  0.75293407  1
  O  O302  1  0.86541791  0.50106813  0.25506935  1
  O  O303  1  0.86849096  0.50566031  0.75568981  1
  O  O304  1  0.11893711  0.36834135  0.37299688  1
  O  O305  1  0.12516583  0.37084038  0.86632983  1
  O  O306  1  0.11915656  0.86959605  0.36951298  1
  O  O307  1  0.11889519  0.86776901  0.87363225  1
  O  O308  1  0.61556081  0.37169818  0.37291001  1
  O  O309  1  0.61285617  0.37537043  0.87329470  1
  O  O310  1  0.61445324  0.86803014  0.37310853  1
  O  O311  1  0.61873618  0.86812169  0.87097367  1
  O  O312  1  0.38028692  0.13033623  0.12956912  1
  O  O313  1  0.37577953  0.13288550  0.63312642  1
  O  O314  1  0.37641619  0.63130948  0.13140935  1
  O  O315  1  0.37863588  0.63031393  0.63157673  1
  O  O316  1  0.87984807  0.12813304  0.13744657  1
  O  O317  1  0.88036798  0.13557968  0.62486655  1
  O  O318  1  0.88171264  0.63201492  0.12525516  1
  O  O319  1  0.88105465  0.63053180  0.63131203  1
  O  O320  1  0.25567336  0.25506653  0.11952336  1
  O  O321  1  0.26130602  0.25038376  0.61796341  1
  O  O322  1  0.25559342  0.75503100  0.11984481  1
  O  O323  1  0.25387812  0.75983455  0.62723626  1
  O  O324  1  0.75261638  0.25103102  0.11152645  1
  O  O325  1  0.75964747  0.24944474  0.61481230  1
  O  O326  1  0.75403805  0.75425730  0.11963041  1
  O  O327  1  0.75701063  0.74919721  0.61851815  1
  O  O328  1  0.24509262  0.24403895  0.37942359  1
  O  O329  1  0.24534675  0.24513381  0.88101252  1
  O  O330  1  0.24376084  0.74446021  0.37497128  1
  O  O331  1  0.24518855  0.74486018  0.88057380  1
  O  O332  1  0.75032192  0.24759386  0.38813115  1
  O  O333  1  0.75040644  0.24199921  0.88426304  1
  O  O334  1  0.74466334  0.74431818  0.37972452  1
  O  O335  1  0.74423157  0.74480328  0.88108091  1
  O  O336  1  0.00491942  0.11669552  -0.00082104  1
  O  O337  1  0.00510888  0.12016757  0.50478021  1
  O  O338  1  0.00572143  0.62026050  0.00567958  1
  O  O339  1  0.00356563  0.62188726  0.50927365  1
  O  O340  1  0.50469000  0.12035716  0.00477239  1
  O  O341  1  0.50805307  0.11570932  0.49850633  1
  O  O342  1  0.50668007  0.61764200  0.00082681  1
  O  O343  1  0.50331866  0.62028029  0.50451673  1
  O  O344  1  0.49295050  0.38042473  0.49407305  1
  O  O345  1  0.49447304  0.37988839  0.99125997  1
  O  O346  1  0.50175246  0.88281561  0.49171579  1
  O  O347  1  0.49473053  0.87938516  0.99548436  1
  O  O348  1  0.99305439  0.37699791  0.49238775  1
  O  O349  1  0.99124268  0.38130756  0.99973893  1
  O  O350  1  0.99442779  0.87993687  0.49558291  1
  O  O351  1  0.99579743  0.88214454  0.99508695  1
  O  O352  1  0.49279818  0.49490235  0.38010129  1
  O  O353  1  0.49418635  0.49289948  0.87968487  1
  O  O354  1  0.50087043  0.99095180  0.38239155  1
  O  O355  1  0.49855804  0.99283567  0.88256952  1
  O  O356  1  0.99381098  0.49411328  0.37403004  1
  O  O357  1  0.99306254  0.50001348  0.88284895  1
  O  O358  1  0.99879316  0.99269203  0.38294885  1
  O  O359  1  0.99950729  0.99523157  0.88449928  1
  O  O360  1  0.00295049  -0.00002814  0.11157365  1
  O  O361  1  0.00484948  0.00534181  0.61991469  1
  O  O362  1  0.00551835  0.50549655  0.11986102  1
  O  O363  1  0.00948123  0.50557203  0.62653764  1
  O  O364  1  0.50479477  0.00531292  0.11983436  1
  O  O365  1  0.50331823  0.00003437  0.61295266  1
  O  O366  1  0.50883800  0.50033937  0.11898517  1
  O  O367  1  0.49781775  0.50783779  0.61784823  1
  O  O368  1  0.25007415  0.38095186  0.24267109  1
  O  O369  1  0.23972385  0.38146533  0.74879760  1
  O  O370  1  0.24520208  0.87989757  0.24563106  1
  O  O371  1  0.24896668  0.88190654  0.74032582  1
  O  O372  1  0.74838719  0.38508455  0.24843869  1
  O  O373  1  0.75069628  0.38799969  0.75063866  1
  O  O374  1  0.74907867  0.88124413  0.24225410  1
  O  O375  1  0.74416995  0.88383467  0.75274581  1
  O  O376  1  0.25438943  0.12013787  0.25470864  1
  O  O377  1  0.25855000  0.12127110  0.75419071  1
  O  O378  1  0.25605632  0.61893418  0.25532250  1
  O  O379  1  0.25530923  0.62060167  0.75691711  1
  O  O380  1  0.75975173  0.12065868  0.24969237  1
  O  O381  1  0.74890801  0.11638236  0.75861715  1
  O  O382  1  0.75077106  0.61481399  0.25635032  1
  O  O383  1  0.75545953  0.61851419  0.75600577  1
  O  O384  1  0.36769912  0.12379439  0.36779983  1
  O  O385  1  0.36938742  0.12577850  0.86511451  1
  O  O386  1  0.36945763  0.61931698  0.36959512  1
  O  O387  1  0.36987217  0.61987633  0.87029535  1
  O  O388  1  0.87407979  0.12277013  0.36234945  1
  O  O389  1  0.86233067  0.12386365  0.87318325  1
  O  O390  1  0.86795527  0.61856349  0.37385663  1
  O  O391  1  0.86896461  0.62088829  0.87079604  1
  O  O392  1  0.13274705  0.38210111  0.12563138  1
  O  O393  1  0.12580350  0.38310945  0.63333113  1
  O  O394  1  0.13233226  0.87518771  0.13221728  1
  O  O395  1  0.13340154  0.88173746  0.62730157  1
  O  O396  1  0.62733741  0.38729193  0.12437212  1
  O  O397  1  0.62848891  0.38078340  0.62813862  1
  O  O398  1  0.63160670  0.88179599  0.12557628  1
  O  O399  1  0.62873990  0.87545076  0.63441891  1
  O  O400  1  0.11582847  0.24989826  0.25636352  1
  O  O401  1  0.12672373  0.25979788  0.75398848  1
  O  O402  1  0.11904598  0.75609428  0.25547734  1
  O  O403  1  0.11724548  0.75105623  0.75786563  1
  O  O404  1  0.61793617  0.25101954  0.25033422  1
  O  O405  1  0.62237639  0.25314517  0.75266327  1
  O  O406  1  0.61844067  0.75039564  0.25672903  1
  O  O407  1  0.61950122  0.75323090  0.75677525  1
  O  O408  1  0.38016168  0.24335050  0.24293268  1
  O  O409  1  0.37418322  0.24161730  0.74100931  1
  O  O410  1  0.38002178  0.74468987  0.24490991  1
  O  O411  1  0.38045769  0.74413229  0.74590578  1
  O  O412  1  0.88357392  0.24319786  0.25010531  1
  O  O413  1  0.87469396  0.25019423  0.73814897  1
  O  O414  1  0.88126579  0.74895503  0.24279382  1
  O  O415  1  0.87960524  0.74438357  0.74595289  1
  O  O416  1  0.37895952  0.49464563  0.49431820  1
  O  O417  1  0.38008634  0.49461949  0.99457511  1
  O  O418  1  0.38767389  0.99892008  0.49740242  1
  O  O419  1  0.38158504  0.99317924  0.99909040  1
  O  O420  1  0.87533363  0.49364641  0.49357296  1
  O  O421  1  0.87832007  0.49377741  0.99589364  1
  O  O422  1  0.88059998  0.99344665  0.50020573  1
  O  O423  1  0.88444894  0.99505707  0.99873112  1
  O  O424  1  0.11644689  0.00576068  -0.00042588  1
  O  O425  1  0.11830976  0.00647030  0.50613552  1
  O  O426  1  0.12036897  0.50590378  0.00498359  1
  O  O427  1  0.12420915  0.49960402  0.51359412  1
  O  O428  1  0.61933035  0.00573531  0.00548308  1
  O  O429  1  0.61827944  0.00698423  0.49964961  1
  O  O430  1  0.62195440  0.50451552  0.00678104  1
  O  O431  1  0.61711026  0.50757442  0.49980481  1
  O  O432  1  0.37053558  0.36945860  0.11823551  1
  O  O433  1  0.37247403  0.36591069  0.61934468  1
  O  O434  1  0.36924674  0.86866744  0.11961718  1
  O  O435  1  0.36528187  0.87009798  0.62586697  1
  O  O436  1  0.87224057  0.37447085  0.11212578  1
  O  O437  1  0.87433043  0.36542523  0.61893371  1
  O  O438  1  0.86924061  0.86917483  0.11872242  1
  O  O439  1  0.87271708  0.86704323  0.61819995  1
  O  O440  1  0.13029113  0.13097436  0.38147106  1
  O  O441  1  0.13190180  0.13164972  0.87976551  1
  O  O442  1  0.13130271  0.63101160  0.37489431  1
  O  O443  1  0.13068727  0.62991739  0.88108204  1
  O  O444  1  0.62763176  0.12827973  0.38739852  1
  O  O445  1  0.63626895  0.12603491  0.88172368  1
  O  O446  1  0.62994783  0.62971024  0.38107493  1
  O  O447  1  0.62979563  0.63009678  0.88088727  1
