# generated using pymatgen
data_V3Zn3O8
_symmetry_space_group_name_H-M   'P 1'
_cell_length_a   17.09116982
_cell_length_b   17.08932809
_cell_length_c   17.08945784
_cell_angle_alpha   90.00182877
_cell_angle_beta   90.01271907
_cell_angle_gamma   89.98230767
_symmetry_Int_Tables_number   1
_chemical_formula_structural   V3Zn3O8
_chemical_formula_sum   'V96 Zn96 O256'
_cell_volume   4991.43052497
_cell_formula_units_Z   32
loop_
 _symmetry_equiv_pos_site_id
 _symmetry_equiv_pos_as_xyz
  1  'x, y, z'
loop_
 _atom_site_type_symbol
 _atom_site_label
 _atom_site_symmetry_multiplicity
 _atom_site_fract_x
 _atom_site_fract_y
 _atom_site_fract_z
 _atom_site_occupancy
  V  V0  1  0.37598881  0.49940792  0.87686241  1
  V  V1  1  0.62512903  0.12420169  0.00054640  1
  V  V2  1  0.87531079  0.37468229  -0.00048791  1
  V  V3  1  0.25069160  0.12508594  0.87537045  1
  V  V4  1  0.12400439  0.00054432  0.62553050  1
  V  V5  1  0.62562678  0.25047171  0.87551100  1
  V  V6  1  0.12507199  0.37538453  0.75042110  1
  V  V7  1  0.87477704  0.37481984  0.50046291  1
  V  V8  1  0.87474067  0.12485299  0.24989491  1
  V  V9  1  0.00052172  0.37479822  0.37504738  1
  V  V10  1  0.62392877  0.12431732  0.50122477  1
  V  V11  1  0.74997509  0.87536797  0.12522703  1
  V  V12  1  0.49906775  0.24939718  0.24868691  1
  V  V13  1  0.25044726  -0.00056275  0.75034736  1
  V  V14  1  0.50023517  0.37564414  0.87608184  1
  V  V15  1  0.00015614  0.25074140  0.25105829  1
  V  V16  1  0.25084864  -0.00016178  0.25063257  1
  V  V17  1  0.24817494  0.74911875  0.49914970  1
  V  V18  1  0.74890574  0.37524412  0.62471102  1
  V  V19  1  0.62500539  -0.00063982  0.12423351  1
  V  V20  1  0.49944084  0.62504204  0.62486525  1
  V  V21  1  0.74890165  0.62694823  0.37519844  1
  V  V22  1  0.25151865  0.37440321  0.12600291  1
  V  V23  1  0.12472577  0.25000211  0.37590216  1
  V  V24  1  0.74832842  -0.00009187  0.24882096  1
  V  V25  1  0.00026238  0.75079874  0.75057950  1
  V  V26  1  0.37510524  -0.00039600  0.37619532  1
  V  V27  1  0.37463194  0.62502381  0.25010275  1
  V  V28  1  -0.00049818  0.62506372  0.12530276  1
  V  V29  1  0.62437554  0.62503463  0.49819466  1
  V  V30  1  0.87583136  0.75019442  0.12446504  1
  V  V31  1  0.87478567  -0.00030903  0.37467546  1
  V  V32  1  -0.00135664  0.62503999  0.62483657  1
  V  V33  1  0.87525587  0.24977655  0.62564521  1
  V  V34  1  0.62555528  0.37507186  0.74964249  1
  V  V35  1  0.75076864  0.62466561  0.87422850  1
  V  V36  1  -0.00020140  0.50047804  0.49982040  1
  V  V37  1  0.25110166  0.25022977  0.00112779  1
  V  V38  1  0.75052534  0.24951480  0.00028683  1
  V  V39  1  0.00099987  0.12562900  0.12539872  1
  V  V40  1  0.37663157  0.87546404  -0.00050236  1
  V  V41  1  0.12423761  0.62560619  0.49971956  1
  V  V42  1  0.75102860  0.12444973  0.87456836  1
  V  V43  1  0.00042762  0.37519003  0.87571010  1
  V  V44  1  0.37424054  0.25115890  0.62513713  1
  V  V45  1  -0.00030484  0.87514350  0.37353055  1
  V  V46  1  0.12549579  0.24994415  0.87505864  1
  V  V47  1  0.37387554  0.37461629  0.50180197  1
  V  V48  1  0.50099873  -0.00014655  -0.00044413  1
  V  V49  1  0.87275628  0.87407282  0.49994534  1
  V  V50  1  0.37645024  -0.00033240  0.87564098  1
  V  V51  1  0.49934691  0.37481539  0.37496895  1
  V  V52  1  0.50087484  0.12371391  0.62408767  1
  V  V53  1  0.87541543  0.50082035  0.87429897  1
  V  V54  1  0.12541816  0.49965387  0.12627884  1
  V  V55  1  0.12628165  0.00036094  0.12545141  1
  V  V56  1  0.25040919  0.75028774  -0.00107113  1
  V  V57  1  0.37641418  0.74873318  0.12520941  1
  V  V58  1  0.00079267  0.75026031  0.24882629  1
  V  V59  1  0.12574962  0.75029422  0.87467213  1
  V  V60  1  0.25011840  0.62523569  0.87515195  1
  V  V61  1  0.87568700  0.24974492  0.12461406  1
  V  V62  1  0.12584917  0.12469699  0.00031719  1
  V  V63  1  0.24870785  0.50003878  0.75101305  1
  V  V64  1  0.87592679  0.87555157  -0.00150207  1
  V  V65  1  -0.00041093  0.24924110  0.74991101  1
  V  V66  1  0.87448773  0.49991914  0.37516059  1
  V  V67  1  0.37396542  0.87500431  0.50033255  1
  V  V68  1  0.25009149  0.87458314  0.62486989  1
  V  V69  1  0.12456539  0.87467097  0.75027339  1
  V  V70  1  0.50053591  0.24931520  0.75056495  1
  V  V71  1  0.74996451  0.25013590  0.49918446  1
  V  V72  1  0.37330819  0.50113882  0.37522531  1
  V  V73  1  0.00028142  -0.00018159  -0.00017242  1
  V  V74  1  -0.00028636  0.50055909  0.00105368  1
  V  V75  1  0.74897849  -0.00199927  0.74756449  1
  V  V76  1  0.75005766  0.12568253  0.37481478  1
  V  V77  1  0.62358512  0.62310181  0.00162511  1
  V  V78  1  0.49881156  0.49983126  0.50012998  1
  V  V79  1  0.37560421  0.12481795  0.74988734  1
  V  V80  1  0.75011034  0.37576571  0.12547366  1
  V  V81  1  0.62434242  0.49911941  0.62523768  1
  V  V82  1  0.62532261  0.75130308  0.87381056  1
  V  V83  1  0.12473987  0.49952360  0.62626308  1
  V  V84  1  0.50056434  0.87303559  0.37376359  1
  V  V85  1  0.25113289  0.87484488  0.12524186  1
  V  V86  1  0.62451755  0.25054814  0.37448990  1
  V  V87  1  0.12415339  0.12417859  0.50138826  1
  V  V88  1  0.37568250  0.12567231  0.25083575  1
  V  V89  1  0.24966406  0.12577570  0.37555669  1
  V  V90  1  0.87349159  0.75031164  0.62383362  1
  V  V91  1  0.49916873  0.74980963  0.74864195  1
  V  V92  1  0.87507038  0.12520850  0.74986715  1
  V  V93  1  0.74815548  0.49952107  0.24835858  1
  V  V94  1  0.12511129  0.87462662  0.25052872  1
  V  V95  1  0.87456659  0.62505926  0.75026984  1
  Zn  Zn96  1  0.87463994  0.62595715  0.24933291  1
  Zn  Zn97  1  0.24886030  0.49951808  0.25256841  1
  Zn  Zn98  1  0.87681435  -0.00053334  0.87335677  1
  Zn  Zn99  1  -0.00107481  0.12366629  0.62508323  1
  Zn  Zn100  1  0.62344298  -0.00383636  0.62327215  1
  Zn  Zn101  1  0.37442560  0.74808876  0.62591950  1
  Zn  Zn102  1  0.62360616  0.75085458  0.37298404  1
  Zn  Zn103  1  0.00063211  0.87611974  0.87459263  1
  Zn  Zn104  1  0.50281592  0.74924298  0.24761806  1
  Zn  Zn105  1  0.24952454  0.25207672  0.50205635  1
  Zn  Zn106  1  0.24947684  0.37439971  0.62524293  1
  Zn  Zn107  1  0.37588227  0.24935502  0.12352511  1
  Zn  Zn108  1  0.62481364  0.87552073  0.74522486  1
  Zn  Zn109  1  0.50137867  0.87581054  0.87263913  1
  Zn  Zn110  1  0.37807964  0.37299676  0.00152981  1
  Zn  Zn111  1  0.62349842  0.37507549  0.24803910  1
  Zn  Zn112  1  0.37426241  0.62468525  0.74859810  1
  Zn  Zn113  1  0.62161858  0.49871543  0.12404127  1
  Zn  Zn114  1  0.12380731  0.74878667  0.37417177  1
  Zn  Zn115  1  0.74655558  0.75058995  0.50046080  1
  Zn  Zn116  1  0.12582309  0.37514607  0.25264639  1
  Zn  Zn117  1  -0.00155222  -0.00027335  0.50142461  1
  Zn  Zn118  1  0.24710857  0.62331545  0.37415916  1
  Zn  Zn119  1  0.12514260  0.62658774  0.00028009  1
  Zn  Zn120  1  0.50045972  0.62316797  0.12454137  1
  Zn  Zn121  1  0.50116394  -0.00162606  0.50174737  1
  Zn  Zn122  1  0.74686355  0.87280814  0.62415629  1
  Zn  Zn123  1  0.74993992  0.75045223  0.00032456  1
  Zn  Zn124  1  0.62388196  0.87218801  0.24912529  1
  Zn  Zn125  1  0.75020736  0.49974045  0.74920170  1
  Zn  Zn126  1  0.49887838  0.12496545  0.12472521  1
  Zn  Zn127  1  0.50011572  0.49777121  0.00361745  1
  Zn  Zn128  1  0.18773706  0.18855290  0.18952402  1
  Zn  Zn129  1  0.18846888  0.18800892  0.68704445  1
  Zn  Zn130  1  0.18860086  0.68694853  0.18699017  1
  Zn  Zn131  1  0.18719400  0.68648204  0.68737446  1
  Zn  Zn132  1  0.68580702  0.18715583  0.18678265  1
  Zn  Zn133  1  0.68771276  0.18614720  0.68683868  1
  Zn  Zn134  1  0.68700066  0.69017747  0.18786316  1
  Zn  Zn135  1  0.68796635  0.68691176  0.68643960  1
  Zn  Zn136  1  0.31212882  0.31339562  0.31319445  1
  Zn  Zn137  1  0.31267437  0.31383478  0.81252072  1
  Zn  Zn138  1  0.31371764  0.81098232  0.31323292  1
  Zn  Zn139  1  0.31379212  0.81267038  0.81272657  1
  Zn  Zn140  1  0.81322056  0.31334103  0.31201521  1
  Zn  Zn141  1  0.81208962  0.31287695  0.81203444  1
  Zn  Zn142  1  0.81350080  0.81255017  0.31020975  1
  Zn  Zn143  1  0.81203070  0.81240322  0.81238532  1
  Zn  Zn144  1  0.18871897  0.43724382  0.43919517  1
  Zn  Zn145  1  0.18864045  0.43765108  0.93994485  1
  Zn  Zn146  1  0.18674933  0.93759034  0.43733108  1
  Zn  Zn147  1  0.18849157  0.93680869  0.93704127  1
  Zn  Zn148  1  0.68567854  0.43780653  0.43659160  1
  Zn  Zn149  1  0.68875600  0.43867946  0.93688347  1
  Zn  Zn150  1  0.68574110  0.93916988  0.43661972  1
  Zn  Zn151  1  0.68937780  0.93728442  0.93576416  1
  Zn  Zn152  1  0.31491806  0.06339795  0.06414474  1
  Zn  Zn153  1  0.31250262  0.06261541  0.56271103  1
  Zn  Zn154  1  0.31197613  0.56331408  0.06204787  1
  Zn  Zn155  1  0.31213699  0.56284598  0.56401339  1
  Zn  Zn156  1  0.81270543  0.06147792  0.06243181  1
  Zn  Zn157  1  0.81153824  0.06195163  0.56333057  1
  Zn  Zn158  1  0.81129967  0.56448127  0.06153914  1
  Zn  Zn159  1  0.81120211  0.56233743  0.56229118  1
  Zn  Zn160  1  0.43742331  0.43966818  0.18737926  1
  Zn  Zn161  1  0.43713933  0.43757201  0.68910698  1
  Zn  Zn162  1  0.43856617  0.93773395  0.18745161  1
  Zn  Zn163  1  0.43828915  0.93599383  0.68602200  1
  Zn  Zn164  1  0.93634385  0.43785245  0.18877588  1
  Zn  Zn165  1  0.93767183  0.43730201  0.68794456  1
  Zn  Zn166  1  0.93730532  0.93762583  0.18662091  1
  Zn  Zn167  1  0.93717497  0.93805264  0.68614803  1
  Zn  Zn168  1  0.06204396  0.06178361  0.31360761  1
  Zn  Zn169  1  0.06139865  0.06172802  0.81315237  1
  Zn  Zn170  1  0.06250441  0.56427331  0.31223460  1
  Zn  Zn171  1  0.06273870  0.56432934  0.81327710  1
  Zn  Zn172  1  0.56256711  0.06092863  0.31380185  1
  Zn  Zn173  1  0.56402945  0.06249536  0.81259688  1
  Zn  Zn174  1  0.56124204  0.56251618  0.31140682  1
  Zn  Zn175  1  0.56221395  0.56311218  0.81242879  1
  Zn  Zn176  1  0.43716319  0.18792719  0.43834327  1
  Zn  Zn177  1  0.43795511  0.18784020  0.93850020  1
  Zn  Zn178  1  0.43532225  0.68834468  0.43725503  1
  Zn  Zn179  1  0.43847382  0.68606936  0.93682123  1
  Zn  Zn180  1  0.93824406  0.18718809  0.43811519  1
  Zn  Zn181  1  0.93784000  0.18649903  0.93644288  1
  Zn  Zn182  1  0.93636175  0.68882833  0.43568489  1
  Zn  Zn183  1  0.93934778  0.68823237  0.93798407  1
  Zn  Zn184  1  0.06424529  0.31337721  0.06300884  1
  Zn  Zn185  1  0.06214007  0.31217061  0.56331735  1
  Zn  Zn186  1  0.06326355  0.81261612  0.06242212  1
  Zn  Zn187  1  0.06091002  0.81335101  0.56269087  1
  Zn  Zn188  1  0.56408014  0.31447601  0.06305427  1
  Zn  Zn189  1  0.56108760  0.31132792  0.56263926  1
  Zn  Zn190  1  0.56158065  0.81170970  0.06192222  1
  Zn  Zn191  1  0.56399649  0.81190766  0.56085343  1
  O  O192  1  0.12071773  0.11993935  0.12014572  1
  O  O193  1  0.12511986  0.11997859  0.61660710  1
  O  O194  1  0.11990973  0.61527623  0.12332316  1
  O  O195  1  0.11721504  0.61905375  0.62035805  1
  O  O196  1  0.62411563  0.11803545  0.11738189  1
  O  O197  1  0.61806746  0.12638482  0.61799463  1
  O  O198  1  0.62653299  0.62499248  0.11226885  1
  O  O199  1  0.61966984  0.61843934  0.61840590  1
  O  O200  1  0.38058547  0.38057289  0.38122230  1
  O  O201  1  0.38095684  0.38353261  0.87554247  1
  O  O202  1  0.38042136  0.88040166  0.38015061  1
  O  O203  1  0.37557104  0.88254944  0.88196090  1
  O  O204  1  0.88011628  0.37970139  0.38173711  1
  O  O205  1  0.88087127  0.37958417  0.88021821  1
  O  O206  1  0.87953474  0.88001105  0.38101104  1
  O  O207  1  0.87674196  0.87529011  0.88776428  1
  O  O208  1  0.25478827  0.00515784  0.36901291  1
  O  O209  1  0.25579416  0.00603494  0.86999661  1
  O  O210  1  0.25744295  0.50191986  0.37337207  1
  O  O211  1  0.25614132  0.50432112  0.87116407  1
  O  O212  1  0.75550008  0.00689399  0.36844356  1
  O  O213  1  0.75257952  0.00679302  0.86584585  1
  O  O214  1  0.75427017  0.50612331  0.36788970  1
  O  O215  1  0.75868804  0.50569677  0.87232987  1
  O  O216  1  0.24099721  0.49155229  0.12360068  1
  O  O217  1  0.24192336  0.49932490  0.63272431  1
  O  O218  1  0.24554638  0.99466449  0.13073751  1
  O  O219  1  0.24466620  0.99471219  0.63175972  1
  O  O220  1  0.75200169  0.49485410  0.13437155  1
  O  O221  1  0.74272741  0.49267781  0.62526086  1
  O  O222  1  0.74501666  0.99545806  0.12971541  1
  O  O223  1  0.74833485  0.99967067  0.63677247  1
  O  O224  1  -0.00017500  0.36824111  0.25719888  1
  O  O225  1  0.00484123  0.36937961  0.75688351  1
  O  O226  1  0.00564646  0.87057044  0.25306619  1
  O  O227  1  0.00625555  0.86835922  0.75070752  1
  O  O228  1  0.49967116  0.36546658  0.25644211  1
  O  O229  1  0.50652355  0.36820307  0.75568205  1
  O  O230  1  0.49926062  0.87417186  0.26168176  1
  O  O231  1  0.50254107  0.86333426  0.75162528  1
  O  O232  1  0.49484827  0.13454884  0.25182274  1
  O  O233  1  0.49469065  0.13058285  0.74575544  1
  O  O234  1  0.48636625  0.62636891  0.24950086  1
  O  O235  1  0.50018056  0.63422141  0.74386021  1
  O  O236  1  0.99431790  0.13014212  0.24478282  1
  O  O237  1  0.99391927  0.13227171  0.74981417  1
  O  O238  1  0.99737324  0.63144256  0.24317711  1
  O  O239  1  0.99446150  0.63078873  0.74421781  1
  O  O240  1  0.36680871  0.25150045  0.00253080  1
  O  O241  1  0.37450083  0.25654557  0.50700749  1
  O  O242  1  0.36975151  0.75531027  0.00399574  1
  O  O243  1  0.36375327  0.75561569  0.50241727  1
  O  O244  1  0.87051437  0.25465280  0.00517868  1
  O  O245  1  0.86975043  0.25542545  0.50476459  1
  O  O246  1  0.87571547  0.76013446  0.00555384  1
  O  O247  1  0.87396854  0.75879774  0.50488570  1
  O  O248  1  0.12521370  0.24047172  0.49516077  1
  O  O249  1  0.12991209  0.24379190  0.99438910  1
  O  O250  1  0.13231375  0.74499115  0.50059021  1
  O  O251  1  0.13267741  0.75075874  0.99357598  1
  O  O252  1  0.63081996  0.24513485  0.49407809  1
  O  O253  1  0.63169987  0.24458960  0.99496946  1
  O  O254  1  0.62751351  0.73998659  0.49400338  1
  O  O255  1  0.62558786  0.74197515  0.98943988  1
  O  O256  1  0.49998467  0.24967355  0.13763589  1
  O  O257  1  0.49431338  0.24433233  0.63213663  1
  O  O258  1  0.49048179  0.74667155  0.12600795  1
  O  O259  1  0.50007834  0.74359063  0.63379778  1
  O  O260  1  0.99537509  0.24493854  0.12981050  1
  O  O261  1  0.99283448  0.24936860  0.63250975  1
  O  O262  1  0.99620933  0.74491188  0.12942957  1
  O  O263  1  0.99406973  0.74389783  0.63068080  1
  O  O264  1  0.00406620  0.25522835  0.37046086  1
  O  O265  1  0.00608684  0.25571408  0.87069767  1
  O  O266  1  0.00046495  0.75720633  0.36692659  1
  O  O267  1  0.00734556  0.75160082  0.86799020  1
  O  O268  1  0.50446533  0.25468113  0.36732905  1
  O  O269  1  0.50642989  0.25456566  0.86958983  1
  O  O270  1  0.49768022  0.76227427  0.37358666  1
  O  O271  1  0.50873208  0.74919824  0.86586952  1
  O  O272  1  0.23934292  0.12606880  0.49440328  1
  O  O273  1  0.24467111  0.12913582  0.99509754  1
  O  O274  1  0.24326423  0.63430845  0.50167464  1
  O  O275  1  0.24819846  0.63292750  0.99330180  1
  O  O276  1  0.74570948  0.13164624  0.49393528  1
  O  O277  1  0.74587359  0.13044057  0.99509498  1
  O  O278  1  0.74392299  0.62233919  0.48909587  1
  O  O279  1  0.74198561  0.62800001  0.99234875  1
  O  O280  1  0.24988531  0.36817086  0.00982979  1
  O  O281  1  0.25825420  0.37267942  0.50447183  1
  O  O282  1  0.25656979  0.87081361  0.00599295  1
  O  O283  1  0.25253211  0.86756414  0.50516992  1
  O  O284  1  0.75645985  0.36884159  0.00434489  1
  O  O285  1  0.75509470  0.36970044  0.50425624  1
  O  O286  1  0.76065656  0.87505252  0.00579466  1
  O  O287  1  0.76283265  0.87326385  0.49670148  1
  O  O288  1  0.12538672  0.49817915  0.23770638  1
  O  O289  1  0.12806160  0.49468155  0.74608189  1
  O  O290  1  0.13099651  0.99554649  0.24438262  1
  O  O291  1  0.13148296  0.99524933  0.74601204  1
  O  O292  1  0.63764508  0.49824361  0.24891690  1
  O  O293  1  0.62571014  0.49280162  0.74330690  1
  O  O294  1  0.63177988  0.99936712  0.24282813  1
  O  O295  1  0.63670084  0.99948463  0.74952839  1
  O  O296  1  0.36903830  0.00532306  0.25586705  1
  O  O297  1  0.36964992  0.00512332  0.75537695  1
  O  O298  1  0.37302016  0.50886532  0.25666642  1
  O  O299  1  0.36850707  0.49994082  0.76117245  1
  O  O300  1  0.86917229  0.00629964  0.25398081  1
  O  O301  1  0.86680105  0.00623736  0.75104167  1
  O  O302  1  0.86459169  0.50093591  0.25641709  1
  O  O303  1  0.87544688  0.50685327  0.75655321  1
  O  O304  1  0.11771649  0.36893280  0.37551558  1
  O  O305  1  0.11949823  0.36979313  0.87101472  1
  O  O306  1  0.11801877  0.87484707  0.36780174  1
  O  O307  1  0.12541311  0.86860955  0.86768210  1
  O  O308  1  0.61759179  0.36814981  0.37337318  1
  O  O309  1  0.62138499  0.36932629  0.86967137  1
  O  O310  1  0.61311349  0.87518009  0.37426973  1
  O  O311  1  0.62496463  0.86156738  0.87349015  1
  O  O312  1  0.37795044  0.12829496  0.13489043  1
  O  O313  1  0.38003683  0.13026043  0.63126702  1
  O  O314  1  0.37384274  0.63043653  0.13326398  1
  O  O315  1  0.38393929  0.62647763  0.62818308  1
  O  O316  1  0.88098796  0.13042438  0.12984849  1
  O  O317  1  0.87584375  0.13286752  0.63087597  1
  O  O318  1  0.88157886  0.63191919  0.12506873  1
  O  O319  1  0.88022208  0.62915650  0.62952083  1
  O  O320  1  0.24834991  0.25901205  0.12038954  1
  O  O321  1  0.25880810  0.25286248  0.62446275  1
  O  O322  1  0.25562342  0.75638932  0.11875485  1
  O  O323  1  0.24947100  0.75569327  0.61585283  1
  O  O324  1  0.75660363  0.25453736  0.12002319  1
  O  O325  1  0.75526021  0.25584535  0.61866005  1
  O  O326  1  0.75798169  0.75742255  0.12290246  1
  O  O327  1  0.75881189  0.75063238  0.62141277  1
  O  O328  1  0.24283519  0.24319907  0.37638465  1
  O  O329  1  0.24445731  0.24438336  0.87973576  1
  O  O330  1  0.24693475  0.74997129  0.38868322  1
  O  O331  1  0.24564805  0.74513453  0.87925701  1
  O  O332  1  0.74562387  0.24530559  0.37962518  1
  O  O333  1  0.74495961  0.24552901  0.88099189  1
  O  O334  1  0.75171578  0.73583610  0.37432312  1
  O  O335  1  0.74067200  0.74344048  0.87485850  1
  O  O336  1  0.00621623  0.12095104  0.00612967  1
  O  O337  1  0.01209582  0.12272029  0.50113720  1
  O  O338  1  0.00211822  0.61799527  0.00693025  1
  O  O339  1  0.00342730  0.61986319  0.50520604  1
  O  O340  1  0.50753706  0.11888010  0.00095970  1
  O  O341  1  0.50628431  0.12487121  0.50598210  1
  O  O342  1  0.51212076  0.62246472  -0.00099450  1
  O  O343  1  0.50428250  0.61893203  0.50420317  1
  O  O344  1  0.49441819  0.38044455  0.49481251  1
  O  O345  1  0.49870897  0.37624179  0.99120551  1
  O  O346  1  0.49205710  0.87563113  0.49124221  1
  O  O347  1  0.49344437  0.88184818  0.99674347  1
  O  O348  1  0.99399462  0.38073030  0.49506720  1
  O  O349  1  0.99445739  0.37952416  0.99501077  1
  O  O350  1  0.98897078  0.87574002  0.49344041  1
  O  O351  1  0.99141280  0.88124064  1.00146753  1
  O  O352  1  0.49398976  0.49432147  0.38075100  1
  O  O353  1  0.49067808  0.49429385  0.87412489  1
  O  O354  1  0.49269760  0.99123591  0.37699946  1
  O  O355  1  0.49414667  0.99900224  0.88059953  1
  O  O356  1  0.99452578  0.49506822  0.38035152  1
  O  O357  1  0.99550471  0.49470420  0.88083971  1
  O  O358  1  0.99199680  0.99337384  0.37535250  1
  O  O359  1  0.99774670  0.99703156  0.88372073  1
  O  O360  1  0.00671801  0.00679871  0.12078955  1
  O  O361  1  0.00855067  0.00322267  0.62261047  1
  O  O362  1  0.00632718  0.50347085  0.12083105  1
  O  O363  1  0.00418909  0.50538803  0.61938264  1
  O  O364  1  0.50682042  0.00128443  0.11772238  1
  O  O365  1  0.50149949  0.00887381  0.62319939  1
  O  O366  1  0.50384806  0.50400120  0.12145522  1
  O  O367  1  0.50531732  0.50448243  0.61996418  1
  O  O368  1  0.24686189  0.37644946  0.23906844  1
  O  O369  1  0.24167105  0.38177625  0.75001348  1
  O  O370  1  0.24562553  0.88029024  0.24492193  1
  O  O371  1  0.24485682  0.87999607  0.74473597  1
  O  O372  1  0.75025579  0.38380473  0.24511775  1
  O  O373  1  0.74352481  0.37556124  0.74271184  1
  O  O374  1  0.75024863  0.88325978  0.24328926  1
  O  O375  1  0.75048671  0.88638752  0.74918837  1
  O  O376  1  0.25465424  0.11926607  0.25616320  1
  O  O377  1  0.25557300  0.11930190  0.75615450  1
  O  O378  1  0.26120809  0.62324242  0.25189375  1
  O  O379  1  0.25062390  0.61818016  0.75694345  1
  O  O380  1  0.75591012  0.12095941  0.25508259  1
  O  O381  1  0.75527056  0.11904002  0.75510409  1
  O  O382  1  0.75148850  0.61581731  0.25788274  1
  O  O383  1  0.75730977  0.62257259  0.75593113  1
  O  O384  1  0.36915276  0.11975434  0.37069595  1
  O  O385  1  0.36983088  0.11970394  0.86927083  1
  O  O386  1  0.37238285  0.61949682  0.36732681  1
  O  O387  1  0.36917190  0.61534177  0.87289233  1
  O  O388  1  0.86968493  0.12061370  0.36969482  1
  O  O389  1  0.86811672  0.12482518  0.86846315  1
  O  O390  1  0.86574414  0.61757925  0.37441957  1
  O  O391  1  0.87122792  0.62069283  0.87028288  1
  O  O392  1  0.13221745  0.38323554  0.12660306  1
  O  O393  1  0.12399040  0.38199379  0.63251726  1
  O  O394  1  0.13149795  0.88141571  0.13037042  1
  O  O395  1  0.13029357  0.88056689  0.63064553  1
  O  O396  1  0.63562529  0.37735511  0.12776372  1
  O  O397  1  0.62926782  0.37897567  0.62957623  1
  O  O398  1  0.63238151  0.88168066  0.12380786  1
  O  O399  1  0.62984886  0.87789137  0.62643940  1
  O  O400  1  0.11679698  0.24990968  0.25794034  1
  O  O401  1  0.12002120  0.25466651  0.75624178  1
  O  O402  1  0.11952405  0.75723361  0.24990949  1
  O  O403  1  0.12001168  0.75543810  0.75429752  1
  O  O404  1  0.61578831  0.24967259  0.25640052  1
  O  O405  1  0.62025791  0.25471736  0.75598007  1
  O  O406  1  0.62069849  0.75373173  0.25491894  1
  O  O407  1  0.61703504  0.74817930  0.75826917  1
  O  O408  1  0.38497881  0.24447378  0.25163581  1
  O  O409  1  0.38103464  0.24413183  0.74666699  1
  O  O410  1  0.37428045  0.74121891  0.24358436  1
  O  O411  1  0.38649157  0.74751335  0.74958670  1
  O  O412  1  0.88004728  0.24413205  0.24443951  1
  O  O413  1  0.87980791  0.24579224  0.74510644  1
  O  O414  1  0.88301920  0.74960885  0.24154096  1
  O  O415  1  0.88059460  0.74463686  0.74469208  1
  O  O416  1  0.38066776  0.49522101  0.49568344  1
  O  O417  1  0.37487804  0.49790186  0.98668585  1
  O  O418  1  0.37396365  0.99279219  0.49325147  1
  O  O419  1  0.38039078  0.99579863  0.99503744  1
  O  O420  1  0.88050458  0.49399262  0.49547404  1
  O  O421  1  0.88028553  0.49394467  0.99450922  1
  O  O422  1  0.87511198  0.99177292  0.49351212  1
  O  O423  1  0.88139332  0.99122147  1.00079609  1
  O  O424  1  0.12154159  0.00526020  0.00616805  1
  O  O425  1  0.12448740  0.00884507  0.50582971  1
  O  O426  1  0.11835105  0.50023911  0.01079140  1
  O  O427  1  0.11825600  0.50517819  0.50628941  1
  O  O428  1  0.62112491  0.00501624  0.00351090  1
  O  O429  1  0.62359833  0.01068832  0.50157117  1
  O  O430  1  0.62522466  0.51148389  -0.00098179  1
  O  O431  1  0.61767032  0.50409871  0.50536525  1
  O  O432  1  0.36269178  0.37384817  0.12345211  1
  O  O433  1  0.37549695  0.36902263  0.61983875  1
  O  O434  1  0.36936197  0.87013617  0.11950315  1
  O  O435  1  0.36705562  0.87286792  0.61858689  1
  O  O436  1  0.87084236  0.36883834  0.11865259  1
  O  O437  1  0.86950029  0.37006217  0.61961413  1
  O  O438  1  0.87091982  0.87126714  0.11639345  1
  O  O439  1  0.87405621  0.86945223  0.61439152  1
  O  O440  1  0.12927868  0.12872777  0.38293944  1
  O  O441  1  0.13119205  0.13012411  0.88058249  1
  O  O442  1  0.12658806  0.62776615  0.38369448  1
  O  O443  1  0.13169214  0.63194311  0.87722091  1
  O  O444  1  0.63117942  0.13099131  0.38053465  1
  O  O445  1  0.63142856  0.13175335  0.88085351  1
  O  O446  1  0.63434098  0.62240663  0.38000080  1
  O  O447  1  0.63025726  0.63227490  0.88056406  1
