# generated using pymatgen
data_V3Zn3O8
_symmetry_space_group_name_H-M   'P 1'
_cell_length_a   17.08695587
_cell_length_b   17.08642594
_cell_length_c   17.08452747
_cell_angle_alpha   89.99997037
_cell_angle_beta   89.99429936
_cell_angle_gamma   90.00704251
_symmetry_Int_Tables_number   1
_chemical_formula_structural   V3Zn3O8
_chemical_formula_sum   'V96 Zn96 O256'
_cell_volume   4987.91325848
_cell_formula_units_Z   32
loop_
 _symmetry_equiv_pos_site_id
 _symmetry_equiv_pos_as_xyz
  1  'x, y, z'
loop_
 _atom_site_type_symbol
 _atom_site_label
 _atom_site_symmetry_multiplicity
 _atom_site_fract_x
 _atom_site_fract_y
 _atom_site_fract_z
 _atom_site_occupancy
  V  V0  1  0.62540699  0.50070146  0.12514419  1
  V  V1  1  0.75252132  0.62415273  0.87237861  1
  V  V2  1  0.87483179  0.37314098  0.00041036  1
  V  V3  1  0.12543169  0.24762114  0.87627962  1
  V  V4  1  0.24952756  0.24933326  0.00052833  1
  V  V5  1  -0.00141865  0.12450035  0.62560964  1
  V  V6  1  0.62442453  0.25072757  0.37449889  1
  V  V7  1  0.12525124  0.49829136  0.62603099  1
  V  V8  1  -0.00110977  0.00065599  0.49982099  1
  V  V9  1  0.87445827  0.24980725  0.62497187  1
  V  V10  1  0.62556074  0.37599411  0.74954610  1
  V  V11  1  0.87497511  0.37626615  0.49931566  1
  V  V12  1  0.49924304  0.12693429  0.12463089  1
  V  V13  1  0.74957252  0.50089468  0.24859414  1
  V  V14  1  0.87492638  0.12672225  0.24958910  1
  V  V15  1  0.24957475  0.24976434  0.50064606  1
  V  V16  1  0.87394466  0.12248804  0.75085840  1
  V  V17  1  0.12423749  0.74869876  0.87444024  1
  V  V18  1  0.25062891  0.37482340  0.12421395  1
  V  V19  1  0.87530370  0.24996049  0.12530332  1
  V  V20  1  0.37475637  0.25124842  0.12366508  1
  V  V21  1  0.75045442  0.25027217  0.00042322  1
  V  V22  1  0.12506656  0.37432388  0.25125149  1
  V  V23  1  0.12526850  0.12359598  0.00118038  1
  V  V24  1  0.37493694  0.75071352  0.12687378  1
  V  V25  1  0.25020801  -0.00000655  0.75179766  1
  V  V26  1  0.12446155  0.87191747  0.74987723  1
  V  V27  1  0.74848316  0.12709893  0.37451019  1
  V  V28  1  0.62432310  0.24953590  0.87430830  1
  V  V29  1  0.37493425  0.87499420  0.00162968  1
  V  V30  1  0.62538144  0.87637520  0.24942586  1
  V  V31  1  0.87348452  0.87652078  0.50052514  1
  V  V32  1  0.12412705  0.62394871  0.50154797  1
  V  V33  1  0.25107799  0.50031370  0.25075097  1
  V  V34  1  0.49809305  0.49923187  -0.00232851  1
  V  V35  1  0.75064153  0.75323194  0.49934755  1
  V  V36  1  0.37732010  0.62312570  0.74978408  1
  V  V37  1  0.62482283  0.00116102  0.12439097  1
  V  V38  1  0.62623453  0.62566892  -0.00111449  1
  V  V39  1  0.74973886  0.37510115  0.62511598  1
  V  V40  1  0.75019593  0.12346821  0.87485124  1
  V  V41  1  0.37429532  0.24953194  0.62511848  1
  V  V42  1  0.00057834  0.62452579  0.12523066  1
  V  V43  1  0.75073863  0.62707543  0.37386941  1
  V  V44  1  0.87409744  0.00173307  0.37485170  1
  V  V45  1  0.12514916  -0.00127154  0.12582850  1
  V  V46  1  0.75065033  0.74897857  -0.00125490  1
  V  V47  1  0.49896672  -0.00005375  0.00022623  1
  V  V48  1  0.25240774  0.62417459  0.37449895  1
  V  V49  1  0.25128780  0.62183779  0.87448116  1
  V  V50  1  0.75012422  0.00139158  0.24910505  1
  V  V51  1  0.62378334  0.62449173  0.50155371  1
  V  V52  1  -0.00001236  0.24826854  0.75108178  1
  V  V53  1  0.24916715  0.00006852  0.25089537  1
  V  V54  1  0.87534957  0.49921669  0.87380828  1
  V  V55  1  0.12437876  0.25081370  0.37503951  1
  V  V56  1  0.24979025  0.12441447  0.37508943  1
  V  V57  1  0.12576849  0.37383430  0.74975889  1
  V  V58  1  0.75038594  0.87529337  0.12367266  1
  V  V59  1  0.12397138  0.12552856  0.50059482  1
  V  V60  1  0.37730368  0.74836757  0.62593908  1
  V  V61  1  0.87512200  0.62472147  0.24971542  1
  V  V62  1  0.62592812  0.75211227  0.37460534  1
  V  V63  1  0.49968606  0.24951807  0.75011848  1
  V  V64  1  0.62376859  0.12618276  0.49879272  1
  V  V65  1  0.37370760  0.87460071  0.50060128  1
  V  V66  1  0.12390823  -0.00127570  0.62568360  1
  V  V67  1  -0.00012256  0.25054611  0.25074068  1
  V  V68  1  0.87500665  -0.00124802  0.87550989  1
  V  V69  1  0.87598334  0.50010752  0.37553314  1
  V  V70  1  0.00025960  0.75090133  0.25096830  1
  V  V71  1  0.37591959  0.37666137  0.50002023  1
  V  V72  1  0.62502222  -0.00235958  0.62757993  1
  V  V73  1  0.50038458  0.75069897  0.24919610  1
  V  V74  1  0.12565236  0.49966701  0.12566786  1
  V  V75  1  0.49896183  0.12431451  0.62476331  1
  V  V76  1  0.37381980  0.00117778  0.37525712  1
  V  V77  1  0.37347597  0.12415247  0.75051220  1
  V  V78  1  0.62459112  0.37706055  0.24941759  1
  V  V79  1  0.50010569  0.62673137  0.12559134  1
  V  V80  1  0.25050501  0.74928345  0.50010700  1
  V  V81  1  0.49902552  0.25137859  0.24864873  1
  V  V82  1  0.00021679  0.49841796  0.00026693  1
  V  V83  1  0.50002847  0.87658505  0.37440605  1
  V  V84  1  0.87666178  0.74973527  0.62588846  1
  V  V85  1  0.49837961  0.00075795  0.49975682  1
  V  V86  1  0.50060306  0.87232118  0.87429883  1
  V  V87  1  -0.00037919  0.87503799  0.37419019  1
  V  V88  1  0.12591125  0.62411206  -0.00043095  1
  V  V89  1  0.87579916  0.74954542  0.12398795  1
  V  V90  1  0.49978103  0.37672913  0.37545297  1
  V  V91  1  0.00068824  -0.00148916  0.00078523  1
  V  V92  1  0.87612307  0.87484799  -0.00123215  1
  V  V93  1  0.25006007  0.87494560  0.12633282  1
  V  V94  1  -0.00002839  0.37319876  0.87562625  1
  V  V95  1  0.62450473  0.12599296  -0.00052561  1
  Zn  Zn96  1  0.62577163  0.87187805  0.75035181  1
  Zn  Zn97  1  0.50474797  0.62317693  0.62785117  1
  Zn  Zn98  1  0.25123247  0.12377844  0.87747065  1
  Zn  Zn99  1  0.00042975  0.12380032  0.12626997  1
  Zn  Zn100  1  0.75209733  0.50091347  0.74852968  1
  Zn  Zn101  1  0.74950524  0.87656977  0.62819103  1
  Zn  Zn102  1  0.25052632  0.37363078  0.62690808  1
  Zn  Zn103  1  -0.00138752  0.62401454  0.62589593  1
  Zn  Zn104  1  0.37431044  0.12637797  0.24982031  1
  Zn  Zn105  1  0.12513090  0.87360646  0.25218782  1
  Zn  Zn106  1  0.74878179  -0.00248659  0.75128233  1
  Zn  Zn107  1  0.12483215  0.75143002  0.37528288  1
  Zn  Zn108  1  -0.00099399  0.87282552  0.87472051  1
  Zn  Zn109  1  0.74979593  0.37537084  0.12459312  1
  Zn  Zn110  1  0.49742371  0.37491324  0.87407957  1
  Zn  Zn111  1  0.50290008  0.74948067  0.75103810  1
  Zn  Zn112  1  0.87798550  0.62258423  0.74674319  1
  Zn  Zn113  1  0.62530233  0.50098859  0.62444710  1
  Zn  Zn114  1  0.74930488  0.25023748  0.49904837  1
  Zn  Zn115  1  0.24991452  0.87325957  0.62441337  1
  Zn  Zn116  1  0.37783587  0.50036863  0.37444220  1
  Zn  Zn117  1  -0.00044280  0.74657152  0.74819923  1
  Zn  Zn118  1  0.00051135  0.37738319  0.37651444  1
  Zn  Zn119  1  0.25291417  0.49534735  0.74977431  1
  Zn  Zn120  1  0.50055096  0.50245392  0.50075982  1
  Zn  Zn121  1  0.37401239  0.37547864  -0.00470716  1
  Zn  Zn122  1  0.37650752  0.62367113  0.25072949  1
  Zn  Zn123  1  -0.00049413  0.49959431  0.49891110  1
  Zn  Zn124  1  0.37426658  -0.00025093  0.87635488  1
  Zn  Zn125  1  0.37659473  0.49784507  0.87255178  1
  Zn  Zn126  1  0.62636498  0.75004453  0.87094497  1
  Zn  Zn127  1  0.25052258  0.74993822  0.00250068  1
  Zn  Zn128  1  0.18757046  0.18608313  0.18716171  1
  Zn  Zn129  1  0.18769133  0.18686039  0.68731946  1
  Zn  Zn130  1  0.18682395  0.68901298  0.18959171  1
  Zn  Zn131  1  0.19179057  0.68523961  0.68747209  1
  Zn  Zn132  1  0.68733030  0.18957732  0.18689957  1
  Zn  Zn133  1  0.68773356  0.18679813  0.68735865  1
  Zn  Zn134  1  0.68698619  0.68797541  0.18611044  1
  Zn  Zn135  1  0.69023183  0.69235794  0.68818228  1
  Zn  Zn136  1  0.31257600  0.31246782  0.31271156  1
  Zn  Zn137  1  0.31237954  0.31310502  0.81432502  1
  Zn  Zn138  1  0.31240477  0.81255881  0.31265538  1
  Zn  Zn139  1  0.31300905  0.81107324  0.81378967  1
  Zn  Zn140  1  0.81144760  0.31455911  0.31222761  1
  Zn  Zn141  1  0.81238234  0.31063351  0.81296638  1
  Zn  Zn142  1  0.81403093  0.81387622  0.31138946  1
  Zn  Zn143  1  0.81009499  0.81399093  0.80950438  1
  Zn  Zn144  1  0.18976093  0.43777333  0.43800370  1
  Zn  Zn145  1  0.18695439  0.43577975  0.93721370  1
  Zn  Zn146  1  0.18670671  0.93645440  0.43725128  1
  Zn  Zn147  1  0.18792949  0.93581940  0.93895927  1
  Zn  Zn148  1  0.68922952  0.43879150  0.43606639  1
  Zn  Zn149  1  0.68743959  0.43766019  0.93704846  1
  Zn  Zn150  1  0.68732567  0.93988374  0.43883945  1
  Zn  Zn151  1  0.68668623  0.93731786  0.93715873  1
  Zn  Zn152  1  0.31271699  0.06262793  0.06390652  1
  Zn  Zn153  1  0.31029939  0.06203246  0.56402896  1
  Zn  Zn154  1  0.31383542  0.56397409  0.06335367  1
  Zn  Zn155  1  0.31073542  0.56073656  0.56424750  1
  Zn  Zn156  1  0.81367822  0.06345210  0.06176275  1
  Zn  Zn157  1  0.80940735  0.06373651  0.56193822  1
  Zn  Zn158  1  0.81310363  0.56126219  0.06088064  1
  Zn  Zn159  1  0.80991933  0.56292124  0.56104727  1
  Zn  Zn160  1  0.43609063  0.43855878  0.18593735  1
  Zn  Zn161  1  0.44187973  0.44016740  0.68288079  1
  Zn  Zn162  1  0.43594652  0.93896563  0.18818160  1
  Zn  Zn163  1  0.43714424  0.93593374  0.68820953  1
  Zn  Zn164  1  0.93746030  0.43581878  0.18850511  1
  Zn  Zn165  1  0.93960693  0.43780940  0.68750662  1
  Zn  Zn166  1  0.93816536  0.93732677  0.18702284  1
  Zn  Zn167  1  0.93758201  0.93566406  0.68859881  1
  Zn  Zn168  1  0.06218118  0.06273030  0.31178923  1
  Zn  Zn169  1  0.06168679  0.06130021  0.81529400  1
  Zn  Zn170  1  0.06275958  0.56241908  0.31370467  1
  Zn  Zn171  1  0.06034275  0.56205233  0.80884352  1
  Zn  Zn172  1  0.56119145  0.06434401  0.31109310  1
  Zn  Zn173  1  0.55996474  0.06109598  0.81319995  1
  Zn  Zn174  1  0.56187144  0.56249687  0.31473928  1
  Zn  Zn175  1  0.56474437  0.56264021  0.81266717  1
  Zn  Zn176  1  0.43740491  0.18905808  0.43637201  1
  Zn  Zn177  1  0.43549897  0.18780480  0.93571276  1
  Zn  Zn178  1  0.43840348  0.68956632  0.43718929  1
  Zn  Zn179  1  0.43667485  0.68856346  0.93933770  1
  Zn  Zn180  1  0.93683818  0.19012226  0.43733431  1
  Zn  Zn181  1  0.93845265  0.18431302  0.93924234  1
  Zn  Zn182  1  0.93849097  0.68822402  0.43852385  1
  Zn  Zn183  1  0.93840409  0.68594263  0.93703813  1
  Zn  Zn184  1  0.06266612  0.31088891  0.06447093  1
  Zn  Zn185  1  0.06008569  0.31400711  0.56230119  1
  Zn  Zn186  1  0.06384486  0.81270404  0.06269064  1
  Zn  Zn187  1  0.06159763  0.81241068  0.56107919  1
  Zn  Zn188  1  0.56223349  0.31486142  0.06230579  1
  Zn  Zn189  1  0.56159307  0.31137344  0.56237766  1
  Zn  Zn190  1  0.56317928  0.81212010  0.06016407  1
  Zn  Zn191  1  0.56068370  0.81200755  0.56165844  1
  O  O192  1  0.12375935  0.11684070  0.11890250  1
  O  O193  1  0.11765687  0.11941220  0.62004606  1
  O  O194  1  0.12034884  0.61934955  0.11991972  1
  O  O195  1  0.12806232  0.61697121  0.61622189  1
  O  O196  1  0.61976208  0.12080503  0.11911434  1
  O  O197  1  0.61816488  0.11861976  0.61930221  1
  O  O198  1  0.61979650  0.62048525  0.11899825  1
  O  O199  1  0.62876155  0.62665594  0.61252364  1
  O  O200  1  0.38051142  0.37388117  0.38494357  1
  O  O201  1  0.37958715  0.38039016  0.87716905  1
  O  O202  1  0.38068388  0.88077119  0.38097579  1
  O  O203  1  0.38268643  0.87559084  0.88237708  1
  O  O204  1  0.87375631  0.38216514  0.38167262  1
  O  O205  1  0.88101955  0.37779154  0.88069033  1
  O  O206  1  0.87909300  0.88289483  0.38004479  1
  O  O207  1  0.87651209  0.87969863  0.88153159  1
  O  O208  1  0.25467463  0.00520791  0.37148216  1
  O  O209  1  0.25031539  -0.00000012  0.86281215  1
  O  O210  1  0.25156641  0.50929141  0.36979771  1
  O  O211  1  0.25019492  0.51218266  0.87403776  1
  O  O212  1  0.75420317  0.00681585  0.36849320  1
  O  O213  1  0.75654035  0.00701464  0.87634745  1
  O  O214  1  0.75548573  0.50793117  0.36747840  1
  O  O215  1  0.75676716  0.50891398  0.87605912  1
  O  O216  1  0.24410908  0.49578550  0.12982134  1
  O  O217  1  0.23726378  0.49635848  0.62729658  1
  O  O218  1  0.24531930  0.99445827  0.13140317  1
  O  O219  1  0.24263029  0.99804290  0.63537006  1
  O  O220  1  0.74354398  0.50028780  0.13066603  1
  O  O221  1  0.74817873  0.48667794  0.62696119  1
  O  O222  1  0.74461768  0.99534528  0.12922110  1
  O  O223  1  0.73647790  1.00059826  0.62501696  1
  O  O224  1  0.00749426  0.36870407  0.25209431  1
  O  O225  1  0.00500452  0.36712134  0.75645796  1
  O  O226  1  -0.00134603  0.86868916  0.25646780  1
  O  O227  1  0.01431716  0.87230202  0.75252938  1
  O  O228  1  0.50524381  0.37124572  0.25476695  1
  O  O229  1  0.51130002  0.36857724  0.74815416  1
  O  O230  1  0.50662848  0.87177955  0.25495833  1
  O  O231  1  0.49911773  0.87363389  0.76273599  1
  O  O232  1  0.49905316  0.13299919  0.24250951  1
  O  O233  1  0.49366121  0.12961845  0.74409509  1
  O  O234  1  0.50086282  0.63285525  0.24448874  1
  O  O235  1  0.48922539  0.62737089  0.75075977  1
  O  O236  1  0.99225779  0.13176491  0.24953490  1
  O  O237  1  0.99455759  0.12880801  0.74494696  1
  O  O238  1  0.99431448  0.62977032  0.24426824  1
  O  O239  1  0.99625619  0.62939213  0.74428774  1
  O  O240  1  0.36822626  0.25121153  0.00608458  1
  O  O241  1  0.37013800  0.25682799  0.50513489  1
  O  O242  1  0.37317908  0.75663534  0.00936166  1
  O  O243  1  0.37045196  0.75419936  0.50742889  1
  O  O244  1  0.87050235  0.25384038  0.00471580  1
  O  O245  1  0.87233673  0.25664860  0.50744581  1
  O  O246  1  0.87095983  0.75436361  0.00548879  1
  O  O247  1  0.86988976  0.75652901  0.50536420  1
  O  O248  1  0.12907815  0.24456935  0.49576557  1
  O  O249  1  0.12937502  0.24376678  0.99623180  1
  O  O250  1  0.13174505  0.73952307  0.50089991  1
  O  O251  1  0.12690953  0.74296995  0.99091732  1
  O  O252  1  0.62485010  0.24348595  0.49239706  1
  O  O253  1  0.62973415  0.24518202  0.99486538  1
  O  O254  1  0.63037056  0.74530440  0.49361563  1
  O  O255  1  0.63359238  0.74294583  0.99901940  1
  O  O256  1  0.49535054  0.24613259  0.12896770  1
  O  O257  1  0.49441642  0.24289166  0.63055934  1
  O  O258  1  0.49611518  0.74656424  0.13029405  1
  O  O259  1  0.48701444  0.74651137  0.62475808  1
  O  O260  1  0.99332972  0.24786964  0.13270718  1
  O  O261  1  0.99447885  0.24351730  0.63142684  1
  O  O262  1  0.99474624  0.74366518  0.12922532  1
  O  O263  1  0.98800323  0.74885136  0.62294417  1
  O  O264  1  0.00712226  0.25173109  0.36861476  1
  O  O265  1  0.00506686  0.25382116  0.87076719  1
  O  O266  1  -0.00076885  0.75690943  0.36883132  1
  O  O267  1  0.01390060  0.74911107  0.87311420  1
  O  O268  1  0.50557035  0.25568033  0.36831488  1
  O  O269  1  0.50733540  0.25069882  0.86779552  1
  O  O270  1  0.50607262  0.75786687  0.36935435  1
  O  O271  1  0.50174911  0.76118543  0.87721276  1
  O  O272  1  0.24342216  0.12957040  0.49550796  1
  O  O273  1  0.24324038  0.13063732  0.99978376  1
  O  O274  1  0.24346415  0.62839670  0.49313051  1
  O  O275  1  0.24449727  0.62592589  0.99122320  1
  O  O276  1  0.74232725  0.12734442  0.49191212  1
  O  O277  1  0.74393100  0.13049367  0.99490331  1
  O  O278  1  0.74284803  0.63318163  0.49234375  1
  O  O279  1  0.74677456  0.62905855  0.99224884  1
  O  O280  1  0.24919357  0.36817955  0.00723422  1
  O  O281  1  0.25995434  0.36746350  0.50115446  1
  O  O282  1  0.25685522  0.87336034  0.00775627  1
  O  O283  1  0.25612472  0.86845616  0.50139625  1
  O  O284  1  0.75652815  0.36788215  0.00025787  1
  O  O285  1  0.75453510  0.37313149  0.50956085  1
  O  O286  1  0.75575154  0.86961470  0.00526101  1
  O  O287  1  0.75619443  0.87070728  0.50016515  1
  O  O288  1  0.13057207  0.49501807  0.24452248  1
  O  O289  1  0.12577504  0.49277042  0.74172919  1
  O  O290  1  0.13117671  0.99844675  0.24434189  1
  O  O291  1  0.13094470  0.99202043  0.74639817  1
  O  O292  1  0.63000258  0.49670888  0.24500375  1
  O  O293  1  0.62885596  0.48720332  0.74844365  1
  O  O294  1  0.63040774  0.99577199  0.24421126  1
  O  O295  1  0.62259385  1.00035803  0.73705542  1
  O  O296  1  0.36835484  0.00245269  0.25765816  1
  O  O297  1  0.36428164  0.00427471  0.74870811  1
  O  O298  1  0.36667401  0.50296917  0.25256702  1
  O  O299  1  0.37435693  0.51109988  0.74933319  1
  O  O300  1  0.86880398  0.00587891  0.25481797  1
  O  O301  1  0.87544485  0.00600729  0.75690695  1
  O  O302  1  0.86966254  0.50631901  0.25386714  1
  O  O303  1  0.87289858  0.50018350  0.75858107  1
  O  O304  1  0.12573949  0.36857516  0.36928329  1
  O  O305  1  0.11833337  0.36808234  0.87044354  1
  O  O306  1  0.11535656  0.87262231  0.37435402  1
  O  O307  1  0.12653026  0.86432953  0.86758044  1
  O  O308  1  0.62000438  0.37088531  0.36960189  1
  O  O309  1  0.62576129  0.36825216  0.86436077  1
  O  O310  1  0.61999980  0.87222135  0.36933658  1
  O  O311  1  0.61288371  0.87393100  0.87650515  1
  O  O312  1  0.38218909  0.13269558  0.12640852  1
  O  O313  1  0.38003439  0.12963342  0.62962199  1
  O  O314  1  0.38225890  0.63296321  0.12730872  1
  O  O315  1  0.37385969  0.63223332  0.63293576  1
  O  O316  1  0.87567433  0.13154644  0.13216074  1
  O  O317  1  0.87939420  0.12929335  0.63008980  1
  O  O318  1  0.88102496  0.62960598  0.12908276  1
  O  O319  1  0.87438993  0.63648453  0.62282217  1
  O  O320  1  0.25434285  0.25545166  0.12027820  1
  O  O321  1  0.25613587  0.24938177  0.61808793  1
  O  O322  1  0.25627732  0.75642177  0.12590207  1
  O  O323  1  0.26181127  0.74992658  0.61918804  1
  O  O324  1  0.75647740  0.25159471  0.11799667  1
  O  O325  1  0.75578967  0.25882610  0.62418827  1
  O  O326  1  0.75630574  0.75538137  0.11956639  1
  O  O327  1  0.76007319  0.75430316  0.61687573  1
  O  O328  1  0.24388838  0.24385999  0.38050443  1
  O  O329  1  0.24218519  0.24758278  0.88227510  1
  O  O330  1  0.24936179  0.74031181  0.38094331  1
  O  O331  1  0.24094075  0.73933500  0.87620508  1
  O  O332  1  0.74191457  0.24430570  0.37456445  1
  O  O333  1  0.74471063  0.24294027  0.88098540  1
  O  O334  1  0.74526457  0.74693786  0.37846617  1
  O  O335  1  0.75202380  0.73962197  0.88151022  1
  O  O336  1  0.00692706  0.11674228  0.00312950  1
  O  O337  1  0.00422763  0.12017577  0.50550966  1
  O  O338  1  0.00577229  0.61806912  0.00580939  1
  O  O339  1  0.01365411  0.62339701  0.50077441  1
  O  O340  1  0.50573215  0.12062435  0.00482275  1
  O  O341  1  0.50378091  0.11982354  0.50475212  1
  O  O342  1  0.50602698  0.61875715  0.00550583  1
  O  O343  1  0.51364435  0.62779689  0.49894398  1
  O  O344  1  0.49055155  0.37313337  0.49442555  1
  O  O345  1  0.50020034  0.38758531  0.99827947  1
  O  O346  1  0.49349621  0.88074983  0.49311848  1
  O  O347  1  0.49473327  0.88055915  0.99469863  1
  O  O348  1  0.99026995  0.37761615  0.49751662  1
  O  O349  1  0.99540491  0.37901432  0.99516748  1
  O  O350  1  0.99365647  0.88233850  0.49443229  1
  O  O351  1  0.99366361  0.87981624  0.99847385  1
  O  O352  1  0.49786206  0.49276839  0.37960989  1
  O  O353  1  0.50062894  0.50070821  0.88718576  1
  O  O354  1  0.49482508  0.99567802  0.37975542  1
  O  O355  1  0.49792403  0.99085952  0.88257390  1
  O  O356  1  0.99149382  0.49878951  0.37652172  1
  O  O357  1  0.99619727  0.49305622  0.88141961  1
  O  O358  1  0.99291945  0.99677140  0.38058665  1
  O  O359  1  0.99328581  0.99675275  0.88283356  1
  O  O360  1  0.00645657  0.00022520  0.11875512  1
  O  O361  1  0.00435496  0.00521326  0.61952497  1
  O  O362  1  0.00563694  0.50497680  0.12039618  1
  O  O363  1  0.01310043  0.50135907  0.62213117  1
  O  O364  1  0.50595455  0.00587569  0.12054843  1
  O  O365  1  0.50488741  0.00512925  0.61904724  1
  O  O366  1  0.50577876  0.50665730  0.11774766  1
  O  O367  1  0.50813877  0.50615939  0.61787441  1
  O  O368  1  0.24403201  0.37985844  0.24446939  1
  O  O369  1  0.24126609  0.37555464  0.74772577  1
  O  O370  1  0.24881657  0.88202337  0.24489403  1
  O  O371  1  0.24088441  0.88193063  0.74911782  1
  O  O372  1  0.74237861  0.38329967  0.24828607  1
  O  O373  1  0.74200623  0.37238539  0.74176258  1
  O  O374  1  0.74532258  0.88139764  0.24364148  1
  O  O375  1  0.74374822  0.88124610  0.74611342  1
  O  O376  1  0.25114091  0.11866013  0.25780227  1
  O  O377  1  0.25354942  0.11463421  0.75061090  1
  O  O378  1  0.24968406  0.61992841  0.26027143  1
  O  O379  1  0.25951579  0.62251901  0.75876139  1
  O  O380  1  0.75412007  0.12031156  0.25478641  1
  O  O381  1  0.75614600  0.12298703  0.75705744  1
  O  O382  1  0.75558668  0.62154195  0.25428460  1
  O  O383  1  0.75310184  0.62333257  0.76179255  1
  O  O384  1  0.36803195  0.11894778  0.37503950  1
  O  O385  1  0.37212512  0.12085169  0.86604314  1
  O  O386  1  0.36355002  0.62393319  0.37604602  1
  O  O387  1  0.36663102  0.62635747  0.86743847  1
  O  O388  1  0.86871167  0.12090551  0.36964617  1
  O  O389  1  0.86975348  0.11915764  0.87064141  1
  O  O390  1  0.86945431  0.62149065  0.36940626  1
  O  O391  1  0.86663885  0.61834800  0.87658339  1
  O  O392  1  0.13063662  0.38062277  0.13090950  1
  O  O393  1  0.12538299  0.38187210  0.63038360  1
  O  O394  1  0.13219388  0.88096661  0.12692559  1
  O  O395  1  0.12632886  0.87916789  0.63342462  1
  O  O396  1  0.62643949  0.38248071  0.13186047  1
  O  O397  1  0.63397650  0.37179265  0.63271871  1
  O  O398  1  0.63074670  0.88120546  0.12944283  1
  O  O399  1  0.62237114  0.88776889  0.62309852  1
  O  O400  1  0.12059933  0.25484587  0.25541906  1
  O  O401  1  0.11835183  0.25282672  0.75520160  1
  O  O402  1  0.11519468  0.75178670  0.25344384  1
  O  O403  1  0.12827553  0.75663164  0.75645686  1
  O  O404  1  0.61878971  0.25694236  0.25442112  1
  O  O405  1  0.61972168  0.25620996  0.75408515  1
  O  O406  1  0.62102717  0.75749016  0.25445143  1
  O  O407  1  0.61987490  0.75334148  0.75298604  1
  O  O408  1  0.38153033  0.24968017  0.24285526  1
  O  O409  1  0.37955169  0.24423064  0.74429521  1
  O  O410  1  0.38360280  0.74952386  0.24481151  1
  O  O411  1  0.37450288  0.74132080  0.74172236  1
  O  O412  1  0.87919837  0.24605570  0.24559605  1
  O  O413  1  0.88097084  0.24304155  0.74551847  1
  O  O414  1  0.87927659  0.74396475  0.24311471  1
  O  O415  1  0.87637746  0.75057483  0.73727257  1
  O  O416  1  0.37486444  0.48708339  0.49930005  1
  O  O417  1  0.38747172  0.50100725  0.99963754  1
  O  O418  1  0.37913168  0.99493312  0.49580362  1
  O  O419  1  0.38174589  0.99341850  1.00049449  1
  O  O420  1  0.87458915  0.49445354  0.49352283  1
  O  O421  1  0.88168217  0.49316721  0.99485810  1
  O  O422  1  0.87955504  0.99743794  0.49445558  1
  O  O423  1  0.88012351  0.99422843  0.99570657  1
  O  O424  1  0.12074083  0.00344802  0.00552673  1
  O  O425  1  0.11893414  0.00574645  0.50570629  1
  O  O426  1  0.11907470  0.50432449  0.00574258  1
  O  O427  1  0.12624933  0.50758536  0.50779743  1
  O  O428  1  0.61988709  0.00661512  0.00636083  1
  O  O429  1  0.61737623  0.00636951  0.50635704  1
  O  O430  1  0.61804441  0.50578437  0.00498409  1
  O  O431  1  0.62770380  0.51421858  0.49839931  1
  O  O432  1  0.36771186  0.36890513  0.12184555  1
  O  O433  1  0.37505987  0.36785955  0.61608908  1
  O  O434  1  0.37045763  0.87036216  0.12100645  1
  O  O435  1  0.37402429  0.86516344  0.61954229  1
  O  O436  1  0.87333194  0.36851976  0.11810696  1
  O  O437  1  0.86746431  0.36995279  0.62149966  1
  O  O438  1  0.86903019  0.86945522  0.11935891  1
  O  O439  1  0.87456308  0.86828328  0.61748458  1
  O  O440  1  0.12987083  0.13007236  0.38192169  1
  O  O441  1  0.12616179  0.13048386  0.88242368  1
  O  O442  1  0.13554386  0.62454786  0.38468442  1
  O  O443  1  0.13240978  0.63032310  0.87811851  1
  O  O444  1  0.62882558  0.13048203  0.37884182  1
  O  O445  1  0.62938854  0.12957369  0.88028111  1
  O  O446  1  0.63128452  0.63317934  0.38070362  1
  O  O447  1  0.63698370  0.62489509  0.88084093  1
