# generated using pymatgen
data_V3Zn3O8
_symmetry_space_group_name_H-M   'P 1'
_cell_length_a   17.08917303
_cell_length_b   17.09167659
_cell_length_c   17.09006479
_cell_angle_alpha   90.00838625
_cell_angle_beta   89.99873120
_cell_angle_gamma   90.00147887
_symmetry_Int_Tables_number   1
_chemical_formula_structural   V3Zn3O8
_chemical_formula_sum   'V96 Zn96 O256'
_cell_volume   4991.71082140
_cell_formula_units_Z   32
loop_
 _symmetry_equiv_pos_site_id
 _symmetry_equiv_pos_as_xyz
  1  'x, y, z'
loop_
 _atom_site_type_symbol
 _atom_site_label
 _atom_site_symmetry_multiplicity
 _atom_site_fract_x
 _atom_site_fract_y
 _atom_site_fract_z
 _atom_site_occupancy
  V  V0  1  0.00038705  0.62382883  0.12501906  1
  V  V1  1  0.49939265  0.49955559  0.49772870  1
  V  V2  1  0.87583291  0.50041190  0.37540664  1
  V  V3  1  0.62376488  0.37442409  0.74950662  1
  V  V4  1  0.62460159  0.75134802  0.87510485  1
  V  V5  1  0.75069077  0.74998052  0.50159680  1
  V  V6  1  0.50003359  0.87530881  0.37604538  1
  V  V7  1  0.24958216  0.62516155  0.37582732  1
  V  V8  1  0.62760677  0.12618154  -0.00251730  1
  V  V9  1  0.49984325  0.37372064  0.87475954  1
  V  V10  1  0.12444018  0.12458320  0.50078288  1
  V  V11  1  0.87523401  0.62517851  0.25041756  1
  V  V12  1  0.12500712  0.37547025  0.75019848  1
  V  V13  1  0.00047792  0.50042298  0.00046971  1
  V  V14  1  0.25022488  0.49967353  0.75060662  1
  V  V15  1  0.87307440  0.25036406  0.62354995  1
  V  V16  1  0.74955723  0.74970175  0.00011127  1
  V  V17  1  0.75051947  0.62493621  0.37477337  1
  V  V18  1  0.37658890  0.62458795  0.74953566  1
  V  V19  1  0.49880305  0.12548839  0.12538591  1
  V  V20  1  0.62519491  0.74963788  0.37558687  1
  V  V21  1  0.12444560  0.25017981  0.87476412  1
  V  V22  1  0.87437607  0.50064607  0.87348155  1
  V  V23  1  0.62749502  0.00071054  0.62440457  1
  V  V24  1  0.50001899  0.00077282  0.00079623  1
  V  V25  1  0.87456444  0.37438188  -0.00001867  1
  V  V26  1  0.62403587  0.62430791  -0.00084269  1
  V  V27  1  0.25030791  0.24991551  0.50089632  1
  V  V28  1  0.12551904  0.87460650  0.75085242  1
  V  V29  1  0.12527505  0.12403291  -0.00041263  1
  V  V30  1  0.87443627  0.00009782  0.37433840  1
  V  V31  1  0.37425251  0.50104297  0.37471289  1
  V  V32  1  0.37517682  0.00004448  0.87491801  1
  V  V33  1  0.49934837  0.37647854  0.37338927  1
  V  V34  1  0.49941450  0.75066335  0.25008720  1
  V  V35  1  0.24940565  0.37504794  0.12538952  1
  V  V36  1  0.50106251  0.24960008  0.74959908  1
  V  V37  1  0.75020777  0.50006916  0.74948421  1
  V  V38  1  0.62477495  0.49887156  0.62399842  1
  V  V39  1  0.49934225  0.62441807  0.12489747  1
  V  V40  1  0.87422413  0.37479264  0.49849947  1
  V  V41  1  0.00003056  0.37597362  0.87539133  1
  V  V42  1  -0.00078230  0.12559915  0.62422143  1
  V  V43  1  0.62640266  0.25001667  0.37452988  1
  V  V44  1  0.62476261  0.62408101  0.49954250  1
  V  V45  1  0.87535669  0.74946832  0.12557943  1
  V  V46  1  0.25086601  0.12464407  0.37538995  1
  V  V47  1  0.37552519  0.49846691  0.87558962  1
  V  V48  1  0.49876910  0.62465019  0.62533325  1
  V  V49  1  0.50065870  0.12550693  0.62489353  1
  V  V50  1  0.37576615  0.12551327  0.74922006  1
  V  V51  1  -0.00102187  0.25005250  0.74915303  1
  V  V52  1  0.25063578  0.87521775  0.62601841  1
  V  V53  1  0.87504597  0.75048280  0.62589863  1
  V  V54  1  0.87292870  0.00247563  0.87418242  1
  V  V55  1  0.24994322  0.12506190  0.87456014  1
  V  V56  1  0.25019197  0.25026115  0.00076796  1
  V  V57  1  0.74932321  0.87415040  0.12650280  1
  V  V58  1  0.37470623  0.87416182  0.50163890  1
  V  V59  1  0.87478770  0.87484998  0.50085542  1
  V  V60  1  0.75026922  -0.00069486  0.25033604  1
  V  V61  1  0.62538116  0.87528840  0.25023884  1
  V  V62  1  0.25024965  0.62496865  0.87619755  1
  V  V63  1  -0.00028023  0.75024003  0.75094639  1
  V  V64  1  0.25062780  0.74896059  -0.00012298  1
  V  V65  1  0.24926350  -0.00046710  0.75009212  1
  V  V66  1  0.12465306  0.50068228  0.62575012  1
  V  V67  1  -0.00050691  0.62582756  0.62731796  1
  V  V68  1  0.74976846  0.50019704  0.24800042  1
  V  V69  1  0.49832281  0.25135322  0.24898948  1
  V  V70  1  0.50076687  0.87536231  0.87546214  1
  V  V71  1  0.37479183  0.75118067  0.12507611  1
  V  V72  1  0.62596861  0.87576728  0.74979782  1
  V  V73  1  0.00075592  0.87325396  0.87499656  1
  V  V74  1  0.00006529  0.25042012  0.24983125  1
  V  V75  1  0.00028495  0.87506219  0.37599986  1
  V  V76  1  0.74941959  0.37505149  0.12286534  1
  V  V77  1  0.00088759  -0.00155463  0.00050552  1
  V  V78  1  -0.00012664  0.00071402  0.50040960  1
  V  V79  1  0.12548759  0.87547072  0.25078846  1
  V  V80  1  0.12603190  -0.00099040  0.12539415  1
  V  V81  1  0.12556708  0.62587525  0.50113414  1
  V  V82  1  0.12484807  0.49973959  0.12556526  1
  V  V83  1  -0.00020677  0.12418255  0.12535951  1
  V  V84  1  0.25166511  0.00052842  0.25111381  1
  V  V85  1  0.25031130  0.37348614  0.62413383  1
  V  V86  1  0.37494908  0.37428836  -0.00034143  1
  V  V87  1  0.12461800  0.25027465  0.37466978  1
  V  V88  1  0.50133966  0.00018567  0.50014039  1
  V  V89  1  0.12597873  0.75006798  0.37688365  1
  V  V90  1  0.87419214  0.12369747  0.24955825  1
  V  V91  1  0.37480653  0.87492403  0.00008178  1
  V  V92  1  0.00038623  0.75000491  0.25074882  1
  V  V93  1  -0.00039663  0.50070005  0.50037269  1
  V  V94  1  0.87549218  0.87397686  0.00082367  1
  V  V95  1  0.24895063  0.49984731  0.25052362  1
  Zn  Zn96  1  0.25056338  0.74987256  0.50249441  1
  Zn  Zn97  1  0.75132958  0.00363069  0.74958891  1
  Zn  Zn98  1  0.37549017  0.74917514  0.62726112  1
  Zn  Zn99  1  0.37457571  0.37332676  0.50022566  1
  Zn  Zn100  1  0.74992410  0.62610504  0.87392030  1
  Zn  Zn101  1  0.62404779  0.37805613  0.24604541  1
  Zn  Zn102  1  0.37610784  0.25065970  0.62298415  1
  Zn  Zn103  1  0.75108995  0.87573086  0.62615648  1
  Zn  Zn104  1  0.75145174  0.12900888  0.87330105  1
  Zn  Zn105  1  0.12465190  0.74799713  0.87708128  1
  Zn  Zn106  1  0.62395581  0.49943786  0.12437502  1
  Zn  Zn107  1  0.62683958  0.12669023  0.49876418  1
  Zn  Zn108  1  0.74951598  0.24840262  0.49685726  1
  Zn  Zn109  1  0.87371624  0.24818311  0.12365491  1
  Zn  Zn110  1  0.37504209  0.12468953  0.25166934  1
  Zn  Zn111  1  0.12374823  0.00043868  0.62597780  1
  Zn  Zn112  1  0.37342620  0.62679448  0.25062461  1
  Zn  Zn113  1  0.50041944  0.49728723  0.00073931  1
  Zn  Zn114  1  0.49976017  0.74918649  0.74875422  1
  Zn  Zn115  1  0.25000780  0.87397976  0.12492249  1
  Zn  Zn116  1  0.74777091  0.37379066  0.62255215  1
  Zn  Zn117  1  0.62949922  0.25089098  0.87440194  1
  Zn  Zn118  1  0.62533931  -0.00029652  0.12606350  1
  Zn  Zn119  1  0.74852605  0.12515343  0.37423914  1
  Zn  Zn120  1  0.37697977  0.00137510  0.37513411  1
  Zn  Zn121  1  0.37334558  0.25088081  0.12562012  1
  Zn  Zn122  1  0.87346146  0.62701180  0.75180812  1
  Zn  Zn123  1  0.12450931  0.37501831  0.25144225  1
  Zn  Zn124  1  0.87281933  0.12556998  0.75013156  1
  Zn  Zn125  1  0.00150840  0.37647241  0.37309057  1
  Zn  Zn126  1  0.12540275  0.62589352  -0.00032149  1
  Zn  Zn127  1  0.75241877  0.24886136  -0.00138573  1
  Zn  Zn128  1  0.18650802  0.18673423  0.18732010  1
  Zn  Zn129  1  0.18688973  0.18771704  0.68637090  1
  Zn  Zn130  1  0.18761122  0.68629070  0.18744331  1
  Zn  Zn131  1  0.18891431  0.68994223  0.68888577  1
  Zn  Zn132  1  0.68654334  0.18853372  0.18674356  1
  Zn  Zn133  1  0.68996582  0.18610971  0.68982020  1
  Zn  Zn134  1  0.68682438  0.68789448  0.18730007  1
  Zn  Zn135  1  0.68644646  0.68700930  0.68676253  1
  Zn  Zn136  1  0.31237960  0.31368006  0.31340815  1
  Zn  Zn137  1  0.31369955  0.31130323  0.81144392  1
  Zn  Zn138  1  0.31283561  0.81290980  0.31412380  1
  Zn  Zn139  1  0.31340043  0.81007957  0.81259190  1
  Zn  Zn140  1  0.81303200  0.31376217  0.30925276  1
  Zn  Zn141  1  0.81071391  0.31278575  0.81294597  1
  Zn  Zn142  1  0.81257333  0.81263652  0.31386361  1
  Zn  Zn143  1  0.81144715  0.81418259  0.81307382  1
  Zn  Zn144  1  0.18685027  0.43616040  0.43749981  1
  Zn  Zn145  1  0.18735000  0.43834391  0.93913646  1
  Zn  Zn146  1  0.18770306  0.93852257  0.43859943  1
  Zn  Zn147  1  0.18839758  0.93518239  0.93665568  1
  Zn  Zn148  1  0.68692753  0.43586015  0.43427367  1
  Zn  Zn149  1  0.68668873  0.43779229  0.93614254  1
  Zn  Zn150  1  0.68868323  0.93659371  0.43774758  1
  Zn  Zn151  1  0.68773789  0.93907832  0.93972979  1
  Zn  Zn152  1  0.31331565  0.06275622  0.06362227  1
  Zn  Zn153  1  0.31301598  0.06147811  0.56360887  1
  Zn  Zn154  1  0.31296230  0.56169838  0.06217675  1
  Zn  Zn155  1  0.31282499  0.56101027  0.56209124  1
  Zn  Zn156  1  0.81231437  0.06057708  0.06375736  1
  Zn  Zn157  1  0.80991064  0.06577472  0.55849139  1
  Zn  Zn158  1  0.81239659  0.56154145  0.06146722  1
  Zn  Zn159  1  0.81264006  0.56357103  0.56444415  1
  Zn  Zn160  1  0.43406240  0.43864484  0.18757778  1
  Zn  Zn161  1  0.43654878  0.43659692  0.68614670  1
  Zn  Zn162  1  0.43724571  0.93764993  0.18694005  1
  Zn  Zn163  1  0.43903259  0.93856199  0.68726821  1
  Zn  Zn164  1  0.93599149  0.43628374  0.18646124  1
  Zn  Zn165  1  0.93659928  0.43689807  0.68689894  1
  Zn  Zn166  1  0.93771189  0.93690911  0.18802224  1
  Zn  Zn167  1  0.93823433  0.93741129  0.68788464  1
  Zn  Zn168  1  0.06329083  0.06341652  0.31349091  1
  Zn  Zn169  1  0.06045159  0.06216116  0.81113423  1
  Zn  Zn170  1  0.06356802  0.56267632  0.31283974  1
  Zn  Zn171  1  0.06319539  0.56455068  0.81362494  1
  Zn  Zn172  1  0.56320763  0.06276268  0.31229733  1
  Zn  Zn173  1  0.56282964  0.06267602  0.81252058  1
  Zn  Zn174  1  0.56344072  0.56230986  0.31029312  1
  Zn  Zn175  1  0.56165597  0.56042941  0.81275156  1
  Zn  Zn176  1  0.43677569  0.18655517  0.43791561  1
  Zn  Zn177  1  0.43843714  0.18942613  0.93661217  1
  Zn  Zn178  1  0.43655545  0.68758699  0.43800397  1
  Zn  Zn179  1  0.43713083  0.68863292  0.93623129  1
  Zn  Zn180  1  0.93740291  0.18636890  0.43548127  1
  Zn  Zn181  1  0.93796624  0.18834922  0.93919509  1
  Zn  Zn182  1  0.93840519  0.68768938  0.43911143  1
  Zn  Zn183  1  0.93674468  0.68528384  0.93678786  1
  Zn  Zn184  1  0.06307496  0.31312221  0.06365707  1
  Zn  Zn185  1  0.06199073  0.31277703  0.56146369  1
  Zn  Zn186  1  0.06475235  0.81130588  0.06284712  1
  Zn  Zn187  1  0.06323824  0.81316055  0.56469169  1
  Zn  Zn188  1  0.56369779  0.31088287  0.06098251  1
  Zn  Zn189  1  0.56103865  0.31306921  0.56090255  1
  Zn  Zn190  1  0.56223741  0.81196865  0.06303427  1
  Zn  Zn191  1  0.56133998  0.81123753  0.56410805  1
  O  O192  1  0.11974551  0.11799526  0.11845146  1
  O  O193  1  0.11709035  0.12442744  0.61826930  1
  O  O194  1  0.11714415  0.61804728  0.12436647  1
  O  O195  1  0.11999311  0.61972494  0.62131549  1
  O  O196  1  0.61393755  0.12377910  0.11753037  1
  O  O197  1  0.61962055  0.11486439  0.62499305  1
  O  O198  1  0.61584543  0.62814439  0.11564616  1
  O  O199  1  0.61932865  0.61827522  0.61830747  1
  O  O200  1  0.38155479  0.38310745  0.37625218  1
  O  O201  1  0.37956785  0.37945211  0.87960892  1
  O  O202  1  0.38142777  0.87690842  0.38499138  1
  O  O203  1  0.38083380  0.88105325  0.88003481  1
  O  O204  1  0.87711785  0.38117249  0.38301779  1
  O  O205  1  0.88172922  0.38118402  0.87949392  1
  O  O206  1  0.88161774  0.87941487  0.38063123  1
  O  O207  1  0.88069082  0.88218785  0.88187945  1
  O  O208  1  0.24881867  0.00558159  0.36511801  1
  O  O209  1  0.25570664  0.00592216  0.87017440  1
  O  O210  1  0.25367126  0.50542367  0.37054955  1
  O  O211  1  0.25555486  0.50384721  0.86957499  1
  O  O212  1  0.75710021  -0.00136922  0.36744834  1
  O  O213  1  0.76393653  -0.00006529  0.87728163  1
  O  O214  1  0.75604698  0.50620721  0.36914965  1
  O  O215  1  0.75500175  0.50051032  0.86452437  1
  O  O216  1  0.24490022  0.49547357  0.13043632  1
  O  O217  1  0.24322466  0.49461530  0.63116292  1
  O  O218  1  0.24449358  0.99981045  0.13455461  1
  O  O219  1  0.24805721  0.99330933  0.63307040  1
  O  O220  1  0.74977738  0.49223402  0.12997184  1
  O  O221  1  0.74383604  0.49890947  0.63297620  1
  O  O222  1  0.74924482  0.99077082  0.13251825  1
  O  O223  1  0.73854729  0.99794213  0.62474844  1
  O  O224  1  0.00020875  0.36252725  0.25017096  1
  O  O225  1  0.00581832  0.37054801  0.75523335  1
  O  O226  1  0.00520710  0.86960565  0.25641688  1
  O  O227  1  0.00577314  0.86959720  0.75529728  1
  O  O228  1  0.50050398  0.36682491  0.25293615  1
  O  O229  1  0.50450415  0.36979775  0.75434241  1
  O  O230  1  0.50530009  0.87027258  0.25553441  1
  O  O231  1  0.51112190  0.87576582  0.75633184  1
  O  O232  1  0.49974947  0.13223645  0.24118112  1
  O  O233  1  0.49522854  0.12935490  0.74526106  1
  O  O234  1  0.50068757  0.63229344  0.23983991  1
  O  O235  1  0.49456583  0.62346464  0.74322821  1
  O  O236  1  0.99549765  0.13079090  0.24483072  1
  O  O237  1  0.99724416  0.13289088  0.74329624  1
  O  O238  1  0.99418297  0.63068795  0.24531500  1
  O  O239  1  0.99836566  0.63158785  0.74413614  1
  O  O240  1  0.36708902  0.25613296  0.00007884  1
  O  O241  1  0.36605033  0.25182591  0.50209946  1
  O  O242  1  0.37031165  0.75616114  0.00501582  1
  O  O243  1  0.37475351  0.76355999  0.50205262  1
  O  O244  1  0.87524001  0.25889136  0.00387933  1
  O  O245  1  0.87706748  0.25908101  0.50603948  1
  O  O246  1  0.86986961  0.75457993  0.00606806  1
  O  O247  1  0.87059365  0.75506329  0.50539325  1
  O  O248  1  0.12904309  0.24395202  0.49448170  1
  O  O249  1  0.12940000  0.24388407  0.99404066  1
  O  O250  1  0.12502232  0.74384571  0.49414320  1
  O  O251  1  0.13447230  0.74747107  0.99880912  1
  O  O252  1  0.62552969  0.25159327  0.48675921  1
  O  O253  1  0.62616610  0.23726101  0.99793781  1
  O  O254  1  0.63011521  0.74412105  0.49489202  1
  O  O255  1  0.62986450  0.74354288  0.99516078  1
  O  O256  1  0.49946652  0.24265990  0.13316945  1
  O  O257  1  0.49978277  0.24312130  0.63110166  1
  O  O258  1  0.49488461  0.74313716  0.12991919  1
  O  O259  1  0.49810209  0.73988601  0.62734943  1
  O  O260  1  1.00126366  0.24264027  0.13440292  1
  O  O261  1  0.99187317  0.24639986  0.62892328  1
  O  O262  1  0.99464282  0.74490855  0.13136334  1
  O  O263  1  0.99466314  0.74523204  0.63099620  1
  O  O264  1  0.00535179  0.24890152  0.36415177  1
  O  O265  1  0.00546301  0.25610432  0.86966974  1
  O  O266  1  0.00522010  0.75505319  0.36986797  1
  O  O267  1  -0.00051519  0.75626987  0.86960459  1
  O  O268  1  0.50582028  0.25505314  0.36681806  1
  O  O269  1  0.50221460  0.25651371  0.86687769  1
  O  O270  1  0.50613155  0.75492357  0.37016531  1
  O  O271  1  0.50721213  0.75842451  0.87397448  1
  O  O272  1  0.24397151  0.12875388  0.49582579  1
  O  O273  1  0.24459195  0.12931697  0.99418636  1
  O  O274  1  0.24262663  0.62604215  0.49473087  1
  O  O275  1  0.25084671  0.63141817  0.99399093  1
  O  O276  1  0.74488033  0.13062385  0.49200447  1
  O  O277  1  0.73846114  0.12401973  1.00218500  1
  O  O278  1  0.74470550  0.62966204  0.49406908  1
  O  O279  1  0.73942791  0.63104570  1.00077222  1
  O  O280  1  0.25457750  0.36911479  0.00482266  1
  O  O281  1  0.24932355  0.36815129  0.50681998  1
  O  O282  1  0.25764850  0.86863623  0.00133877  1
  O  O283  1  0.25923404  0.87639989  0.50603259  1
  O  O284  1  0.75594853  0.37750125  0.00812199  1
  O  O285  1  0.76342941  0.37438519  0.50038529  1
  O  O286  1  0.75528973  0.86901721  0.00676671  1
  O  O287  1  0.75717724  0.86702809  0.50099901  1
  O  O288  1  0.13040368  0.49813538  0.24379600  1
  O  O289  1  0.13020995  0.49445338  0.74518751  1
  O  O290  1  0.13243088  0.99557612  0.24573981  1
  O  O291  1  0.13134141  0.99349652  0.74998518  1
  O  O292  1  0.63430072  0.49920262  0.24585067  1
  O  O293  1  0.63167383  0.49463497  0.74440562  1
  O  O294  1  0.63153273  0.99227442  0.24933500  1
  O  O295  1  0.62466463  0.99220694  0.74130251  1
  O  O296  1  0.36301435  0.00011020  0.25155959  1
  O  O297  1  0.37013738  0.00525042  0.75639213  1
  O  O298  1  0.36719186  0.50388478  0.25692221  1
  O  O299  1  0.36871389  0.50418172  0.75595285  1
  O  O300  1  0.87047891  0.00348162  0.25525101  1
  O  O301  1  0.87525823  -0.00023271  0.76213515  1
  O  O302  1  0.87064773  0.50636489  0.25555764  1
  O  O303  1  0.86553925  0.49968541  0.75381141  1
  O  O304  1  0.12079770  0.36634795  0.37270745  1
  O  O305  1  0.11971129  0.36992327  0.87000894  1
  O  O306  1  0.11917364  0.87008320  0.37072778  1
  O  O307  1  0.11784513  0.87344207  0.86905517  1
  O  O308  1  0.61800339  0.36731032  0.36992301  1
  O  O309  1  0.61715858  0.37514632  0.86769303  1
  O  O310  1  0.61974173  0.86807084  0.37047237  1
  O  O311  1  0.62056053  0.87258625  0.86866801  1
  O  O312  1  0.38746883  0.12810924  0.12579672  1
  O  O313  1  0.38266339  0.12435460  0.63254298  1
  O  O314  1  0.38554196  0.63153721  0.12487396  1
  O  O315  1  0.38104284  0.62352738  0.63130589  1
  O  O316  1  0.88277083  0.12458509  0.13106025  1
  O  O317  1  0.88102925  0.13621172  0.62264282  1
  O  O318  1  0.88008347  0.63039995  0.13082571  1
  O  O319  1  0.88224786  0.63229158  0.62677298  1
  O  O320  1  0.25016136  0.25509225  0.11854835  1
  O  O321  1  0.24991360  0.25604986  0.61884999  1
  O  O322  1  0.25712899  0.75067285  0.11933863  1
  O  O323  1  0.25382837  0.75949526  0.62291417  1
  O  O324  1  0.75190798  0.26239041  0.12370864  1
  O  O325  1  0.76213643  0.25252845  0.62215124  1
  O  O326  1  0.75644472  0.75464837  0.12046396  1
  O  O327  1  0.75576458  0.75101323  0.61852934  1
  O  O328  1  0.24408350  0.24429374  0.37978955  1
  O  O329  1  0.24345625  0.24436960  0.87986200  1
  O  O330  1  0.24297137  0.74437053  0.37755098  1
  O  O331  1  0.25061790  0.74266341  0.88270585  1
  O  O332  1  0.73756708  0.25114241  0.37063933  1
  O  O333  1  0.74760278  0.24731882  0.88051691  1
  O  O334  1  0.74516999  0.74390178  0.38085979  1
  O  O335  1  0.74312210  0.74913621  0.88227059  1
  O  O336  1  0.00674600  0.11859330  0.00537665  1
  O  O337  1  0.00480116  0.12006687  0.50423708  1
  O  O338  1  -0.00015655  0.61811426  0.00775481  1
  O  O339  1  0.00546778  0.61987688  0.50693471  1
  O  O340  1  0.50606389  0.12125931  0.00703667  1
  O  O341  1  0.50282337  0.11774714  0.50653018  1
  O  O342  1  0.50803049  0.62724182  0.00892874  1
  O  O343  1  0.50613257  0.61916393  0.50380588  1
  O  O344  1  0.49836710  0.38290859  0.49165576  1
  O  O345  1  0.49357867  0.37495526  0.99400859  1
  O  O346  1  0.49349101  0.87958855  0.49629566  1
  O  O347  1  0.49535663  0.88076993  0.99550246  1
  O  O348  1  0.98956209  0.38176213  0.49893476  1
  O  O349  1  0.99543139  0.38077202  0.99465254  1
  O  O350  1  0.99477212  0.88021258  0.49497252  1
  O  O351  1  0.99484769  0.87908377  0.99623762  1
  O  O352  1  0.49529596  0.49659028  0.37783205  1
  O  O353  1  0.49263491  0.49205996  0.87652321  1
  O  O354  1  0.50051414  0.99250053  0.38128818  1
  O  O355  1  0.49391626  0.99492910  0.88085264  1
  O  O356  1  0.99321643  0.50035244  0.38192893  1
  O  O357  1  0.99530029  0.49447405  0.87966586  1
  O  O358  1  0.99477254  0.99420774  0.37987358  1
  O  O359  1  0.99292142  0.99379518  0.88139326  1
  O  O360  1  0.00594699  0.00404627  0.12020450  1
  O  O361  1  -0.00017268  0.00720041  0.61796345  1
  O  O362  1  0.00391740  0.50457157  0.12059594  1
  O  O363  1  0.00536716  0.50534587  0.62078457  1
  O  O364  1  0.50066152  0.00967415  0.12015613  1
  O  O365  1  0.50967079  0.00491342  0.62065608  1
  O  O366  1  0.50090504  0.51249079  0.12358333  1
  O  O367  1  0.50573676  0.50453173  0.61806623  1
  O  O368  1  0.24810872  0.38108673  0.24329094  1
  O  O369  1  0.24356766  0.37997204  0.74568491  1
  O  O370  1  0.24382227  0.88444105  0.25019008  1
  O  O371  1  0.24624571  0.88052982  0.74649003  1
  O  O372  1  0.75061074  0.38218797  0.23882579  1
  O  O373  1  0.74388384  0.38578840  0.74730965  1
  O  O374  1  0.74515705  0.87816267  0.24570060  1
  O  O375  1  0.73667672  0.87942005  0.74903252  1
  O  O376  1  0.24967840  0.11569695  0.25527981  1
  O  O377  1  0.25441305  0.12019409  0.75569604  1
  O  O378  1  0.25043068  0.61839404  0.25777775  1
  O  O379  1  0.25573595  0.61824106  0.75518658  1
  O  O380  1  0.75607169  0.11769079  0.24936746  1
  O  O381  1  0.75572139  0.12017683  0.75525540  1
  O  O382  1  0.75617145  0.62169609  0.25499426  1
  O  O383  1  0.74891342  0.61212491  0.75138984  1
  O  O384  1  0.36677005  0.12048524  0.37255727  1
  O  O385  1  0.36950006  0.11926991  0.86983454  1
  O  O386  1  0.36807897  0.61967880  0.37395614  1
  O  O387  1  0.37073947  0.61817193  0.87005784  1
  O  O388  1  0.87434238  0.11701223  0.36704485  1
  O  O389  1  0.87752970  0.11264352  0.87666808  1
  O  O390  1  0.86989539  0.62070994  0.37040279  1
  O  O391  1  0.87046225  0.61650221  0.87237765  1
  O  O392  1  0.13188047  0.38201886  0.12645750  1
  O  O393  1  0.12886756  0.38103385  0.63090471  1
  O  O394  1  0.12628867  0.88164361  0.13294760  1
  O  O395  1  0.13184652  0.87766426  0.63216367  1
  O  O396  1  0.63578506  0.37829972  0.12346484  1
  O  O397  1  0.62594391  0.38177953  0.63036382  1
  O  O398  1  0.63106647  0.87465523  0.13220227  1
  O  O399  1  0.62406426  0.88342477  0.63340603  1
  O  O400  1  0.11491960  0.24850537  0.25558365  1
  O  O401  1  0.11930286  0.25591088  0.75566109  1
  O  O402  1  0.11935676  0.75537132  0.25609656  1
  O  O403  1  0.11784962  0.75709005  0.75289992  1
  O  O404  1  0.61317206  0.25218320  0.25590663  1
  O  O405  1  0.61897562  0.25689077  0.75023197  1
  O  O406  1  0.62002079  0.75537090  0.25650623  1
  O  O407  1  0.62424403  0.75979116  0.75536638  1
  O  O408  1  0.38720054  0.24794584  0.24916838  1
  O  O409  1  0.38185915  0.24220747  0.74817479  1
  O  O410  1  0.38189522  0.74961505  0.24430157  1
  O  O411  1  0.37934728  0.74067427  0.74878344  1
  O  O412  1  0.88519946  0.24316442  0.24849898  1
  O  O413  1  0.88137974  0.25297066  0.73887377  1
  O  O414  1  0.88068906  0.74483926  0.24563772  1
  O  O415  1  0.88037213  0.75053712  0.74407080  1
  O  O416  1  0.38213510  0.49895490  0.49208957  1
  O  O417  1  0.37632214  0.49221453  0.99307104  1
  O  O418  1  0.38207552  0.98906388  0.50001518  1
  O  O419  1  0.37985590  0.99543263  0.99421932  1
  O  O420  1  0.87950052  0.49367047  0.49605029  1
  O  O421  1  0.88085097  0.49451681  0.99373378  1
  O  O422  1  0.88035717  0.99457036  0.49424818  1
  O  O423  1  0.88187630  0.99307674  0.99463818  1
  O  O424  1  0.12068273  0.00429415  0.00460317  1
  O  O425  1  0.11720600  0.00655971  0.50107125  1
  O  O426  1  0.11766497  0.50122617  0.00722119  1
  O  O427  1  0.11916892  0.50572452  0.50635951  1
  O  O428  1  0.61772803  0.00803136  0.00322686  1
  O  O429  1  0.61947450  -0.00249499  0.51000691  1
  O  O430  1  0.62246281  0.51322994  0.00075066  1
  O  O431  1  0.62043126  0.50526772  0.50313670  1
  O  O432  1  0.36752017  0.37380004  0.11761578  1
  O  O433  1  0.36567967  0.37282352  0.62229944  1
  O  O434  1  0.37455166  0.86882399  0.11758208  1
  O  O435  1  0.37074803  0.87544681  0.61724489  1
  O  O436  1  0.86553738  0.37499893  0.11804530  1
  O  O437  1  0.87546254  0.36682181  0.61506389  1
  O  O438  1  0.87047913  0.86848336  0.12057085  1
  O  O439  1  0.87398050  0.86903564  0.61835257  1
  O  O440  1  0.13059321  0.13058149  0.38142095  1
  O  O441  1  0.12962462  0.13012408  0.87997920  1
  O  O442  1  0.12931237  0.63053482  0.38166311  1
  O  O443  1  0.13435567  0.62651256  0.87825976  1
  O  O444  1  0.62447958  0.13778638  0.37454718  1
  O  O445  1  0.62538062  0.12415974  0.88686273  1
  O  O446  1  0.63075973  0.63035355  0.38007959  1
  O  O447  1  0.62345916  0.63127396  0.88488838  1
