# generated using pymatgen
data_V3Zn3O8
_symmetry_space_group_name_H-M   'P 1'
_cell_length_a   17.08927543
_cell_length_b   17.08921691
_cell_length_c   17.08988302
_cell_angle_alpha   90.00848679
_cell_angle_beta   90.01247512
_cell_angle_gamma   90.01013922
_symmetry_Int_Tables_number   1
_chemical_formula_structural   V3Zn3O8
_chemical_formula_sum   'V96 Zn96 O256'
_cell_volume   4990.96908597
_cell_formula_units_Z   32
loop_
 _symmetry_equiv_pos_site_id
 _symmetry_equiv_pos_as_xyz
  1  'x, y, z'
loop_
 _atom_site_type_symbol
 _atom_site_label
 _atom_site_symmetry_multiplicity
 _atom_site_fract_x
 _atom_site_fract_y
 _atom_site_fract_z
 _atom_site_occupancy
  V  V0  1  0.49990382  0.87508480  0.87460917  1
  V  V1  1  0.37384955  0.87449814  -0.00047259  1
  V  V2  1  0.75083859  0.62498300  0.37508453  1
  V  V3  1  0.74908917  0.37535604  0.12670746  1
  V  V4  1  0.25029985  0.24961959  0.00022796  1
  V  V5  1  0.49984325  0.74949783  0.24885986  1
  V  V6  1  0.24903201  0.87422674  0.12480532  1
  V  V7  1  0.74958042  0.62590329  0.87528480  1
  V  V8  1  0.37516844  0.24993306  0.12570834  1
  V  V9  1  0.25022207  0.37396224  0.12548277  1
  V  V10  1  0.87544070  0.49959049  0.87596440  1
  V  V11  1  0.75119677  0.12514842  0.37579992  1
  V  V12  1  0.62399646  0.62506337  0.00037309  1
  V  V13  1  0.62379427  0.25096854  0.87482982  1
  V  V14  1  0.62518066  0.25167760  0.37462260  1
  V  V15  1  -0.00002908  0.12575152  0.62547354  1
  V  V16  1  0.37591513  0.37556352  0.49933248  1
  V  V17  1  0.75228098  0.25045434  0.50159371  1
  V  V18  1  0.12540867  0.00046990  0.62513795  1
  V  V19  1  0.25007169  0.12467951  0.87511209  1
  V  V20  1  0.49961733  -0.00062183  0.49967259  1
  V  V21  1  0.37590103  0.37586646  -0.00128795  1
  V  V22  1  0.87520669  0.37546982  -0.00042561  1
  V  V23  1  0.37595742  -0.00089992  0.37501977  1
  V  V24  1  0.62443487  0.12547373  -0.00008793  1
  V  V25  1  0.87436139  0.24994780  0.12456835  1
  V  V26  1  0.87561576  0.12444301  0.24937208  1
  V  V27  1  0.62546381  0.87534305  0.25035779  1
  V  V28  1  -0.00125280  0.75073103  0.74937434  1
  V  V29  1  0.25056180  0.37539213  0.62408746  1
  V  V30  1  0.62474450  0.00046971  0.12570330  1
  V  V31  1  -0.00164397  0.37534323  0.37703007  1
  V  V32  1  0.37445684  0.00029641  0.87535931  1
  V  V33  1  0.12589447  0.87389711  0.24909385  1
  V  V34  1  0.37359357  0.62593858  0.74943971  1
  V  V35  1  0.62505807  0.50078067  0.62539668  1
  V  V36  1  0.87473508  0.87472554  0.00028496  1
  V  V37  1  0.00022407  0.87540144  0.37468873  1
  V  V38  1  0.12439125  0.12416752  0.00030606  1
  V  V39  1  0.24960420  -0.00124941  0.24951521  1
  V  V40  1  0.00073400  0.12375733  0.12383492  1
  V  V41  1  0.37448827  0.12478558  0.25053130  1
  V  V42  1  0.87372758  0.62245782  0.25177917  1
  V  V43  1  0.12377605  0.74996937  0.87407053  1
  V  V44  1  0.75162358  0.37515223  0.62629287  1
  V  V45  1  0.12579690  0.12492427  0.50027977  1
  V  V46  1  0.12451859  0.49852637  0.12437686  1
  V  V47  1  0.75019375  -0.00016889  0.25078961  1
  V  V48  1  0.62475648  0.62552581  0.50030803  1
  V  V49  1  0.62563082  -0.00016851  0.62599044  1
  V  V50  1  0.12381517  0.62405270  0.49996009  1
  V  V51  1  -0.00005257  0.62249577  0.12373586  1
  V  V52  1  0.62356049  0.37557874  0.75077293  1
  V  V53  1  0.62490761  0.50048523  0.12522660  1
  V  V54  1  0.75041121  0.75054814  0.50054674  1
  V  V55  1  0.49962139  0.75080784  0.75034440  1
  V  V56  1  0.00101361  0.74840979  0.24984966  1
  V  V57  1  0.37519265  0.62460929  0.24920284  1
  V  V58  1  0.37556004  0.12538095  0.74962808  1
  V  V59  1  0.24888198  0.74888382  -0.00178440  1
  V  V60  1  0.62534963  0.75092293  0.37497430  1
  V  V61  1  0.24940167  0.00022862  0.74982250  1
  V  V62  1  0.87422960  0.62601654  0.75043179  1
  V  V63  1  0.75004137  0.12489659  0.87501481  1
  V  V64  1  0.37542221  0.74877035  0.12428520  1
  V  V65  1  0.50089000  0.25061005  0.25162414  1
  V  V66  1  0.75051288  0.87617705  0.62557612  1
  V  V67  1  0.12630330  0.74882922  0.37451606  1
  V  V68  1  0.24946126  0.12442699  0.37561671  1
  V  V69  1  0.49919297  0.00029324  0.00026769  1
  V  V70  1  0.87474185  0.75040823  0.62531048  1
  V  V71  1  0.12492656  0.37299571  0.25027699  1
  V  V72  1  -0.00119020  0.87470661  0.87547358  1
  V  V73  1  0.49954804  0.12520574  0.12559257  1
  V  V74  1  0.49974431  0.87608029  0.37484714  1
  V  V75  1  0.25012761  0.62376285  0.37351145  1
  V  V76  1  0.12567886  0.25135625  0.87366225  1
  V  V77  1  0.25135791  0.24970755  0.49974901  1
  V  V78  1  0.62380702  0.75067206  0.87468364  1
  V  V79  1  0.24902339  0.87498791  0.62398520  1
  V  V80  1  0.49984077  0.50072237  0.49907366  1
  V  V81  1  0.12424135  0.50080064  0.62409067  1
  V  V82  1  0.37481776  0.75083153  0.62333031  1
  V  V83  1  0.75072089  0.87454327  0.12496310  1
  V  V84  1  0.12568376  0.37505867  0.75073612  1
  V  V85  1  0.49912729  0.37602651  0.87513610  1
  V  V86  1  0.87503569  0.12661546  0.75029691  1
  V  V87  1  0.24888289  0.62573316  0.87367167  1
  V  V88  1  0.49982580  0.12611121  0.62589943  1
  V  V89  1  0.87509315  0.00039643  0.87660052  1
  V  V90  1  0.74947994  0.75125868  0.00032198  1
  V  V91  1  0.74945686  0.24987784  0.00071663  1
  V  V92  1  0.25181915  0.49889621  0.24979686  1
  V  V93  1  -0.00008095  0.24953771  0.25011965  1
  V  V94  1  0.25067555  0.50124781  0.74976148  1
  V  V95  1  0.87636178  -0.00146452  0.37522270  1
  Zn  Zn96  1  0.62483961  0.87535587  0.75160000  1
  Zn  Zn97  1  0.74872256  0.49745842  0.25417279  1
  Zn  Zn98  1  0.00093654  0.25276677  0.75111778  1
  Zn  Zn99  1  0.37667858  0.50026101  0.37306234  1
  Zn  Zn100  1  0.87820286  0.87604850  0.49998459  1
  Zn  Zn101  1  -0.00222524  0.49842420  0.50167269  1
  Zn  Zn102  1  0.00095915  0.37448186  0.87511107  1
  Zn  Zn103  1  0.74895499  0.00005452  0.75106466  1
  Zn  Zn104  1  0.87742322  0.37801524  0.50262974  1
  Zn  Zn105  1  0.87716772  0.25188835  0.62640589  1
  Zn  Zn106  1  0.12453248  0.24855412  0.37534698  1
  Zn  Zn107  1  0.12423222  0.62241016  -0.00160372  1
  Zn  Zn108  1  0.49756593  0.50233861  -0.00112897  1
  Zn  Zn109  1  0.12369736  -0.00154572  0.12344692  1
  Zn  Zn110  1  0.12227797  0.87568300  0.74983967  1
  Zn  Zn111  1  0.87478647  0.74923771  0.12470693  1
  Zn  Zn112  1  0.37438724  0.87365566  0.49787276  1
  Zn  Zn113  1  -0.00198806  0.62427572  0.62377585  1
  Zn  Zn114  1  0.37558240  0.50097573  0.87543366  1
  Zn  Zn115  1  0.00206002  0.49756137  -0.00065686  1
  Zn  Zn116  1  0.62442818  0.37780928  0.25071951  1
  Zn  Zn117  1  0.74903672  0.50099263  0.75032941  1
  Zn  Zn118  1  0.49972851  0.62388323  0.12361496  1
  Zn  Zn119  1  -0.00050866  -0.00088985  0.49946178  1
  Zn  Zn120  1  0.25083363  0.75013658  0.49831854  1
  Zn  Zn121  1  0.62548340  0.12553050  0.50120257  1
  Zn  Zn122  1  0.00171258  -0.00178258  0.00135951  1
  Zn  Zn123  1  0.49835713  0.25134198  0.74945240  1
  Zn  Zn124  1  0.50044712  0.62713822  0.62538973  1
  Zn  Zn125  1  0.37638320  0.25037274  0.62619658  1
  Zn  Zn126  1  0.50077092  0.37549475  0.37378468  1
  Zn  Zn127  1  0.87289124  0.49896866  0.37957897  1
  Zn  Zn128  1  0.18593616  0.18678298  0.18739169  1
  Zn  Zn129  1  0.18896882  0.18929422  0.68669101  1
  Zn  Zn130  1  0.18777039  0.68595830  0.18625966  1
  Zn  Zn131  1  0.18541404  0.68852552  0.68764697  1
  Zn  Zn132  1  0.68776443  0.18783930  0.18886100  1
  Zn  Zn133  1  0.68650975  0.18886618  0.68991816  1
  Zn  Zn134  1  0.68780419  0.68692477  0.18723155  1
  Zn  Zn135  1  0.68726129  0.68780796  0.68851361  1
  Zn  Zn136  1  0.31292610  0.31175863  0.31450414  1
  Zn  Zn137  1  0.31369170  0.31210831  0.81121402  1
  Zn  Zn138  1  0.31261767  0.81088847  0.31144893  1
  Zn  Zn139  1  0.31155892  0.81261405  0.81068667  1
  Zn  Zn140  1  0.81315216  0.31338691  0.31162583  1
  Zn  Zn141  1  0.81141386  0.31248225  0.81265114  1
  Zn  Zn142  1  0.81447085  0.81106272  0.31191466  1
  Zn  Zn143  1  0.81217257  0.81304443  0.81212278  1
  Zn  Zn144  1  0.18607242  0.43790071  0.43575761  1
  Zn  Zn145  1  0.18875045  0.43880342  0.93718885  1
  Zn  Zn146  1  0.18621981  0.93801360  0.43820727  1
  Zn  Zn147  1  0.18492410  0.93674955  0.93755649  1
  Zn  Zn148  1  0.68859823  0.43811062  0.43901359  1
  Zn  Zn149  1  0.68759409  0.43829045  0.93932955  1
  Zn  Zn150  1  0.68772521  0.93784881  0.43962375  1
  Zn  Zn151  1  0.68777001  0.93821957  0.93807256  1
  Zn  Zn152  1  0.31098619  0.06182082  0.06322764  1
  Zn  Zn153  1  0.31398403  0.06118403  0.56126399  1
  Zn  Zn154  1  0.31205050  0.56203095  0.06128023  1
  Zn  Zn155  1  0.31089355  0.56306100  0.56200542  1
  Zn  Zn156  1  0.81326816  0.06151838  0.06188789  1
  Zn  Zn157  1  0.81440002  0.06236650  0.56086800  1
  Zn  Zn158  1  0.81100768  0.56189011  0.06263379  1
  Zn  Zn159  1  0.81394246  0.56173360  0.56158996  1
  Zn  Zn160  1  0.43990858  0.43658093  0.18680350  1
  Zn  Zn161  1  0.43815845  0.43927118  0.68698240  1
  Zn  Zn162  1  0.43640661  0.93626951  0.18769859  1
  Zn  Zn163  1  0.43659084  0.93735538  0.68851053  1
  Zn  Zn164  1  0.93650835  0.43724752  0.18961406  1
  Zn  Zn165  1  0.93956679  0.43963178  0.68981502  1
  Zn  Zn166  1  0.93841508  0.93740792  0.18695298  1
  Zn  Zn167  1  0.93654699  0.93933510  0.68929279  1
  Zn  Zn168  1  0.06356078  0.06093034  0.31162843  1
  Zn  Zn169  1  0.06192316  0.06173705  0.81296140  1
  Zn  Zn170  1  0.06291043  0.55899599  0.31207238  1
  Zn  Zn171  1  0.06121301  0.56357917  0.81029851  1
  Zn  Zn172  1  0.56345703  0.06470285  0.31338547  1
  Zn  Zn173  1  0.56233389  0.06223326  0.81138068  1
  Zn  Zn174  1  0.56278190  0.56401049  0.31198355  1
  Zn  Zn175  1  0.56039493  0.56238364  0.81210420  1
  Zn  Zn176  1  0.43775969  0.18677916  0.43927654  1
  Zn  Zn177  1  0.43782748  0.18941777  0.93713266  1
  Zn  Zn178  1  0.43726317  0.68708126  0.43627947  1
  Zn  Zn179  1  0.43701127  0.68627552  0.93696849  1
  Zn  Zn180  1  0.93765207  0.18821639  0.43808670  1
  Zn  Zn181  1  0.94012725  0.18896846  0.93737155  1
  Zn  Zn182  1  0.93775537  0.68932959  0.43779026  1
  Zn  Zn183  1  0.93673945  0.68822587  0.93814724  1
  Zn  Zn184  1  0.06119391  0.31168130  0.06072403  1
  Zn  Zn185  1  0.06522167  0.31060722  0.56285804  1
  Zn  Zn186  1  0.06223540  0.80973349  0.06150564  1
  Zn  Zn187  1  0.06194985  0.81127322  0.56098375  1
  Zn  Zn188  1  0.56154309  0.31454980  0.06213445  1
  Zn  Zn189  1  0.56468234  0.31316458  0.56221527  1
  Zn  Zn190  1  0.56237220  0.81265996  0.06207479  1
  Zn  Zn191  1  0.56223010  0.81412062  0.56164995  1
  O  O192  1  0.11890836  0.12410926  0.11830308  1
  O  O193  1  0.11843974  0.12039754  0.62134874  1
  O  O194  1  0.11480074  0.61771191  0.12638227  1
  O  O195  1  0.12527737  0.62049683  0.61497491  1
  O  O196  1  0.61950916  0.12001595  0.12021580  1
  O  O197  1  0.61734817  0.11640640  0.62560657  1
  O  O198  1  0.62517720  0.61655927  0.11930109  1
  O  O199  1  0.62422530  0.61987995  0.61778074  1
  O  O200  1  0.37708098  0.37755905  0.38806849  1
  O  O201  1  0.38093924  0.37504945  0.88077685  1
  O  O202  1  0.38167607  0.88073948  0.37445667  1
  O  O203  1  0.37919411  0.88068306  0.88027588  1
  O  O204  1  0.88611231  0.37546466  0.37560276  1
  O  O205  1  0.87325152  0.38425712  0.87988444  1
  O  O206  1  0.88172503  0.88068881  0.37406820  1
  O  O207  1  0.87851648  0.88040503  0.88035666  1
  O  O208  1  0.25608052  0.00435610  0.36925567  1
  O  O209  1  0.25553925  0.00476019  0.87020373  1
  O  O210  1  0.25147240  0.50567337  0.36675304  1
  O  O211  1  0.25166811  0.50762963  0.86704671  1
  O  O212  1  0.75406614  0.00508326  0.36986574  1
  O  O213  1  0.75547565  0.00722929  0.87371516  1
  O  O214  1  0.75067736  0.50918914  0.37402129  1
  O  O215  1  0.75949696  0.50641219  0.87478352  1
  O  O216  1  0.24470830  0.49304420  0.13067704  1
  O  O217  1  0.24413172  0.49493170  0.62998838  1
  O  O218  1  0.24999463  0.99191827  0.13200074  1
  O  O219  1  0.24657929  0.99303699  0.62974928  1
  O  O220  1  0.74017000  0.49436042  0.12615082  1
  O  O221  1  0.74366546  0.48961659  0.62499798  1
  O  O222  1  0.74398107  0.99536446  0.13104472  1
  O  O223  1  0.74193881  0.99350529  0.62402044  1
  O  O224  1  0.00448264  0.36882362  0.25659560  1
  O  O225  1  0.00963391  0.37273073  0.75277223  1
  O  O226  1  0.00599234  0.86806695  0.25400295  1
  O  O227  1  -0.00089378  0.86872967  0.75714129  1
  O  O228  1  0.50262208  0.36605094  0.25414112  1
  O  O229  1  0.50576058  0.37387144  0.75535373  1
  O  O230  1  0.50625285  0.87042753  0.25508204  1
  O  O231  1  0.50033235  0.86933090  0.75755093  1
  O  O232  1  0.49398889  0.12976800  0.24468196  1
  O  O233  1  0.49446092  0.12389711  0.74064956  1
  O  O234  1  0.49363648  0.63263339  0.24841509  1
  O  O235  1  0.49256349  0.63287637  0.74726587  1
  O  O236  1  0.99455526  0.12991195  0.24491811  1
  O  O237  1  0.99205993  0.12613411  0.74210292  1
  O  O238  1  0.99328207  0.62792153  0.24365634  1
  O  O239  1  0.99156642  0.63321796  0.74811601  1
  O  O240  1  0.36925865  0.25423513  0.00662825  1
  O  O241  1  0.37115195  0.25953660  0.50212565  1
  O  O242  1  0.36907379  0.75607569  0.00406447  1
  O  O243  1  0.37294598  0.75140712  0.51053128  1
  O  O244  1  0.86845514  0.25463981  0.00516772  1
  O  O245  1  0.86195365  0.25225826  0.50248443  1
  O  O246  1  0.86674223  0.75662338  0.00156999  1
  O  O247  1  0.86769111  0.75209409  0.50662568  1
  O  O248  1  0.13412606  0.24203048  0.49862552  1
  O  O249  1  0.13219590  0.24478012  0.99452046  1
  O  O250  1  0.12756973  0.74021779  0.49352072  1
  O  O251  1  0.13173828  0.74682370  0.99247007  1
  O  O252  1  0.63503755  0.24876524  0.49222623  1
  O  O253  1  0.62990631  0.24394833  0.99562376  1
  O  O254  1  0.62953651  0.74554480  0.49444478  1
  O  O255  1  0.62987422  0.74578958  0.99422617  1
  O  O256  1  0.49503491  0.24396991  0.13052083  1
  O  O257  1  0.50139526  0.23703571  0.62493457  1
  O  O258  1  0.49348991  0.75051612  0.13144959  1
  O  O259  1  0.48979904  0.75201768  0.62986307  1
  O  O260  1  0.99316121  0.24439097  0.13036751  1
  O  O261  1  0.99886603  0.23755009  0.62764252  1
  O  O262  1  0.99940285  0.73841308  0.13165439  1
  O  O263  1  0.99234135  0.74958625  0.63098385  1
  O  O264  1  0.00081747  0.25763691  0.36818026  1
  O  O265  1  0.01031535  0.25232691  0.87216322  1
  O  O266  1  0.00685006  0.75480644  0.36852861  1
  O  O267  1  0.00339915  0.75504906  0.86959041  1
  O  O268  1  0.51043522  0.24830146  0.37184021  1
  O  O269  1  0.50694856  0.25657973  0.87374810  1
  O  O270  1  0.50574179  0.75599420  0.36917504  1
  O  O271  1  0.50421402  0.75636711  0.87034608  1
  O  O272  1  0.24651345  0.12922380  0.49527554  1
  O  O273  1  0.24615133  0.13043118  0.99474027  1
  O  O274  1  0.23956928  0.62561878  0.49328383  1
  O  O275  1  0.24884967  0.63215777  0.99258939  1
  O  O276  1  0.74876416  0.13472896  0.49543713  1
  O  O277  1  0.74380577  0.13025940  0.99552310  1
  O  O278  1  0.74402531  0.63171972  0.49505276  1
  O  O279  1  0.74453859  0.63195428  0.99467988  1
  O  O280  1  0.25534413  0.36842564  0.00632377  1
  O  O281  1  0.25776715  0.37170195  0.50383158  1
  O  O282  1  0.25541716  0.86925697  0.00430681  1
  O  O283  1  0.25162890  0.87379862  0.51216664  1
  O  O284  1  0.75533107  0.36814811  0.00630649  1
  O  O285  1  0.74964426  0.36670372  0.51002878  1
  O  O286  1  0.75436725  0.87060358  0.00575616  1
  O  O287  1  0.75042999  0.86938436  0.51077645  1
  O  O288  1  0.13191634  0.49245072  0.24363673  1
  O  O289  1  0.13145283  0.49580338  0.74407670  1
  O  O290  1  0.13290233  0.99178841  0.24810761  1
  O  O291  1  0.13230007  0.99909303  0.74332950  1
  O  O292  1  0.62680765  0.49985225  0.23917139  1
  O  O293  1  0.62673148  0.49426405  0.74310426  1
  O  O294  1  0.63024269  0.99553622  0.24518849  1
  O  O295  1  0.62667976  0.99781057  0.73785473  1
  O  O296  1  0.37012602  0.00544004  0.25523816  1
  O  O297  1  0.36930072  0.00535032  0.75658554  1
  O  O298  1  0.36991902  0.50543917  0.25018428  1
  O  O299  1  0.36771430  0.50833287  0.74826787  1
  O  O300  1  0.86851368  0.00521280  0.25494079  1
  O  O301  1  0.87273405  0.01217543  0.75659163  1
  O  O302  1  0.87279363  0.51266515  0.25298317  1
  O  O303  1  0.87202039  0.50641876  0.76003720  1
  O  O304  1  0.11635163  0.37174988  0.36834724  1
  O  O305  1  0.12684572  0.36938451  0.86842792  1
  O  O306  1  0.12139162  0.86898725  0.36867494  1
  O  O307  1  0.11776513  0.86810681  0.87281103  1
  O  O308  1  0.62534892  0.36199748  0.37475872  1
  O  O309  1  0.62051068  0.37030048  0.87096674  1
  O  O310  1  0.62031855  0.87083876  0.36936413  1
  O  O311  1  0.61808430  0.86962890  0.87491228  1
  O  O312  1  0.38008003  0.12995410  0.13054782  1
  O  O313  1  0.38558404  0.12258251  0.63017273  1
  O  O314  1  0.37562725  0.63165678  0.13091282  1
  O  O315  1  0.37347834  0.63678365  0.62972981  1
  O  O316  1  0.87912943  0.13047968  0.13005175  1
  O  O317  1  0.88233696  0.12515743  0.63353304  1
  O  O318  1  0.88259051  0.62476682  0.13370675  1
  O  O319  1  0.87391359  0.63273502  0.63199742  1
  O  O320  1  0.25607204  0.25432230  0.12047937  1
  O  O321  1  0.25336354  0.25707633  0.61716922  1
  O  O322  1  0.25546125  0.75473474  0.11910323  1
  O  O323  1  0.25802352  0.75913729  0.62583435  1
  O  O324  1  0.75486729  0.25388184  0.11982742  1
  O  O325  1  0.74765713  0.25793964  0.61716911  1
  O  O326  1  0.74992044  0.75739949  0.11855141  1
  O  O327  1  0.75358530  0.75877516  0.62066209  1
  O  O328  1  0.24930927  0.24183936  0.38147064  1
  O  O329  1  0.24609914  0.24355545  0.88097101  1
  O  O330  1  0.24394788  0.74263624  0.37533563  1
  O  O331  1  0.24418159  0.74609007  0.87832596  1
  O  O332  1  0.74427866  0.24577071  0.38214006  1
  O  O333  1  0.74374746  0.24466595  0.88178548  1
  O  O334  1  0.74413782  0.74633002  0.38058855  1
  O  O335  1  0.74364311  0.74612912  0.88054114  1
  O  O336  1  0.00645711  0.12449061  0.00657841  1
  O  O337  1  0.00525464  0.12447737  0.50986203  1
  O  O338  1  -0.00052361  0.62315920  0.01332261  1
  O  O339  1  0.01367616  0.62423245  0.49911712  1
  O  O340  1  0.50454976  0.11976197  0.00595721  1
  O  O341  1  0.50177981  0.11819423  0.51026009  1
  O  O342  1  0.50807960  0.62402652  0.00238991  1
  O  O343  1  0.50547466  0.61673168  0.50109613  1
  O  O344  1  0.49300913  0.38323299  0.50041645  1
  O  O345  1  0.49304844  0.37499378  0.99292722  1
  O  O346  1  0.49877060  0.88166780  0.49205039  1
  O  O347  1  0.49355821  0.88105467  0.99485035  1
  O  O348  1  1.00007871  0.37229401  0.48957327  1
  O  O349  1  0.99054742  0.37711913  0.99728382  1
  O  O350  1  0.99923781  0.87757152  0.49068601  1
  O  O351  1  0.99253486  0.87392142  0.99378062  1
  O  O352  1  0.50079637  0.49789985  0.38756296  1
  O  O353  1  0.49698796  0.49141617  0.87715595  1
  O  O354  1  0.49619093  0.99599903  0.37905334  1
  O  O355  1  0.49439024  0.99599955  0.88106226  1
  O  O356  1  0.99943566  0.48627554  0.37551046  1
  O  O357  1  0.98656253  0.50051933  0.87686112  1
  O  O358  1  0.99388006  0.99314798  0.37371237  1
  O  O359  1  0.99293436  0.99306191  0.87683546  1
  O  O360  1  0.00225894  0.00815115  0.12298722  1
  O  O361  1  0.00543056  0.01073413  0.62540020  1
  O  O362  1  0.00522807  0.50814335  0.12655383  1
  O  O363  1  0.00932725  0.50358380  0.62305437  1
  O  O364  1  0.50468784  0.00506187  0.12030734  1
  O  O365  1  0.50704865  0.00541279  0.62106304  1
  O  O366  1  0.51249779  0.50098831  0.12197159  1
  O  O367  1  0.50577317  0.50259363  0.61389185  1
  O  O368  1  0.24602371  0.37809849  0.24471137  1
  O  O369  1  0.24648709  0.38125427  0.74332249  1
  O  O370  1  0.24536934  0.87882654  0.24429815  1
  O  O371  1  0.24906789  0.88150847  0.73926766  1
  O  O372  1  0.74712615  0.37666573  0.24206793  1
  O  O373  1  0.74305844  0.37465646  0.74063230  1
  O  O374  1  0.74450143  0.88014243  0.24549849  1
  O  O375  1  0.74754687  0.87736033  0.73750143  1
  O  O376  1  0.25562293  0.11966301  0.25488274  1
  O  O377  1  0.25574638  0.11940774  0.75517055  1
  O  O378  1  0.25528105  0.61862053  0.25386254  1
  O  O379  1  0.25406102  0.62114841  0.75419548  1
  O  O380  1  0.75597218  0.11934367  0.25513996  1
  O  O381  1  0.75868308  0.12450845  0.75580303  1
  O  O382  1  0.75938213  0.62652207  0.25594778  1
  O  O383  1  0.75614816  0.62470879  0.75790917  1
  O  O384  1  0.37016197  0.11909428  0.36966595  1
  O  O385  1  0.36998970  0.11932799  0.87102277  1
  O  O386  1  0.36839897  0.62367652  0.36765355  1
  O  O387  1  0.36688211  0.62605670  0.86657897  1
  O  O388  1  0.87042847  0.11994349  0.36857087  1
  O  O389  1  0.87034733  0.12129075  0.86894594  1
  O  O390  1  0.87051008  0.62603638  0.36627288  1
  O  O391  1  0.86909893  0.61845790  0.87151595  1
  O  O392  1  0.13063477  0.37802761  0.13030166  1
  O  O393  1  0.13202124  0.38049401  0.62959288  1
  O  O394  1  0.13151989  0.87365033  0.13122792  1
  O  O395  1  0.13385022  0.88012306  0.62599731  1
  O  O396  1  0.63099775  0.38366633  0.12470628  1
  O  O397  1  0.63270197  0.38004617  0.62995380  1
  O  O398  1  0.63009006  0.88156879  0.13036744  1
  O  O399  1  0.63259496  0.88341289  0.62579757  1
  O  O400  1  0.11794379  0.25579560  0.25095026  1
  O  O401  1  0.12772638  0.25721934  0.75647289  1
  O  O402  1  0.12077093  0.75390297  0.25531290  1
  O  O403  1  0.11693973  0.75232282  0.75593373  1
  O  O404  1  0.62009551  0.24935452  0.25981854  1
  O  O405  1  0.62252062  0.25683738  0.75781173  1
  O  O406  1  0.62038672  0.75601649  0.25539568  1
  O  O407  1  0.61765136  0.75165160  0.75697294  1
  O  O408  1  0.38015859  0.24389408  0.24549514  1
  O  O409  1  0.37786856  0.24130334  0.74587200  1
  O  O410  1  0.38034255  0.74464703  0.24353275  1
  O  O411  1  0.37931293  0.74617314  0.74142753  1
  O  O412  1  0.87951686  0.24323722  0.24357282  1
  O  O413  1  0.87632374  0.23727149  0.74985372  1
  O  O414  1  0.88165825  0.73858385  0.24817987  1
  O  O415  1  0.87907522  0.74521178  0.74528655  1
  O  O416  1  0.38324111  0.49356068  0.49961997  1
  O  O417  1  0.37611527  0.49109081  0.99803756  1
  O  O418  1  0.38171738  0.99729254  0.49205272  1
  O  O419  1  0.37978839  0.99473651  0.99513716  1
  O  O420  1  0.88013912  0.49616532  0.49714360  1
  O  O421  1  0.87446643  0.49450150  0.99113730  1
  O  O422  1  0.87780027  0.99752902  0.49057143  1
  O  O423  1  0.87591306  0.99288979  0.99362588  1
  O  O424  1  0.12340816  0.00827914  0.00243050  1
  O  O425  1  0.12369091  0.00778583  0.50772269  1
  O  O426  1  0.12262075  0.50216573  0.00849855  1
  O  O427  1  0.12501827  0.50907878  0.50535370  1
  O  O428  1  0.61873960  0.00590133  0.00605902  1
  O  O429  1  0.61956561  0.00212112  0.51066277  1
  O  O430  1  0.62498124  0.50671055  0.00953855  1
  O  O431  1  0.61730547  0.50480739  0.50521994  1
  O  O432  1  0.36964559  0.36812767  0.12026398  1
  O  O433  1  0.37019661  0.37538027  0.61384689  1
  O  O434  1  0.36928640  0.86906110  0.11912865  1
  O  O435  1  0.36665373  0.86750897  0.62448107  1
  O  O436  1  0.86938314  0.36939352  0.12056482  1
  O  O437  1  0.86356229  0.37246086  0.62755386  1
  O  O438  1  0.86804178  0.87293309  0.11987058  1
  O  O439  1  0.86525726  0.87138275  0.62433721  1
  O  O440  1  0.13188450  0.12489585  0.38141576  1
  O  O441  1  0.13197417  0.12996998  0.87958773  1
  O  O442  1  0.12992546  0.62848758  0.38036390  1
  O  O443  1  0.13058613  0.63181899  0.87529382  1
  O  O444  1  0.63229799  0.13499392  0.37705710  1
  O  O445  1  0.62927450  0.12958358  0.88052182  1
  O  O446  1  0.63041171  0.63239662  0.38037070  1
  O  O447  1  0.63006110  0.63080744  0.88007408  1
