# generated using pymatgen
data_V3Zn3O8
_symmetry_space_group_name_H-M   'P 1'
_cell_length_a   17.08427486
_cell_length_b   17.08479905
_cell_length_c   17.08459097
_cell_angle_alpha   89.99531570
_cell_angle_beta   90.00300764
_cell_angle_gamma   89.99627711
_symmetry_Int_Tables_number   1
_chemical_formula_structural   V3Zn3O8
_chemical_formula_sum   'V96 Zn96 O256'
_cell_volume   4986.67434515
_cell_formula_units_Z   32
loop_
 _symmetry_equiv_pos_site_id
 _symmetry_equiv_pos_as_xyz
  1  'x, y, z'
loop_
 _atom_site_type_symbol
 _atom_site_label
 _atom_site_symmetry_multiplicity
 _atom_site_fract_x
 _atom_site_fract_y
 _atom_site_fract_z
 _atom_site_occupancy
  V  V0  1  0.24961277  0.12420012  0.87573000  1
  V  V1  1  0.75048467  0.24905327  0.50034342  1
  V  V2  1  -0.00123867  0.37458200  0.87555996  1
  V  V3  1  0.62553201  0.50041352  0.12663002  1
  V  V4  1  0.87564480  0.75027019  0.12488722  1
  V  V5  1  0.87531896  0.62456172  0.25115755  1
  V  V6  1  0.87462180  0.24930766  0.12590071  1
  V  V7  1  0.75042835  0.62470055  0.87452223  1
  V  V8  1  0.87381303  -0.00157452  0.87438446  1
  V  V9  1  0.87445298  0.87459416  0.50081573  1
  V  V10  1  0.62530143  0.37544007  0.74939151  1
  V  V11  1  0.12497839  0.75087211  0.87584570  1
  V  V12  1  0.75046310  0.12497989  0.37639056  1
  V  V13  1  0.12536990  0.62438046  0.49909028  1
  V  V14  1  0.00142075  0.37396609  0.37485291  1
  V  V15  1  0.12501686  0.37502091  0.75041269  1
  V  V16  1  0.37391204  0.49998864  0.37312294  1
  V  V17  1  0.75068728  0.87463831  0.12417819  1
  V  V18  1  0.25056531  0.49963572  0.75040537  1
  V  V19  1  0.25101568  0.37424835  0.62441006  1
  V  V20  1  0.87573837  0.37542281  0.50012448  1
  V  V21  1  0.87468521  0.37381839  0.00103835  1
  V  V22  1  0.37632228  0.49925048  0.87469766  1
  V  V23  1  0.37433592  0.62578682  0.24937576  1
  V  V24  1  0.37539594  0.00095429  0.37522093  1
  V  V25  1  0.24996525  0.62491244  0.37413506  1
  V  V26  1  0.12421483  0.24957512  0.87529084  1
  V  V27  1  0.24986930  0.00084386  0.24991526  1
  V  V28  1  0.12421249  0.12546405  0.00021543  1
  V  V29  1  0.62403725  0.62549733  0.49885528  1
  V  V30  1  0.25062466  0.25017950  0.00050251  1
  V  V31  1  0.87576489  0.12447230  0.24962802  1
  V  V32  1  0.37395146  -0.00028172  0.87631330  1
  V  V33  1  0.25025819  0.62502507  0.87581003  1
  V  V34  1  0.49956692  0.00034502  0.00095333  1
  V  V35  1  0.50090667  0.49951306  -0.00144200  1
  V  V36  1  -0.00092651  0.12548545  0.12506487  1
  V  V37  1  0.25031987  0.25008337  0.49968915  1
  V  V38  1  0.62474887  0.87450801  0.25007924  1
  V  V39  1  0.62527207  0.12504732  0.50117461  1
  V  V40  1  0.24813104  0.87692708  0.62608777  1
  V  V41  1  0.00001979  0.75169017  0.24994382  1
  V  V42  1  0.87483952  0.62481072  0.75088694  1
  V  V43  1  0.75053756  0.37520220  0.12731574  1
  V  V44  1  0.49978016  0.75050138  0.24912898  1
  V  V45  1  0.00188450  0.50161629  0.00270878  1
  V  V46  1  0.74978920  0.74965376  0.49853309  1
  V  V47  1  0.62434131  0.24973751  0.87436195  1
  V  V48  1  0.37434762  0.12499569  0.74890701  1
  V  V49  1  0.37585418  0.12641025  0.24991913  1
  V  V50  1  0.25085207  0.37546946  0.12413608  1
  V  V51  1  0.50196908  0.25173069  0.24988229  1
  V  V52  1  0.87485542  0.12512035  0.75007674  1
  V  V53  1  0.62354983  0.87431764  0.74939483  1
  V  V54  1  0.24986655  0.74891060  0.49892381  1
  V  V55  1  0.62366603  -0.00002093  0.62549595  1
  V  V56  1  0.87564158  0.25039656  0.62517725  1
  V  V57  1  0.37424711  0.37490543  0.49980544  1
  V  V58  1  0.00063642  0.87460643  0.37544019  1
  V  V59  1  0.00047556  0.12442802  0.62465128  1
  V  V60  1  0.25019555  0.74985030  -0.00017427  1
  V  V61  1  0.75015960  0.37510988  0.62518983  1
  V  V62  1  0.75077452  0.75011748  0.00039487  1
  V  V63  1  0.49957332  0.74961229  0.74935890  1
  V  V64  1  0.87526522  -0.00051364  0.37513505  1
  V  V65  1  0.50109919  0.37559446  0.37560952  1
  V  V66  1  0.00000233  0.49984833  0.50100979  1
  V  V67  1  0.37538676  0.62522034  0.74883801  1
  V  V68  1  0.62458749  0.75021919  0.87428648  1
  V  V69  1  0.12526543  0.37513404  0.24998446  1
  V  V70  1  0.62451900  0.50046020  0.62430525  1
  V  V71  1  0.75033939  -0.00028970  0.24958527  1
  V  V72  1  0.00030857  0.00007789  0.50147984  1
  V  V73  1  0.50088054  0.37513907  0.87425196  1
  V  V74  1  0.37502637  0.87506987  0.49924200  1
  V  V75  1  0.12516661  0.12498044  0.50046862  1
  V  V76  1  0.50146419  0.12591077  0.12545269  1
  V  V77  1  0.87499464  0.50059959  0.37517381  1
  V  V78  1  0.12513792  0.49986071  0.62584336  1
  V  V79  1  0.74854813  0.87520546  0.62456399  1
  V  V80  1  0.62523799  0.00093073  0.12439224  1
  V  V81  1  0.24961815  0.12600738  0.37555916  1
  V  V82  1  0.00044475  0.75079297  0.75073508  1
  V  V83  1  -0.00028449  0.25020320  0.75049558  1
  V  V84  1  0.50029348  0.00121641  0.50047778  1
  V  V85  1  0.74786851  0.12535914  0.87513672  1
  V  V86  1  0.12508932  0.87577835  0.25072121  1
  V  V87  1  -0.00045390  -0.00083054  -0.00066847  1
  V  V88  1  -0.00035098  0.62445720  0.62583860  1
  V  V89  1  0.37516577  0.87559576  -0.00019564  1
  V  V90  1  0.50030613  0.87538115  0.37395079  1
  V  V91  1  0.62539806  0.62462861  -0.00052735  1
  V  V92  1  0.87376554  0.49987693  0.87531989  1
  V  V93  1  0.37534568  0.74953748  0.12467097  1
  V  V94  1  0.37518045  0.74923726  0.62481060  1
  V  V95  1  0.24993517  0.87614023  0.12614756  1
  Zn  Zn96  1  0.49935201  0.62459343  0.12460573  1
  Zn  Zn97  1  0.49911440  0.50103133  0.49876595  1
  Zn  Zn98  1  0.37689734  0.24992296  0.62578460  1
  Zn  Zn99  1  0.62688974  0.37725358  0.25293863  1
  Zn  Zn100  1  0.75000607  0.50115752  0.25277945  1
  Zn  Zn101  1  0.62730702  0.25205447  0.37653789  1
  Zn  Zn102  1  0.74894279  0.62285561  0.37476490  1
  Zn  Zn103  1  0.00322508  0.62602577  0.12585870  1
  Zn  Zn104  1  0.37571640  0.37428894  -0.00071536  1
  Zn  Zn105  1  0.24898844  0.50244020  0.24675696  1
  Zn  Zn106  1  0.49835803  0.62451666  0.62344900  1
  Zn  Zn107  1  0.00042696  0.87574473  0.87343592  1
  Zn  Zn108  1  0.49822458  0.24948629  0.74785685  1
  Zn  Zn109  1  0.24624719  -0.00149807  0.75170121  1
  Zn  Zn110  1  0.00102017  0.24858606  0.25138626  1
  Zn  Zn111  1  0.75050388  0.50105108  0.75029402  1
  Zn  Zn112  1  0.49931687  0.87496154  0.87523903  1
  Zn  Zn113  1  0.49892618  0.12715499  0.62538371  1
  Zn  Zn114  1  0.12484569  0.74912707  0.37462757  1
  Zn  Zn115  1  0.12430579  0.87664995  0.74881782  1
  Zn  Zn116  1  0.12538899  0.00130465  0.12543543  1
  Zn  Zn117  1  0.37785500  0.25163475  0.12196778  1
  Zn  Zn118  1  0.87529656  0.75011098  0.62564506  1
  Zn  Zn119  1  0.62367151  0.12518596  -0.00018093  1
  Zn  Zn120  1  0.12613002  0.50272272  0.12422811  1
  Zn  Zn121  1  0.74910229  0.24874677  0.00170740  1
  Zn  Zn122  1  0.12405446  -0.00037982  0.62817340  1
  Zn  Zn123  1  0.12537520  0.62554849  0.00429256  1
  Zn  Zn124  1  0.12452751  0.24928902  0.37441237  1
  Zn  Zn125  1  0.74765835  -0.00188326  0.74990790  1
  Zn  Zn126  1  0.87599768  0.87267174  -0.00126663  1
  Zn  Zn127  1  0.62419685  0.74848914  0.37299457  1
  Zn  Zn128  1  0.18672434  0.18923394  0.18647972  1
  Zn  Zn129  1  0.18875773  0.18730324  0.68682046  1
  Zn  Zn130  1  0.18578681  0.68825621  0.18663105  1
  Zn  Zn131  1  0.18792587  0.68768529  0.68754353  1
  Zn  Zn132  1  0.68686550  0.18775923  0.18977680  1
  Zn  Zn133  1  0.68728669  0.18690028  0.68761979  1
  Zn  Zn134  1  0.68860856  0.68753664  0.18730402  1
  Zn  Zn135  1  0.68775635  0.68795503  0.68636781  1
  Zn  Zn136  1  0.31285726  0.31204972  0.31189295  1
  Zn  Zn137  1  0.31274455  0.31141050  0.81340925  1
  Zn  Zn138  1  0.31220431  0.81179218  0.31257131  1
  Zn  Zn139  1  0.31314574  0.81290216  0.81214151  1
  Zn  Zn140  1  0.81456777  0.31173766  0.31236792  1
  Zn  Zn141  1  0.81083836  0.31304096  0.81166201  1
  Zn  Zn142  1  0.81229183  0.81184056  0.31321575  1
  Zn  Zn143  1  0.81120027  0.81235315  0.81199429  1
  Zn  Zn144  1  0.18846373  0.43827864  0.43578832  1
  Zn  Zn145  1  0.18726015  0.43689701  0.93757790  1
  Zn  Zn146  1  0.18607743  0.93863850  0.43818439  1
  Zn  Zn147  1  0.18761018  0.93684887  0.93761973  1
  Zn  Zn148  1  0.68894306  0.43800299  0.43804599  1
  Zn  Zn149  1  0.68852881  0.43705640  0.93894790  1
  Zn  Zn150  1  0.68606450  0.93779845  0.43709621  1
  Zn  Zn151  1  0.68568511  0.93575284  0.93833840  1
  Zn  Zn152  1  0.31387751  0.06408020  0.06402300  1
  Zn  Zn153  1  0.31192782  0.06223480  0.56310864  1
  Zn  Zn154  1  0.31333231  0.56156023  0.06173619  1
  Zn  Zn155  1  0.31268779  0.56110230  0.56089456  1
  Zn  Zn156  1  0.81164895  0.06297268  0.06103065  1
  Zn  Zn157  1  0.81189226  0.06116100  0.56352181  1
  Zn  Zn158  1  0.81407747  0.56324358  0.06351402  1
  Zn  Zn159  1  0.81231445  0.56342772  0.56350177  1
  Zn  Zn160  1  0.43627747  0.43858604  0.18723963  1
  Zn  Zn161  1  0.43942279  0.43660287  0.68720969  1
  Zn  Zn162  1  0.43713152  0.93828525  0.18700031  1
  Zn  Zn163  1  0.43665804  0.93852368  0.68843315  1
  Zn  Zn164  1  0.93884624  0.43729520  0.18859725  1
  Zn  Zn165  1  0.93701686  0.43845499  0.68870504  1
  Zn  Zn166  1  0.93740216  0.93700872  0.18627076  1
  Zn  Zn167  1  0.93578885  0.93691538  0.68702090  1
  Zn  Zn168  1  0.06320201  0.06151805  0.31344125  1
  Zn  Zn169  1  0.06378939  0.06180414  0.81059409  1
  Zn  Zn170  1  0.06225308  0.56099691  0.31209775  1
  Zn  Zn171  1  0.06287207  0.56359435  0.81518654  1
  Zn  Zn172  1  0.56440874  0.06352573  0.31364066  1
  Zn  Zn173  1  0.55896666  0.06039800  0.81166397  1
  Zn  Zn174  1  0.56088109  0.56366335  0.31177638  1
  Zn  Zn175  1  0.56243855  0.56333734  0.81093336  1
  Zn  Zn176  1  0.43749543  0.18890840  0.43815952  1
  Zn  Zn177  1  0.43700660  0.18775316  0.93742023  1
  Zn  Zn178  1  0.43789344  0.68782757  0.43596338  1
  Zn  Zn179  1  0.43883854  0.68659803  0.93703463  1
  Zn  Zn180  1  0.93875089  0.18826016  0.43665035  1
  Zn  Zn181  1  0.93557912  0.18745376  0.93879838  1
  Zn  Zn182  1  0.93795293  0.68816092  0.43673563  1
  Zn  Zn183  1  0.93744153  0.68588119  0.93785998  1
  Zn  Zn184  1  0.06253318  0.31213736  0.06421666  1
  Zn  Zn185  1  0.06432875  0.31135093  0.56179813  1
  Zn  Zn186  1  0.06260097  0.81451543  0.06351843  1
  Zn  Zn187  1  0.06333611  0.81047569  0.56181531  1
  Zn  Zn188  1  0.56434835  0.31371701  0.06064502  1
  Zn  Zn189  1  0.56088053  0.30988143  0.56340507  1
  Zn  Zn190  1  0.56219637  0.81302376  0.06273085  1
  Zn  Zn191  1  0.56152049  0.81237452  0.56303694  1
  O  O192  1  0.11811932  0.12375205  0.11801085  1
  O  O193  1  0.11774824  0.12442835  0.61875594  1
  O  O194  1  0.12085150  0.62077232  0.12211676  1
  O  O195  1  0.12026007  0.61850764  0.62012613  1
  O  O196  1  0.62005212  0.11863233  0.12403755  1
  O  O197  1  0.62500508  0.11776753  0.61910279  1
  O  O198  1  0.62602470  0.61498807  0.11884271  1
  O  O199  1  0.62511359  0.61687277  0.61637831  1
  O  O200  1  0.38222081  0.38013202  0.37903972  1
  O  O201  1  0.38200738  0.38223166  0.87435933  1
  O  O202  1  0.38000259  0.88150789  0.37987845  1
  O  O203  1  0.37494294  0.88105598  0.88248303  1
  O  O204  1  0.88110686  0.38051245  0.38095197  1
  O  O205  1  0.87943751  0.37915210  0.88032436  1
  O  O206  1  0.88020182  0.88088641  0.38069410  1
  O  O207  1  0.87521795  0.88721638  0.87560848  1
  O  O208  1  0.25658218  0.00584894  0.37028514  1
  O  O209  1  0.25588339  0.00673656  0.87651374  1
  O  O210  1  0.25688149  0.50704916  0.37222878  1
  O  O211  1  0.25517616  0.50423750  0.86942688  1
  O  O212  1  0.75612622  0.00447104  0.36970881  1
  O  O213  1  0.75727876  0.00785583  0.87455679  1
  O  O214  1  0.75927999  0.50158623  0.37269060  1
  O  O215  1  0.75605463  0.50638875  0.87462762  1
  O  O216  1  0.24817220  0.48813375  0.12423578  1
  O  O217  1  0.24395170  0.49460131  0.63077089  1
  O  O218  1  0.24980188  0.99432175  0.13198324  1
  O  O219  1  0.24895809  0.98695624  0.62470939  1
  O  O220  1  0.74285661  0.49187019  0.12544276  1
  O  O221  1  0.74027771  0.49417459  0.62523047  1
  O  O222  1  0.74577918  0.99526451  0.13008227  1
  O  O223  1  0.74272124  0.99303172  0.62654588  1
  O  O224  1  0.00876063  0.37385326  0.25549091  1
  O  O225  1  0.00503904  0.36993321  0.75562831  1
  O  O226  1  0.00445720  0.87178594  0.25561436  1
  O  O227  1  0.00058561  0.86241733  0.75082734  1
  O  O228  1  0.49983599  0.36761727  0.25821570  1
  O  O229  1  0.50813507  0.37395543  0.75719521  1
  O  O230  1  0.50494093  0.87084482  0.25441378  1
  O  O231  1  0.50535349  0.86738586  0.75149422  1
  O  O232  1  0.49655445  0.13319448  0.24686754  1
  O  O233  1  0.48655029  0.12526923  0.74961069  1
  O  O234  1  0.49271177  0.63255728  0.24814476  1
  O  O235  1  0.49305524  0.63137267  0.74731316  1
  O  O236  1  0.99350839  0.12360179  0.24362915  1
  O  O237  1  0.99449560  0.13164776  0.74509019  1
  O  O238  1  0.99003460  0.63123713  0.25063998  1
  O  O239  1  0.99564006  0.63231165  0.74647621  1
  O  O240  1  0.36685796  0.25327591  0.00114952  1
  O  O241  1  0.36744678  0.25709998  0.50097362  1
  O  O242  1  0.37010961  0.75521414  0.00446870  1
  O  O243  1  0.36981304  0.75556786  0.50478533  1
  O  O244  1  0.87225860  0.25622297  0.00720949  1
  O  O245  1  0.87058875  0.25543158  0.50659948  1
  O  O246  1  0.86889087  0.75070297  0.00552353  1
  O  O247  1  0.86603371  0.75521361  0.50113496  1
  O  O248  1  0.13239551  0.24342608  0.49795214  1
  O  O249  1  0.12868456  0.24459399  0.99375237  1
  O  O250  1  0.13117294  0.74132658  0.49816641  1
  O  O251  1  0.13029934  0.75030229  0.99102272  1
  O  O252  1  0.63346749  0.24371979  0.49956936  1
  O  O253  1  0.62757216  0.24822578  0.98630594  1
  O  O254  1  0.63237235  0.74208891  0.50025980  1
  O  O255  1  0.63042153  0.74445120  0.99526573  1
  O  O256  1  0.50197316  0.24672497  0.13398827  1
  O  O257  1  0.49523009  0.24578078  0.62995032  1
  O  O258  1  0.49327344  0.74894345  0.13099473  1
  O  O259  1  0.49231639  0.74863370  0.63085722  1
  O  O260  1  0.99246640  0.24268709  0.12605985  1
  O  O261  1  0.99451587  0.24529857  0.63073771  1
  O  O262  1  0.99296187  0.75086854  0.13161936  1
  O  O263  1  0.99995888  0.74291427  0.63472216  1
  O  O264  1  0.00270081  0.25845806  0.37296440  1
  O  O265  1  0.00381209  0.25468585  0.87015789  1
  O  O266  1  0.00092850  0.75789002  0.36870950  1
  O  O267  1  0.00764739  0.74934855  0.86788634  1
  O  O268  1  0.50080637  0.25950812  0.36709620  1
  O  O269  1  0.51028140  0.25508014  0.87318321  1
  O  O270  1  0.50080126  0.75817373  0.36762288  1
  O  O271  1  0.50700551  0.75100238  0.86807369  1
  O  O272  1  0.24538085  0.12964839  0.49493257  1
  O  O273  1  0.24422704  0.13019904  0.99584640  1
  O  O274  1  0.24460733  0.62949367  0.49472505  1
  O  O275  1  0.24952771  0.63201660  0.99276992  1
  O  O276  1  0.74627697  0.12971317  0.49557850  1
  O  O277  1  0.74741717  0.12644775  0.98684852  1
  O  O278  1  0.74226797  0.63365523  0.50022304  1
  O  O279  1  0.74543981  0.63056635  0.99449157  1
  O  O280  1  0.24868584  0.36874541  0.00839285  1
  O  O281  1  0.25438693  0.37064024  0.50472057  1
  O  O282  1  0.25558947  0.86946225  0.00610031  1
  O  O283  1  0.25562701  0.86964484  0.50577688  1
  O  O284  1  0.75614330  0.37416345  0.01148538  1
  O  O285  1  0.75675867  0.36911067  0.50570137  1
  O  O286  1  0.75137374  0.86801891  0.00657227  1
  O  O287  1  0.75347450  0.86768106  0.50402458  1
  O  O288  1  0.12631237  0.48743551  0.24743397  1
  O  O289  1  0.13010150  0.49509869  0.74622748  1
  O  O290  1  0.13219429  0.99389900  0.24872293  1
  O  O291  1  0.12784622  0.99431137  0.74657701  1
  O  O292  1  0.62725201  0.50030461  0.23865187  1
  O  O293  1  0.62708903  0.49576994  0.73965614  1
  O  O294  1  0.63105360  0.99490531  0.24435397  1
  O  O295  1  0.62496463  0.99262271  0.74411256  1
  O  O296  1  0.37020584  0.00626016  0.25616442  1
  O  O297  1  0.37137747  0.00797477  0.75746488  1
  O  O298  1  0.37303898  0.50768355  0.25541769  1
  O  O299  1  0.36986312  0.50519507  0.75464064  1
  O  O300  1  0.86935526  0.00441203  0.25532817  1
  O  O301  1  0.87392647  0.00584379  0.75992338  1
  O  O302  1  0.87670899  0.50981090  0.25551548  1
  O  O303  1  0.87432972  0.50654973  0.75747380  1
  O  O304  1  0.12063419  0.37476794  0.36626544  1
  O  O305  1  0.11892016  0.36909744  0.86893662  1
  O  O306  1  0.11821550  0.87422393  0.36924093  1
  O  O307  1  0.12470663  0.86175035  0.87249248  1
  O  O308  1  0.61463807  0.37501185  0.37407455  1
  O  O309  1  0.62260447  0.36811275  0.87012020  1
  O  O310  1  0.61800112  0.87477148  0.36763914  1
  O  O311  1  0.62369894  0.86746026  0.86813091  1
  O  O312  1  0.38315040  0.12778293  0.13289016  1
  O  O313  1  0.37341220  0.12525630  0.63678806  1
  O  O314  1  0.37609064  0.63162372  0.13070975  1
  O  O315  1  0.37448337  0.63071615  0.63063213  1
  O  O316  1  0.87832456  0.12930617  0.13008839  1
  O  O317  1  0.87974002  0.13082893  0.63029594  1
  O  O318  1  0.87692891  0.63111417  0.13520222  1
  O  O319  1  0.88192132  0.62611804  0.63188735  1
  O  O320  1  0.25139834  0.25936673  0.11905341  1
  O  O321  1  0.25121952  0.25775451  0.61824322  1
  O  O322  1  0.25586213  0.75661861  0.11943974  1
  O  O323  1  0.25553580  0.75660910  0.61896249  1
  O  O324  1  0.75391803  0.25883434  0.12469417  1
  O  O325  1  0.75659717  0.25492274  0.62063203  1
  O  O326  1  0.75552849  0.75509408  0.11949716  1
  O  O327  1  0.75065400  0.75573721  0.61372074  1
  O  O328  1  0.24954138  0.24310466  0.38106514  1
  O  O329  1  0.24242355  0.24503857  0.88080607  1
  O  O330  1  0.24914870  0.74352349  0.38198530  1
  O  O331  1  0.24333895  0.74518708  0.87932765  1
  O  O332  1  0.75092069  0.24372439  0.38219519  1
  O  O333  1  0.74271416  0.24177402  0.87520225  1
  O  O334  1  0.74730677  0.74940149  0.38774368  1
  O  O335  1  0.74458759  0.74416353  0.88062207  1
  O  O336  1  0.00377225  0.11724215  0.00410295  1
  O  O337  1  0.00410215  0.12010612  0.50538955  1
  O  O338  1  0.00014792  0.61296661  0.00108759  1
  O  O339  1  0.00465596  0.61920767  0.50578112  1
  O  O340  1  0.50120575  0.11878672  0.00726048  1
  O  O341  1  0.50632253  0.11842465  0.49986100  1
  O  O342  1  0.50782196  0.61782877  0.00108031  1
  O  O343  1  0.51135596  0.62421341  0.50124193  1
  O  O344  1  0.49464835  0.37469975  0.48892723  1
  O  O345  1  0.49997064  0.38209750  0.99197746  1
  O  O346  1  0.49428897  0.88055633  0.49405355  1
  O  O347  1  0.49252059  0.88194434  1.00003084  1
  O  O348  1  0.99518683  0.38067058  0.49644941  1
  O  O349  1  0.99452409  0.38109971  0.99477614  1
  O  O350  1  0.99425286  0.87924663  0.49604079  1
  O  O351  1  0.99812876  0.88721380  0.99656295  1
  O  O352  1  0.49422052  0.48975039  0.37433562  1
  O  O353  1  0.49683247  0.49489738  0.87889186  1
  O  O354  1  0.49457534  0.99525254  0.37985454  1
  O  O355  1  0.49235709  0.99784097  0.88344838  1
  O  O356  1  0.99457864  0.49411812  0.38263942  1
  O  O357  1  0.99425608  0.49426746  0.88228198  1
  O  O358  1  0.99366930  0.99431975  0.38138062  1
  O  O359  1  0.99017165  1.00208368  0.88240462  1
  O  O360  1  -0.00098559  0.00562623  0.11367137  1
  O  O361  1  -0.00142686  0.00683977  0.61885454  1
  O  O362  1  0.00021898  0.49888396  0.11236289  1
  O  O363  1  0.00575795  0.50465650  0.62085559  1
  O  O364  1  0.50573590  0.00609169  0.12143129  1
  O  O365  1  0.50564514  0.00098979  0.61726190  1
  O  O366  1  0.51069835  0.49943886  0.11902889  1
  O  O367  1  0.51288685  0.50068024  0.62134874  1
  O  O368  1  0.24303990  0.37498446  0.24151660  1
  O  O369  1  0.24397598  0.38037910  0.74546753  1
  O  O370  1  0.24568973  0.88097952  0.24602950  1
  O  O371  1  0.24975211  0.87375380  0.73726316  1
  O  O372  1  0.74977463  0.37696882  0.23880066  1
  O  O373  1  0.74379396  0.37743181  0.74248577  1
  O  O374  1  0.74527068  0.88036462  0.24466112  1
  O  O375  1  0.74233669  0.87455812  0.74253905  1
  O  O376  1  0.25534966  0.12111452  0.25486719  1
  O  O377  1  0.25711110  0.12361557  0.75747776  1
  O  O378  1  0.25623101  0.62535023  0.25609586  1
  O  O379  1  0.25538711  0.61907770  0.75562426  1
  O  O380  1  0.75569545  0.11878397  0.25586741  1
  O  O381  1  0.75609710  0.12303016  0.76008252  1
  O  O382  1  0.76317353  0.62538793  0.25273363  1
  O  O383  1  0.75671141  0.62529994  0.75649429  1
  O  O384  1  0.36987095  0.11972018  0.36970990  1
  O  O385  1  0.36880147  0.11955394  0.86890213  1
  O  O386  1  0.36977677  0.62006700  0.36951527  1
  O  O387  1  0.36961700  0.61918631  0.86851895  1
  O  O388  1  0.87020682  0.11862802  0.37041578  1
  O  O389  1  0.86698563  0.11857820  0.87053673  1
  O  O390  1  0.87505238  0.61933068  0.36689648  1
  O  O391  1  0.86919095  0.61946501  0.87033843  1
  O  O392  1  0.13324760  0.37519114  0.13256566  1
  O  O393  1  0.12985131  0.38082794  0.63124225  1
  O  O394  1  0.13231971  0.87825383  0.13189012  1
  O  O395  1  0.13662428  0.87423364  0.62427000  1
  O  O396  1  0.63395679  0.38406563  0.12501005  1
  O  O397  1  0.63026073  0.38249444  0.62790164  1
  O  O398  1  0.63108136  0.88088015  0.13076876  1
  O  O399  1  0.62936941  0.88027916  0.62946156  1
  O  O400  1  0.12304510  0.26212557  0.25217989  1
  O  O401  1  0.11899308  0.25533472  0.75558691  1
  O  O402  1  0.11794089  0.75809068  0.25213251  1
  O  O403  1  0.11639056  0.74864920  0.75850456  1
  O  O404  1  0.61351639  0.25277339  0.25386580  1
  O  O405  1  0.62540193  0.25561345  0.76020592  1
  O  O406  1  0.61917913  0.75612329  0.25031121  1
  O  O407  1  0.61960750  0.75412273  0.75424556  1
  O  O408  1  0.38739851  0.24494190  0.24901093  1
  O  O409  1  0.37487321  0.23784866  0.75105035  1
  O  O410  1  0.38002889  0.74602410  0.24390404  1
  O  O411  1  0.37948839  0.74416922  0.74483052  1
  O  O412  1  0.87678066  0.24170590  0.24332176  1
  O  O413  1  0.88055541  0.24551502  0.74497644  1
  O  O414  1  0.87986286  0.74341980  0.24601387  1
  O  O415  1  0.88510156  0.74365564  0.75067825  1
  O  O416  1  0.37734110  0.49346637  0.49221067  1
  O  O417  1  0.38273512  0.49872565  0.99169460  1
  O  O418  1  0.38016752  0.99508023  0.49403813  1
  O  O419  1  0.37984178  0.99517567  0.99623346  1
  O  O420  1  0.88067622  0.49483000  0.49634963  1
  O  O421  1  0.88236340  0.49413036  0.99488208  1
  O  O422  1  0.88008188  0.99442376  0.49441057  1
  O  O423  1  0.88305820  1.00108373  0.99005218  1
  O  O424  1  0.11410448  0.00608507  -0.00124597  1
  O  O425  1  0.11721623  0.00697891  0.50249639  1
  O  O426  1  0.11276389  0.50059730  -0.00177851  1
  O  O427  1  0.11965973  0.50433516  0.50662578  1
  O  O428  1  0.61836677  0.00101527  0.00689651  1
  O  O429  1  0.61962526  0.00492796  0.50534310  1
  O  O430  1  0.62139475  0.50490045  0.00763997  1
  O  O431  1  0.62585327  0.50873323  0.50795028  1
  O  O432  1  0.36389429  0.37336863  0.12298586  1
  O  O433  1  0.36785823  0.37595386  0.61875069  1
  O  O434  1  0.36913240  0.86977478  0.11994280  1
  O  O435  1  0.36742207  0.86966824  0.61872590  1
  O  O436  1  0.86776678  0.37029393  0.12183679  1
  O  O437  1  0.87101460  0.37039033  0.62004832  1
  O  O438  1  0.86759654  0.86867682  0.12349229  1
  O  O439  1  0.86724421  0.87311853  0.61801764  1
  O  O440  1  0.13196454  0.12561456  0.38178031  1
  O  O441  1  0.12903700  0.13119709  0.88026174  1
  O  O442  1  0.13106402  0.62475974  0.38164885  1
  O  O443  1  0.13149924  0.63583826  0.87664059  1
  O  O444  1  0.63358550  0.12585602  0.38249892  1
  O  O445  1  0.63243134  0.13196501  0.87258507  1
  O  O446  1  0.62746403  0.62558414  0.38596434  1
  O  O447  1  0.63103885  0.62998980  0.87974677  1
