# generated using pymatgen
data_V3Zn3O8
_symmetry_space_group_name_H-M   'P 1'
_cell_length_a   17.08488045
_cell_length_b   17.08410570
_cell_length_c   17.08362465
_cell_angle_alpha   89.98527069
_cell_angle_beta   90.00166395
_cell_angle_gamma   89.99999384
_symmetry_Int_Tables_number   1
_chemical_formula_structural   V3Zn3O8
_chemical_formula_sum   'V96 Zn96 O256'
_cell_volume   4986.36654623
_cell_formula_units_Z   32
loop_
 _symmetry_equiv_pos_site_id
 _symmetry_equiv_pos_as_xyz
  1  'x, y, z'
loop_
 _atom_site_type_symbol
 _atom_site_label
 _atom_site_symmetry_multiplicity
 _atom_site_fract_x
 _atom_site_fract_y
 _atom_site_fract_z
 _atom_site_occupancy
  V  V0  1  0.87514742  0.49838290  0.37466599  1
  V  V1  1  0.87414518  0.49967831  0.87366396  1
  V  V2  1  0.49747508  0.37810029  0.87541388  1
  V  V3  1  0.50057508  0.25042059  0.25030501  1
  V  V4  1  0.75041855  0.00172970  0.75203918  1
  V  V5  1  0.25016678  0.62459047  0.37401564  1
  V  V6  1  0.12505608  0.87459178  0.75004228  1
  V  V7  1  0.49980486  0.50193627  0.49973429  1
  V  V8  1  0.12527502  0.24893517  0.37537696  1
  V  V9  1  0.62380569  0.62503726  -0.00044974  1
  V  V10  1  0.00032189  0.75161129  0.75044215  1
  V  V11  1  0.00166714  0.87556681  0.37536547  1
  V  V12  1  0.12532246  0.37396590  0.24998452  1
  V  V13  1  0.50159485  0.87417528  0.37508232  1
  V  V14  1  0.49779655  0.25226202  0.74986205  1
  V  V15  1  0.75131134  0.87539748  0.62454644  1
  V  V16  1  0.50084833  0.74934170  0.25025722  1
  V  V17  1  0.25067743  0.87618215  0.62484133  1
  V  V18  1  0.62563397  -0.00122598  0.12751969  1
  V  V19  1  0.50138797  0.00086444  0.50134584  1
  V  V20  1  0.37330397  0.37585396  -0.00012867  1
  V  V21  1  0.25038833  0.75027720  0.49892355  1
  V  V22  1  0.00053738  -0.00177481  0.49910829  1
  V  V23  1  -0.00275097  0.12607766  0.62796723  1
  V  V24  1  0.87422120  0.37348206  0.50101599  1
  V  V25  1  0.24997702  0.25052511  0.50041580  1
  V  V26  1  0.50065034  0.75179032  0.74977050  1
  V  V27  1  -0.00062369  0.37391797  0.87539410  1
  V  V28  1  0.50017520  0.12453345  0.12490683  1
  V  V29  1  0.37284636  0.50117518  0.87549030  1
  V  V30  1  0.25102198  0.87363011  0.12357983  1
  V  V31  1  0.12614437  0.12388312  0.00056679  1
  V  V32  1  0.12546910  0.12486565  0.50070880  1
  V  V33  1  0.24950108  0.49884282  0.24908976  1
  V  V34  1  0.87493308  0.87499745  0.00169973  1
  V  V35  1  0.62567980  0.25060970  0.87678178  1
  V  V36  1  0.50057072  0.87553846  0.87583481  1
  V  V37  1  0.62535281  0.87561240  0.75006713  1
  V  V38  1  0.87356430  0.00162390  0.87598244  1
  V  V39  1  0.00138009  0.74910533  0.24904145  1
  V  V40  1  0.37446856  0.12674232  0.75020634  1
  V  V41  1  0.74851016  0.37610249  0.62447827  1
  V  V42  1  0.50049644  0.37523342  0.37444746  1
  V  V43  1  0.87577202  0.74900137  0.12416629  1
  V  V44  1  -0.00005068  0.24760851  0.25034046  1
  V  V45  1  0.87486918  0.24878202  0.12545200  1
  V  V46  1  0.75098504  0.12427786  0.37569760  1
  V  V47  1  0.87336180  0.62437840  0.74999710  1
  V  V48  1  0.37554139  0.62496894  0.24852570  1
  V  V49  1  0.12423910  0.62378060  0.49938089  1
  V  V50  1  0.12397142  0.49880722  0.12506842  1
  V  V51  1  0.37585577  0.12456229  0.25079267  1
  V  V52  1  0.25053559  0.24965047  0.00086262  1
  V  V53  1  0.37444265  0.25126417  0.62605323  1
  V  V54  1  0.74943459  0.62675629  0.37704754  1
  V  V55  1  0.62582708  0.00134961  0.62558511  1
  V  V56  1  -0.00017397  0.49953318  0.00039758  1
  V  V57  1  0.37528290  0.75115297  0.62458367  1
  V  V58  1  0.62351075  0.50141317  0.62483688  1
  V  V59  1  0.87394592  0.75187751  0.62247894  1
  V  V60  1  0.12544936  0.00030041  0.62524723  1
  V  V61  1  0.37523451  0.49978026  0.37391454  1
  V  V62  1  0.74990418  0.25039413  0.50115772  1
  V  V63  1  0.24973830  0.75060339  -0.00067958  1
  V  V64  1  0.25119651  0.00100007  0.75029075  1
  V  V65  1  0.24809263  0.37695532  0.62510243  1
  V  V66  1  0.00088007  0.49966303  0.50011151  1
  V  V67  1  0.75067422  0.49889523  0.24905854  1
  V  V68  1  0.75087768  0.37353243  0.12448066  1
  V  V69  1  0.12384067  0.37586493  0.74940034  1
  V  V70  1  0.62475435  0.25087401  0.37513275  1
  V  V71  1  0.49977456  0.62595499  0.62411036  1
  V  V72  1  -0.00040083  -0.00143836  0.00076670  1
  V  V73  1  0.25057421  0.12458691  0.87455494  1
  V  V74  1  0.74981422  0.74957264  -0.00008013  1
  V  V75  1  0.37641973  0.00091060  0.37520405  1
  V  V76  1  0.87441896  0.37348946  -0.00019214  1
  V  V77  1  0.12668544  -0.00167351  0.12458391  1
  V  V78  1  0.12374566  0.24987281  0.87610012  1
  V  V79  1  0.24659119  0.62617515  0.87398603  1
  V  V80  1  0.37418119  0.37577140  0.49997515  1
  V  V81  1  0.00008748  0.62312241  0.12400392  1
  V  V82  1  -0.00046056  0.37291693  0.37586458  1
  V  V83  1  0.87592059  0.62378948  0.24960563  1
  V  V84  1  0.25196077  0.12448337  0.37534349  1
  V  V85  1  0.37609801  0.87597917  0.50006635  1
  V  V86  1  0.37514264  0.25014529  0.12426663  1
  V  V87  1  0.50050731  -0.00033759  0.00014438  1
  V  V88  1  0.37360483  0.62623574  0.74997646  1
  V  V89  1  0.00033170  0.12409475  0.12628927  1
  V  V90  1  0.62522470  0.12532743  0.50180718  1
  V  V91  1  0.62390373  0.49919853  0.12408027  1
  V  V92  1  0.62343534  0.37775531  0.74933399  1
  V  V93  1  0.75143090  -0.00061970  0.25175796  1
  V  V94  1  0.12619689  0.74989548  0.37382212  1
  V  V95  1  0.12721680  0.87432930  0.24850317  1
  Zn  Zn96  1  0.87640350  0.12362251  0.25204694  1
  Zn  Zn97  1  0.12341437  0.75106270  0.87447554  1
  Zn  Zn98  1  0.49785533  0.62565499  0.12462783  1
  Zn  Zn99  1  0.74898464  0.24802984  0.00061170  1
  Zn  Zn100  1  0.74847209  0.50108911  0.74982601  1
  Zn  Zn101  1  0.62723471  0.87151285  0.25306963  1
  Zn  Zn102  1  0.87326866  0.24999409  0.62900787  1
  Zn  Zn103  1  0.12381646  0.50180679  0.62473307  1
  Zn  Zn104  1  0.62587508  0.75017601  0.37742696  1
  Zn  Zn105  1  0.24708847  0.50263844  0.74772957  1
  Zn  Zn106  1  0.50039624  0.12694375  0.62613358  1
  Zn  Zn107  1  0.62666864  0.12647239  -0.00064838  1
  Zn  Zn108  1  0.74855183  0.75243510  0.49774847  1
  Zn  Zn109  1  0.74892244  0.12711460  0.87662660  1
  Zn  Zn110  1  0.87682932  -0.00038541  0.37529924  1
  Zn  Zn111  1  0.00126419  0.87523618  0.87580406  1
  Zn  Zn112  1  0.75017536  0.87424361  0.12816318  1
  Zn  Zn113  1  0.74792914  0.62299513  0.87386323  1
  Zn  Zn114  1  0.87307008  0.12782942  0.75231017  1
  Zn  Zn115  1  0.25235991  -0.00128087  0.24889786  1
  Zn  Zn116  1  0.37561356  0.00086917  0.87507872  1
  Zn  Zn117  1  0.49588289  0.50315096  0.00132951  1
  Zn  Zn118  1  -0.00397505  0.24926776  0.75144510  1
  Zn  Zn119  1  0.62546009  0.37428582  0.24933389  1
  Zn  Zn120  1  0.37639439  0.74926349  0.12331034  1
  Zn  Zn121  1  0.87441952  0.87568113  0.49663772  1
  Zn  Zn122  1  0.24979162  0.37450279  0.12528205  1
  Zn  Zn123  1  0.62576814  0.74862718  0.87471290  1
  Zn  Zn124  1  0.00090913  0.62363859  0.62326660  1
  Zn  Zn125  1  0.62622638  0.62715295  0.50050231  1
  Zn  Zn126  1  0.37590287  0.87378265  0.00059866  1
  Zn  Zn127  1  0.12291878  0.62499094  -0.00202307  1
  Zn  Zn128  1  0.18889823  0.18626170  0.18797540  1
  Zn  Zn129  1  0.18601997  0.18923863  0.68839370  1
  Zn  Zn130  1  0.18748252  0.68555300  0.18516061  1
  Zn  Zn131  1  0.18611525  0.68810617  0.68495871  1
  Zn  Zn132  1  0.68760222  0.18570954  0.18857759  1
  Zn  Zn133  1  0.68770433  0.18814522  0.69007531  1
  Zn  Zn134  1  0.68701717  0.68573392  0.18806133  1
  Zn  Zn135  1  0.68716264  0.68860188  0.68666832  1
  Zn  Zn136  1  0.31284792  0.31210703  0.31199673  1
  Zn  Zn137  1  0.30969850  0.31356459  0.81303257  1
  Zn  Zn138  1  0.31513428  0.81288112  0.31127998  1
  Zn  Zn139  1  0.31407428  0.81374626  0.81332383  1
  Zn  Zn140  1  0.81205605  0.31110807  0.31142826  1
  Zn  Zn141  1  0.81132981  0.31319618  0.80931112  1
  Zn  Zn142  1  0.81569655  0.81351670  0.31171596  1
  Zn  Zn143  1  0.81223629  0.81438008  0.81439734  1
  Zn  Zn144  1  0.18669871  0.43769192  0.43697234  1
  Zn  Zn145  1  0.18721405  0.43805203  0.93826192  1
  Zn  Zn146  1  0.18816678  0.93850357  0.43669826  1
  Zn  Zn147  1  0.18687147  0.93630567  0.93526652  1
  Zn  Zn148  1  0.68646404  0.43870041  0.43832090  1
  Zn  Zn149  1  0.68947756  0.43729679  0.93682136  1
  Zn  Zn150  1  0.68739590  0.93570354  0.43834149  1
  Zn  Zn151  1  0.68768763  0.93646930  0.93881207  1
  Zn  Zn152  1  0.31426111  0.06101958  0.06225644  1
  Zn  Zn153  1  0.31400066  0.06383221  0.56353220  1
  Zn  Zn154  1  0.31056918  0.56372113  0.06319831  1
  Zn  Zn155  1  0.31132411  0.56220876  0.56257141  1
  Zn  Zn156  1  0.81012311  0.06617665  0.06184662  1
  Zn  Zn157  1  0.81413498  0.06024603  0.56126747  1
  Zn  Zn158  1  0.81202797  0.56169983  0.06132974  1
  Zn  Zn159  1  0.81340907  0.56136446  0.56266568  1
  Zn  Zn160  1  0.43791783  0.43653352  0.18645890  1
  Zn  Zn161  1  0.43471480  0.44022777  0.68846313  1
  Zn  Zn162  1  0.43596784  0.93414731  0.18769644  1
  Zn  Zn163  1  0.43815062  0.93988503  0.68762481  1
  Zn  Zn164  1  0.93800458  0.43508277  0.18753114  1
  Zn  Zn165  1  0.93774839  0.43770609  0.68578774  1
  Zn  Zn166  1  0.93741651  0.93628727  0.18776241  1
  Zn  Zn167  1  0.93709226  0.93826591  0.68866994  1
  Zn  Zn168  1  0.06547410  0.06075905  0.31177400  1
  Zn  Zn169  1  0.06234556  0.06111266  0.81328763  1
  Zn  Zn170  1  0.06282678  0.56102004  0.31272601  1
  Zn  Zn171  1  0.06025155  0.56186441  0.81151124  1
  Zn  Zn172  1  0.56383162  0.06327908  0.31363841  1
  Zn  Zn173  1  0.56256853  0.06505312  0.81098877  1
  Zn  Zn174  1  0.56406034  0.56303398  0.31136458  1
  Zn  Zn175  1  0.56010723  0.56346124  0.81296257  1
  Zn  Zn176  1  0.43881865  0.18782537  0.43863878  1
  Zn  Zn177  1  0.43858691  0.18785614  0.93721077  1
  Zn  Zn178  1  0.43728051  0.68738141  0.43618102  1
  Zn  Zn179  1  0.43647396  0.68824499  0.93668743  1
  Zn  Zn180  1  0.93571120  0.18547224  0.43940571  1
  Zn  Zn181  1  0.93822640  0.18706428  0.94020536  1
  Zn  Zn182  1  0.93829461  0.68711732  0.43667742  1
  Zn  Zn183  1  0.93638609  0.68640572  0.93589117  1
  Zn  Zn184  1  0.06184041  0.31194071  0.06325986  1
  Zn  Zn185  1  0.06159384  0.31129177  0.56359435  1
  Zn  Zn186  1  0.06383460  0.81139908  0.06093871  1
  Zn  Zn187  1  0.06278863  0.81194668  0.56242844  1
  Zn  Zn188  1  0.55985330  0.31515228  0.06067063  1
  Zn  Zn189  1  0.56177275  0.31361673  0.56239120  1
  Zn  Zn190  1  0.56386256  0.81273462  0.06580323  1
  Zn  Zn191  1  0.56593430  0.81161024  0.56084601  1
  O  O192  1  0.12121853  0.11869192  0.11957542  1
  O  O193  1  0.11852739  0.12004293  0.62027790  1
  O  O194  1  0.11698219  0.61659672  0.12390227  1
  O  O195  1  0.12237156  0.62363261  0.61522394  1
  O  O196  1  0.61799733  0.11400553  0.12540978  1
  O  O197  1  0.62388478  0.11915126  0.61955594  1
  O  O198  1  0.62565007  0.61479803  0.11652219  1
  O  O199  1  0.61720872  0.61938559  0.62498979  1
  O  O200  1  0.38000755  0.38013953  0.38047084  1
  O  O201  1  0.37742597  0.38093247  0.87973427  1
  O  O202  1  0.38054389  0.88096131  0.38152836  1
  O  O203  1  0.38882399  0.87847783  0.87581131  1
  O  O204  1  0.88017517  0.37892231  0.38034925  1
  O  O205  1  0.88047711  0.37969677  0.87938987  1
  O  O206  1  0.88670819  0.87667108  0.37616546  1
  O  O207  1  0.87617640  0.88586497  0.88247396  1
  O  O208  1  0.25821284  0.00683669  0.37442714  1
  O  O209  1  0.25203910  0.00658152  0.86851054  1
  O  O210  1  0.25547778  0.50477029  0.36912959  1
  O  O211  1  0.25366776  0.51159964  0.87420150  1
  O  O212  1  0.74892269  0.00518537  0.36634092  1
  O  O213  1  0.75811937  -0.00066149  0.87110327  1
  O  O214  1  0.75602889  0.50600365  0.36941099  1
  O  O215  1  0.75892154  0.50219867  0.87098529  1
  O  O216  1  0.24227649  0.49828971  0.13208464  1
  O  O217  1  0.24638613  0.49254056  0.62653617  1
  O  O218  1  0.24443781  0.99210622  0.12440377  1
  O  O219  1  0.24499627  0.99549828  0.62971982  1
  O  O220  1  0.74351403  0.49451370  0.12932632  1
  O  O221  1  0.74207754  0.49411607  0.62536796  1
  O  O222  1  0.74134581  1.00097607  0.13368068  1
  O  O223  1  0.74545681  0.99496478  0.63158689  1
  O  O224  1  0.00540877  0.36788175  0.25668810  1
  O  O225  1  0.00834278  0.37395691  0.75620864  1
  O  O226  1  0.00777753  0.86819384  0.25377258  1
  O  O227  1  0.00542822  0.86631883  0.74991291  1
  O  O228  1  0.50114314  0.36815978  0.25679019  1
  O  O229  1  0.50287245  0.37166469  0.75582590  1
  O  O230  1  0.49936608  0.86508170  0.25690966  1
  O  O231  1  0.50537206  0.87221131  0.75700332  1
  O  O232  1  0.49489855  0.13058146  0.24525240  1
  O  O233  1  0.49250716  0.13380387  0.74857719  1
  O  O234  1  0.49410910  0.63334220  0.25080825  1
  O  O235  1  0.49316965  0.63236658  0.74469598  1
  O  O236  1  1.00139939  0.13015898  0.24395186  1
  O  O237  1  1.00043423  0.12454301  0.73889827  1
  O  O238  1  0.99508543  0.62940673  0.24511042  1
  O  O239  1  0.99043927  0.63385600  0.74771339  1
  O  O240  1  0.37000731  0.25481883  0.00478435  1
  O  O241  1  0.36942882  0.25633881  0.50498290  1
  O  O242  1  0.36229457  0.75117380  0.00072980  1
  O  O243  1  0.36965908  0.75618954  0.50476091  1
  O  O244  1  0.87492899  0.25682002  0.00744270  1
  O  O245  1  0.86739564  0.25641825  0.50217956  1
  O  O246  1  0.86797047  0.75316138  0.00442864  1
  O  O247  1  0.87586154  0.75074031  0.51265014  1
  O  O248  1  0.13074913  0.24473931  0.49454113  1
  O  O249  1  0.13012984  0.24371270  0.99590101  1
  O  O250  1  0.13139406  0.74518222  0.49338922  1
  O  O251  1  0.13591963  0.74725261  0.99598610  1
  O  O252  1  0.62969523  0.24558341  0.49475831  1
  O  O253  1  0.62273291  0.25141824  0.98778529  1
  O  O254  1  0.63035335  0.74427317  0.49612523  1
  O  O255  1  0.63337915  0.74168621  1.00300111  1
  O  O256  1  0.49506164  0.24472247  0.12973270  1
  O  O257  1  0.49203956  0.25156015  0.63165940  1
  O  O258  1  0.49828390  0.74852654  0.13681485  1
  O  O259  1  0.49403598  0.74672657  0.63013765  1
  O  O260  1  0.99586825  0.24370229  0.13092313  1
  O  O261  1  0.99910685  0.23722500  0.62581549  1
  O  O262  1  0.99581604  0.74318322  0.12959551  1
  O  O263  1  0.99101555  0.75001219  0.63427388  1
  O  O264  1  0.00611436  0.25330245  0.37118826  1
  O  O265  1  0.00689579  0.25598854  0.87630199  1
  O  O266  1  0.00716053  0.75415072  0.36830247  1
  O  O267  1  -0.00063435  0.75185763  0.86202822  1
  O  O268  1  0.50482655  0.25556287  0.37059182  1
  O  O269  1  0.50540452  0.25816853  0.86937496  1
  O  O270  1  0.49948239  0.75513454  0.36627520  1
  O  O271  1  0.50138919  0.75976805  0.86928689  1
  O  O272  1  0.24533548  0.13105541  0.49565562  1
  O  O273  1  0.24545941  0.12936438  0.99475940  1
  O  O274  1  0.24603461  0.63112799  0.49300956  1
  O  O275  1  0.24772510  0.63302790  0.99029938  1
  O  O276  1  0.74416501  0.12976859  0.49597418  1
  O  O277  1  0.74353177  0.13043772  0.99533605  1
  O  O278  1  0.75256068  0.62534860  0.48714283  1
  O  O279  1  0.74233604  0.63337064  0.99955095  1
  O  O280  1  0.25518230  0.36738283  0.00133243  1
  O  O281  1  0.25474115  0.36964253  0.50380417  1
  O  O282  1  0.25045189  0.86621789  0.00360420  1
  O  O283  1  0.25591829  0.87019677  0.50488219  1
  O  O284  1  0.75747825  0.37297688  0.00691676  1
  O  O285  1  0.75447114  0.37015011  0.50443773  1
  O  O286  1  0.75450649  0.86473974  0.00379639  1
  O  O287  1  0.75421137  0.87318735  0.50856941  1
  O  O288  1  0.12948118  0.49323867  0.24591322  1
  O  O289  1  0.12514402  0.48819931  0.74822064  1
  O  O290  1  0.12893865  0.99232860  0.24233527  1
  O  O291  1  0.13152947  0.99498207  0.74414591  1
  O  O292  1  0.63124466  0.49947305  0.23886700  1
  O  O293  1  0.62371072  0.49536116  0.74317976  1
  O  O294  1  0.63260038  0.99969329  0.24282766  1
  O  O295  1  0.63007453  0.99513953  0.74543405  1
  O  O296  1  0.37566994  0.00689079  0.25708027  1
  O  O297  1  0.36848965  0.00785621  0.75029698  1
  O  O298  1  0.36988952  0.50409879  0.25514131  1
  O  O299  1  0.37058338  0.50857899  0.75686299  1
  O  O300  1  0.86368413  0.00137984  0.25051672  1
  O  O301  1  0.86956264  -0.00014925  0.76106010  1
  O  O302  1  0.87101869  0.50405898  0.25508948  1
  O  O303  1  0.87605835  0.51034118  0.75398437  1
  O  O304  1  0.11930350  0.36806399  0.37017298  1
  O  O305  1  0.11985677  0.37028812  0.86843127  1
  O  O306  1  0.12245481  0.86867373  0.36872539  1
  O  O307  1  0.12189830  0.87197889  0.86517555  1
  O  O308  1  0.61819319  0.36934453  0.37379459  1
  O  O309  1  0.61780992  0.37059085  0.86982401  1
  O  O310  1  0.61629751  0.87216395  0.37323071  1
  O  O311  1  0.61528993  0.87370296  0.86966546  1
  O  O312  1  0.38091743  0.13005497  0.13043951  1
  O  O313  1  0.37551855  0.13393100  0.63174802  1
  O  O314  1  0.37709676  0.62705198  0.13301971  1
  O  O315  1  0.37910075  0.63180109  0.62969186  1
  O  O316  1  0.88324507  0.13074317  0.12677040  1
  O  O317  1  0.88721649  0.12394363  0.62598825  1
  O  O318  1  0.88056494  0.62867412  0.13029652  1
  O  O319  1  0.87580101  0.63407041  0.63344474  1
  O  O320  1  0.25708490  0.24981820  0.11860670  1
  O  O321  1  0.25433205  0.25633058  0.61921076  1
  O  O322  1  0.24887814  0.75461782  0.11453239  1
  O  O323  1  0.25588772  0.75660044  0.61863438  1
  O  O324  1  0.75587218  0.25581638  0.12575302  1
  O  O325  1  0.74856599  0.25754412  0.61812823  1
  O  O326  1  0.75645057  0.74929000  0.11644494  1
  O  O327  1  0.76054850  0.75610440  0.62635953  1
  O  O328  1  0.24538463  0.24460840  0.38113798  1
  O  O329  1  0.24357396  0.24401076  0.88141908  1
  O  O330  1  0.24594272  0.74474458  0.37953732  1
  O  O331  1  0.24978412  0.74237666  0.88114133  1
  O  O332  1  0.74412104  0.24516468  0.38072279  1
  O  O333  1  0.73603206  0.25260102  0.87519219  1
  O  O334  1  0.75264212  0.73762913  0.37320177  1
  O  O335  1  0.74851689  0.74852529  0.88807257  1
  O  O336  1  0.00743949  0.11845230  0.00694859  1
  O  O337  1  0.00696876  0.11938283  0.50772432  1
  O  O338  1  -0.00020680  0.61804669  0.00569488  1
  O  O339  1  0.00651776  0.61818377  0.49844623  1
  O  O340  1  0.50237648  0.11570539  0.00586309  1
  O  O341  1  0.50690744  0.11916924  0.50227086  1
  O  O342  1  0.51120541  0.62582273  0.00233382  1
  O  O343  1  0.49859990  0.61898569  0.50647150  1
  O  O344  1  0.49291976  0.38128582  0.49433773  1
  O  O345  1  0.49058688  0.37864444  0.99272430  1
  O  O346  1  0.49448770  0.88085490  0.49592867  1
  O  O347  1  0.50141832  0.88154393  0.99258035  1
  O  O348  1  0.99495177  0.37825038  0.49396063  1
  O  O349  1  0.99440331  0.38001615  0.99498131  1
  O  O350  1  1.00253345  0.88084792  0.49320721  1
  O  O351  1  0.99350842  0.88058964  0.99919545  1
  O  O352  1  0.49445603  0.49547692  0.37893758  1
  O  O353  1  0.49088459  0.49574533  0.87726260  1
  O  O354  1  0.49555824  0.99531608  0.38150463  1
  O  O355  1  0.50228104  0.99262152  0.88332737  1
  O  O356  1  0.99436558  0.49251149  0.37908161  1
  O  O357  1  0.99409182  0.49390453  0.88067163  1
  O  O358  1  1.00298803  0.99337157  0.38083696  1
  O  O359  1  0.99093653  0.99897223  0.88234770  1
  O  O360  1  0.00670205  0.00391345  0.12023702  1
  O  O361  1  0.00663848  0.00633623  0.62052263  1
  O  O362  1  0.00389330  0.50390080  0.12023395  1
  O  O363  1  0.00181875  0.50240413  0.61489977  1
  O  O364  1  0.50666707  0.00319647  0.11956374  1
  O  O365  1  0.50764066  0.00199938  0.61904186  1
  O  O366  1  0.51183425  0.50154804  0.12324580  1
  O  O367  1  0.50260980  0.50642303  0.61944178  1
  O  O368  1  0.24327336  0.38056795  0.24974778  1
  O  O369  1  0.23920065  0.37639839  0.74523244  1
  O  O370  1  0.24460096  0.87462048  0.24246543  1
  O  O371  1  0.24640011  0.88022597  0.74365508  1
  O  O372  1  0.74861176  0.38166311  0.24314486  1
  O  O373  1  0.74114098  0.37808942  0.74191837  1
  O  O374  1  0.74814595  0.88529695  0.24880831  1
  O  O375  1  0.74438680  0.88107182  0.74569595  1
  O  O376  1  0.25795630  0.12375189  0.25742225  1
  O  O377  1  0.25390593  0.12093754  0.75512299  1
  O  O378  1  0.25454077  0.61905897  0.25552786  1
  O  O379  1  0.25468212  0.62756207  0.75839657  1
  O  O380  1  0.75035853  0.11488737  0.25686283  1
  O  O381  1  0.75174212  0.11645543  0.75472351  1
  O  O382  1  0.75702540  0.61863428  0.25650039  1
  O  O383  1  0.76192483  0.62569690  0.75169041  1
  O  O384  1  0.37137089  0.12064739  0.37099472  1
  O  O385  1  0.36833012  0.12483726  0.86839134  1
  O  O386  1  0.36871813  0.61852680  0.36936359  1
  O  O387  1  0.36592464  0.62200595  0.86960034  1
  O  O388  1  0.86669917  0.12154780  0.37297886  1
  O  O389  1  0.87441207  0.11165375  0.87714596  1
  O  O390  1  0.86948544  0.61838368  0.36877319  1
  O  O391  1  0.87453308  0.61910300  0.86460732  1
  O  O392  1  0.12540233  0.38033500  0.13256169  1
  O  O393  1  0.12930084  0.37443132  0.63390809  1
  O  O394  1  0.13104381  0.87899829  0.12935766  1
  O  O395  1  0.13175500  0.88047113  0.62962184  1
  O  O396  1  0.63042199  0.38497705  0.12385937  1
  O  O397  1  0.62789842  0.38189199  0.62959026  1
  O  O398  1  0.62665253  0.88805140  0.12941748  1
  O  O399  1  0.63091943  0.88142376  0.63107806  1
  O  O400  1  0.12028029  0.25374545  0.25604777  1
  O  O401  1  0.12264260  0.26008346  0.75719099  1
  O  O402  1  0.12054474  0.75373263  0.25448623  1
  O  O403  1  0.11460965  0.75548279  0.74737093  1
  O  O404  1  0.61799072  0.25077036  0.25673719  1
  O  O405  1  0.61768161  0.25804134  0.75706355  1
  O  O406  1  0.61419717  0.74973645  0.25247602  1
  O  O407  1  0.61840323  0.75709870  0.75124232  1
  O  O408  1  0.38098012  0.24434066  0.24498064  1
  O  O409  1  0.37795719  0.24700967  0.74536090  1
  O  O410  1  0.38429019  0.74289241  0.25020495  1
  O  O411  1  0.38057313  0.74647615  0.74352750  1
  O  O412  1  0.88282070  0.24803556  0.24386668  1
  O  O413  1  0.87860895  0.24546062  0.74714206  1
  O  O414  1  0.88234481  0.74350175  0.24355241  1
  O  O415  1  0.88135852  0.74485979  0.74365407  1
  O  O416  1  0.37949508  0.49490866  0.49335013  1
  O  O417  1  0.37373870  0.49483448  0.99383625  1
  O  O418  1  0.38090389  0.99539511  0.49575713  1
  O  O419  1  0.38938743  0.99782513  0.99863483  1
  O  O420  1  0.88053605  0.49317412  0.49335863  1
  O  O421  1  0.88062965  0.49376639  0.99480063  1
  O  O422  1  0.88538550  0.99629879  0.49727134  1
  O  O423  1  0.87895349  0.99478173  0.99532698  1
  O  O424  1  0.12021406  0.00470870  0.00465772  1
  O  O425  1  0.12136332  0.00577271  0.50611558  1
  O  O426  1  0.11720823  0.50045927  0.00646766  1
  O  O427  1  0.11844691  0.50590472  0.49829953  1
  O  O428  1  0.61613539  -0.00033436  0.00944809  1
  O  O429  1  0.62057777  0.00579901  0.50623025  1
  O  O430  1  0.62628351  0.50883710  0.00808619  1
  O  O431  1  0.61670764  0.50263677  0.50651415  1
  O  O432  1  0.37319029  0.36785365  0.11864585  1
  O  O433  1  0.36837836  0.37099809  0.61949005  1
  O  O434  1  0.36608746  0.87082877  0.12149976  1
  O  O435  1  0.37009296  0.87090808  0.61975945  1
  O  O436  1  0.87095542  0.36902141  0.11952423  1
  O  O437  1  0.86757750  0.37438608  0.61787156  1
  O  O438  1  0.87379812  0.86653648  0.11929766  1
  O  O439  1  0.87002256  0.86591220  0.62638487  1
  O  O440  1  0.13164001  0.12992567  0.38105450  1
  O  O441  1  0.13040912  0.12941064  0.88099444  1
  O  O442  1  0.13120180  0.63060885  0.37848241  1
  O  O443  1  0.13485633  0.62724558  0.87422882  1
  O  O444  1  0.63043530  0.13128374  0.38218655  1
  O  O445  1  0.62326464  0.13943643  0.87502462  1
  O  O446  1  0.63887385  0.62403553  0.37517956  1
  O  O447  1  0.62648579  0.62672010  0.88613502  1
