# generated using pymatgen
data_V3Zn3O8
_symmetry_space_group_name_H-M   'P 1'
_cell_length_a   17.08936701
_cell_length_b   17.08778355
_cell_length_c   17.08832115
_cell_angle_alpha   90.00955921
_cell_angle_beta   89.99723757
_cell_angle_gamma   90.00509812
_symmetry_Int_Tables_number   1
_chemical_formula_structural   V3Zn3O8
_chemical_formula_sum   'V96 Zn96 O256'
_cell_volume   4990.12127030
_cell_formula_units_Z   32
loop_
 _symmetry_equiv_pos_site_id
 _symmetry_equiv_pos_as_xyz
  1  'x, y, z'
loop_
 _atom_site_type_symbol
 _atom_site_label
 _atom_site_symmetry_multiplicity
 _atom_site_fract_x
 _atom_site_fract_y
 _atom_site_fract_z
 _atom_site_occupancy
  V  V0  1  0.62396070  0.12452989  -0.00121855  1
  V  V1  1  0.87591908  0.75006242  0.12513094  1
  V  V2  1  0.62546355  0.37653188  0.24990800  1
  V  V3  1  0.50110459  0.62539974  0.62619309  1
  V  V4  1  0.00052324  0.75068908  0.24972355  1
  V  V5  1  0.00004501  0.25144160  0.74940375  1
  V  V6  1  0.37458952  0.87449436  0.50104498  1
  V  V7  1  0.75011041  0.37561949  0.62472844  1
  V  V8  1  0.37569072  0.62452709  0.75026265  1
  V  V9  1  0.12515002  0.62487312  0.00038150  1
  V  V10  1  0.24893492  0.24937937  -0.00130428  1
  V  V11  1  0.12575777  0.12623666  0.49890110  1
  V  V12  1  0.75034651  0.12481143  0.37367087  1
  V  V13  1  0.37458434  0.00104616  0.37453906  1
  V  V14  1  0.24972704  0.74964708  0.00039046  1
  V  V15  1  -0.00013694  0.87723125  0.87525615  1
  V  V16  1  0.00151111  0.50116794  0.50038094  1
  V  V17  1  0.12618759  0.25005781  0.37589897  1
  V  V18  1  0.87594442  0.62540549  0.74978030  1
  V  V19  1  0.00100305  0.37567191  0.37511906  1
  V  V20  1  0.62549553  0.12464786  0.49959064  1
  V  V21  1  0.62591763  -0.00067439  0.62561777  1
  V  V22  1  -0.00179230  0.24825442  0.24726346  1
  V  V23  1  0.37423775  0.49958453  0.37635830  1
  V  V24  1  0.49927874  0.74968893  0.25036602  1
  V  V25  1  0.24993277  0.37537554  0.12471657  1
  V  V26  1  0.50004454  0.12438806  0.62538271  1
  V  V27  1  0.12507036  0.49970785  0.12468478  1
  V  V28  1  0.74879494  0.37599704  0.12467172  1
  V  V29  1  0.12498308  -0.00039147  0.62470575  1
  V  V30  1  0.37487752  0.49966061  0.87519747  1
  V  V31  1  0.62523879  0.25047537  0.37497675  1
  V  V32  1  0.25096411  0.37460268  0.62398902  1
  V  V33  1  0.75094518  0.74975187  0.00056472  1
  V  V34  1  0.37475814  0.87344311  0.00066242  1
  V  V35  1  0.75096855  0.25024751  0.49894101  1
  V  V36  1  0.49865767  -0.00160104  -0.00042401  1
  V  V37  1  0.50053407  0.37316652  0.87414508  1
  V  V38  1  0.00030331  0.87577806  0.37504056  1
  V  V39  1  0.87453127  0.00075160  0.37330861  1
  V  V40  1  0.74894829  0.00031312  0.24991934  1
  V  V41  1  0.87545532  0.25052407  0.62376234  1
  V  V42  1  0.00037925  0.74920591  0.75035052  1
  V  V43  1  0.50066238  0.74976591  0.75109508  1
  V  V44  1  0.62447536  -0.00092788  0.12539870  1
  V  V45  1  0.74990351  0.87558571  0.62632176  1
  V  V46  1  0.25130808  0.49994703  0.75061432  1
  V  V47  1  0.12267629  0.00330001  0.12369788  1
  V  V48  1  0.62483695  0.87473229  0.24981371  1
  V  V49  1  0.12557501  0.37608643  0.24942450  1
  V  V50  1  0.62493584  0.74907235  0.37543339  1
  V  V51  1  0.37510700  0.37498186  -0.00004149  1
  V  V52  1  0.37469610  0.12325230  0.74914200  1
  V  V53  1  0.49969677  0.37507074  0.37671857  1
  V  V54  1  0.50012185  0.87385850  0.87574619  1
  V  V55  1  0.62533086  0.62526323  0.50054432  1
  V  V56  1  0.62425915  0.37388397  0.75052863  1
  V  V57  1  0.37465019  0.24925793  0.12506817  1
  V  V58  1  0.74717644  0.24867929  -0.00306066  1
  V  V59  1  0.24998117  0.87505965  0.62565193  1
  V  V60  1  0.62436088  0.62375014  0.00158033  1
  V  V61  1  0.24897366  -0.00085238  0.74970651  1
  V  V62  1  0.00020275  0.00008701  0.49909221  1
  V  V63  1  0.12509251  0.37510390  0.75016175  1
  V  V64  1  0.12513687  0.74932211  0.87622046  1
  V  V65  1  0.75013418  0.74988063  0.49915391  1
  V  V66  1  0.00000153  0.12518480  0.62414719  1
  V  V67  1  0.62501649  0.75007295  0.87556221  1
  V  V68  1  0.49832234  0.12474261  0.12454182  1
  V  V69  1  -0.00003066  0.37507378  0.87365185  1
  V  V70  1  0.37427278  0.74974191  0.12573267  1
  V  V71  1  0.87606999  0.37603331  0.49955817  1
  V  V72  1  0.37492930  0.12478897  0.24973704  1
  V  V73  1  0.75033537  0.62490859  0.87552379  1
  V  V74  1  0.87455589  0.62460511  0.25055241  1
  V  V75  1  0.75029791  0.49997245  0.75017974  1
  V  V76  1  0.24980819  0.00078077  0.25060229  1
  V  V77  1  0.87347930  0.37475406  -0.00028226  1
  V  V78  1  0.37399543  0.62461256  0.25079858  1
  V  V79  1  0.87236908  0.12265747  0.75101343  1
  V  V80  1  0.25011692  0.75007994  0.50092825  1
  V  V81  1  0.62532638  0.50082056  0.62467413  1
  V  V82  1  0.87494119  0.50013621  0.87528297  1
  V  V83  1  0.49966738  0.87491881  0.37580345  1
  V  V84  1  0.37587919  0.24984332  0.62403785  1
  V  V85  1  0.87555847  0.87742887  0.00057524  1
  V  V86  1  0.50036570  0.50012382  0.00127812  1
  V  V87  1  0.00057181  0.62544373  0.62507711  1
  V  V88  1  0.12542369  0.62557371  0.50020887  1
  V  V89  1  0.00025787  0.49997121  -0.00003731  1
  V  V90  1  0.12559980  0.87606922  0.24984599  1
  V  V91  1  0.87486268  0.87446316  0.49954312  1
  V  V92  1  0.24789588  0.12461711  0.87551837  1
  V  V93  1  0.12600700  0.75012159  0.37526890  1
  V  V94  1  0.49996644  -0.00049691  0.50009756  1
  V  V95  1  0.87500687  0.50090771  0.37433917  1
  Zn  Zn96  1  0.74878901  -0.00105835  0.75356460  1
  Zn  Zn97  1  -0.00367336  0.12714604  0.11979849  1
  Zn  Zn98  1  0.87464637  0.24784550  0.12455205  1
  Zn  Zn99  1  0.74847655  0.62334679  0.37475629  1
  Zn  Zn100  1  0.12329754  0.24964116  0.87584843  1
  Zn  Zn101  1  0.24912879  0.87563854  0.12470332  1
  Zn  Zn102  1  0.62550878  0.87617049  0.75183342  1
  Zn  Zn103  1  0.25155461  0.12754966  0.37658278  1
  Zn  Zn104  1  0.62189527  0.24669703  0.87189463  1
  Zn  Zn105  1  0.74998760  0.50127306  0.25053537  1
  Zn  Zn106  1  0.50120384  0.62316956  0.12549365  1
  Zn  Zn107  1  0.87564210  0.75009614  0.62446817  1
  Zn  Zn108  1  0.62305844  0.50207524  0.12651515  1
  Zn  Zn109  1  -0.00074770  0.00592579  -0.00050573  1
  Zn  Zn110  1  0.12658795  0.50062296  0.62473985  1
  Zn  Zn111  1  0.12496271  0.87426712  0.75026619  1
  Zn  Zn112  1  0.37536032  0.74974445  0.62599272  1
  Zn  Zn113  1  0.25057924  0.24949352  0.49812360  1
  Zn  Zn114  1  0.87456959  0.12496003  0.24684984  1
  Zn  Zn115  1  0.12100065  0.12730111  -0.00021126  1
  Zn  Zn116  1  0.87337583  0.00250636  0.87654119  1
  Zn  Zn117  1  0.37530914  0.37505172  0.49969083  1
  Zn  Zn118  1  0.24949571  0.62389385  0.37685772  1
  Zn  Zn119  1  0.74658085  0.12150945  0.87333815  1
  Zn  Zn120  1  0.00092982  0.62468430  0.12462430  1
  Zn  Zn121  1  0.37401684  -0.00202248  0.87545299  1
  Zn  Zn122  1  0.24853474  0.50041286  0.25058309  1
  Zn  Zn123  1  0.74984355  0.87553159  0.12537211  1
  Zn  Zn124  1  0.49897105  0.24921736  0.24942514  1
  Zn  Zn125  1  0.50009101  0.50063642  0.50205540  1
  Zn  Zn126  1  0.50187336  0.24818354  0.75115923  1
  Zn  Zn127  1  0.25031627  0.62494302  0.87431719  1
  Zn  Zn128  1  0.18757082  0.18702046  0.18820791  1
  Zn  Zn129  1  0.18701085  0.18776938  0.68810947  1
  Zn  Zn130  1  0.18858558  0.68684846  0.18665436  1
  Zn  Zn131  1  0.18729656  0.68784407  0.68789688  1
  Zn  Zn132  1  0.68581218  0.18798010  0.18634096  1
  Zn  Zn133  1  0.68733869  0.18846367  0.68624444  1
  Zn  Zn134  1  0.68857953  0.68817981  0.18632975  1
  Zn  Zn135  1  0.68768336  0.68897852  0.68777410  1
  Zn  Zn136  1  0.31138422  0.31167052  0.31056255  1
  Zn  Zn137  1  0.31357045  0.31083503  0.81147208  1
  Zn  Zn138  1  0.31079741  0.81359544  0.31338867  1
  Zn  Zn139  1  0.31287891  0.81162030  0.81319479  1
  Zn  Zn140  1  0.81347595  0.31330532  0.31234800  1
  Zn  Zn141  1  0.81218589  0.31098941  0.81268209  1
  Zn  Zn142  1  0.81129070  0.81275644  0.31246080  1
  Zn  Zn143  1  0.81407727  0.81147699  0.81291968  1
  Zn  Zn144  1  0.18823107  0.43737842  0.43826170  1
  Zn  Zn145  1  0.18725712  0.43729747  0.93660930  1
  Zn  Zn146  1  0.18843643  0.93836227  0.43754208  1
  Zn  Zn147  1  0.18708462  0.93729288  0.93932278  1
  Zn  Zn148  1  0.68899726  0.44008961  0.43741796  1
  Zn  Zn149  1  0.68475374  0.43758200  0.93666079  1
  Zn  Zn150  1  0.68760471  0.93680654  0.43753227  1
  Zn  Zn151  1  0.68884838  0.93881153  0.93650883  1
  Zn  Zn152  1  0.31043867  0.06112546  0.06246669  1
  Zn  Zn153  1  0.31107498  0.06250456  0.56159025  1
  Zn  Zn154  1  0.31150657  0.56285132  0.06295371  1
  Zn  Zn155  1  0.31385515  0.56313988  0.56275504  1
  Zn  Zn156  1  0.81241695  0.06421490  0.06540456  1
  Zn  Zn157  1  0.81282689  0.06148446  0.56219605  1
  Zn  Zn158  1  0.81226133  0.56230174  0.06401599  1
  Zn  Zn159  1  0.81335100  0.56377055  0.56219544  1
  Zn  Zn160  1  0.43781803  0.43798668  0.18766418  1
  Zn  Zn161  1  0.43878866  0.43786786  0.68897048  1
  Zn  Zn162  1  0.43673880  0.93663665  0.18680377  1
  Zn  Zn163  1  0.43693965  0.93670673  0.68903529  1
  Zn  Zn164  1  0.93771330  0.43655719  0.18613367  1
  Zn  Zn165  1  0.93812417  0.43944727  0.68658170  1
  Zn  Zn166  1  0.93813382  0.93852635  0.18718331  1
  Zn  Zn167  1  0.93732011  0.93737205  0.68720847  1
  Zn  Zn168  1  0.06368821  0.06463840  0.31181653  1
  Zn  Zn169  1  0.06190910  0.06211300  0.81076180  1
  Zn  Zn170  1  0.06195547  0.56360533  0.31259110  1
  Zn  Zn171  1  0.06467179  0.56199693  0.81235687  1
  Zn  Zn172  1  0.56172774  0.06261482  0.31164726  1
  Zn  Zn173  1  0.56250274  0.06045782  0.81245620  1
  Zn  Zn174  1  0.56110725  0.56229704  0.31376653  1
  Zn  Zn175  1  0.56232359  0.56151511  0.81401368  1
  Zn  Zn176  1  0.43801150  0.18760076  0.43791127  1
  Zn  Zn177  1  0.43599535  0.18667382  0.93662958  1
  Zn  Zn178  1  0.43801751  0.68712838  0.43924319  1
  Zn  Zn179  1  0.43739167  0.68618107  0.93783670  1
  Zn  Zn180  1  0.93837543  0.18731152  0.43471902  1
  Zn  Zn181  1  0.93622678  0.18906652  0.93691617  1
  Zn  Zn182  1  0.93788869  0.68799882  0.43704370  1
  Zn  Zn183  1  0.93883904  0.68809532  0.93790602  1
  Zn  Zn184  1  0.06376492  0.31295673  0.06127256  1
  Zn  Zn185  1  0.06411894  0.31267032  0.56254677  1
  Zn  Zn186  1  0.06270493  0.81381375  0.06368708  1
  Zn  Zn187  1  0.06340336  0.81191643  0.56332268  1
  Zn  Zn188  1  0.56151431  0.31173710  0.06211365  1
  Zn  Zn189  1  0.56288411  0.31216377  0.56261860  1
  Zn  Zn190  1  0.56151181  0.81063507  0.06368239  1
  Zn  Zn191  1  0.56313757  0.81133209  0.56367038  1
  O  O192  1  0.12315832  0.11460107  0.12470129  1
  O  O193  1  0.11845400  0.11992187  0.61998759  1
  O  O194  1  0.12339559  0.61795070  0.11899800  1
  O  O195  1  0.11834596  0.62332981  0.61822709  1
  O  O196  1  0.61814341  0.11900209  0.11946741  1
  O  O197  1  0.62033645  0.12029243  0.61800973  1
  O  O198  1  0.62330769  0.62241365  0.11806986  1
  O  O199  1  0.62109620  0.61966673  0.62092239  1
  O  O200  1  0.38364095  0.38161314  0.37348404  1
  O  O201  1  0.37992196  0.37975902  0.88026489  1
  O  O202  1  0.38098556  0.88114322  0.38070356  1
  O  O203  1  0.38233120  0.87483328  0.88295252  1
  O  O204  1  0.88118754  0.38053547  0.38093952  1
  O  O205  1  0.87935815  0.38130859  0.87934556  1
  O  O206  1  0.88066933  0.88096331  0.37979744  1
  O  O207  1  0.88391892  0.87319359  0.88405685  1
  O  O208  1  0.25746002  0.00179875  0.36895848  1
  O  O209  1  0.25025402  0.00824609  0.86939645  1
  O  O210  1  0.26223313  0.50004365  0.37275820  1
  O  O211  1  0.25749861  0.50001050  0.86836485  1
  O  O212  1  0.75420390  0.00532689  0.37042070  1
  O  O213  1  0.75560711  0.00323973  0.87091773  1
  O  O214  1  0.75943283  0.50229367  0.37185253  1
  O  O215  1  0.75555474  0.50501245  0.86975519  1
  O  O216  1  0.24352264  0.49261501  0.12629099  1
  O  O217  1  0.25194474  0.48906586  0.63106519  1
  O  O218  1  0.24038582  0.99855367  0.13205679  1
  O  O219  1  0.24413436  0.99495844  0.62975810  1
  O  O220  1  0.74698447  0.48664131  0.12595807  1
  O  O221  1  0.74589343  0.49465600  0.63062530  1
  O  O222  1  0.74160675  0.99784307  0.13181562  1
  O  O223  1  0.74477651  0.98970662  0.62312852  1
  O  O224  1  0.00543588  0.36826670  0.25569590  1
  O  O225  1  0.00411367  0.37125292  0.75356684  1
  O  O226  1  0.00526481  0.86993953  0.25662134  1
  O  O227  1  -0.00101674  0.86910246  0.75980669  1
  O  O228  1  0.50832965  0.37375606  0.25974506  1
  O  O229  1  0.50688706  0.37389850  0.75625740  1
  O  O230  1  0.50460570  0.86973211  0.25674920  1
  O  O231  1  0.50150160  0.86809717  0.75710995  1
  O  O232  1  0.49369671  0.12596306  0.24256021  1
  O  O233  1  0.49307914  0.12464580  0.74235966  1
  O  O234  1  0.48940753  0.63076564  0.25058119  1
  O  O235  1  0.49594806  0.62957392  0.74590583  1
  O  O236  1  0.99940778  0.13886504  0.25051974  1
  O  O237  1  0.99222224  0.13078743  0.74338517  1
  O  O238  1  0.98997933  0.63183091  0.24892245  1
  O  O239  1  0.99523216  0.62886701  0.74565089  1
  O  O240  1  0.36872802  0.25565187  0.00571420  1
  O  O241  1  0.37359097  0.25129662  0.51245741  1
  O  O242  1  0.37015631  0.75330838  0.00589556  1
  O  O243  1  0.36882241  0.75699899  0.50119310  1
  O  O244  1  0.86342077  0.25747312  0.00050544  1
  O  O245  1  0.87086597  0.25596583  0.50380417  1
  O  O246  1  0.87107971  0.75712748  0.00466234  1
  O  O247  1  0.86902580  0.75723821  0.50030205  1
  O  O248  1  0.12440541  0.24386348  0.49356736  1
  O  O249  1  0.13408820  0.24906067  0.99644363  1
  O  O250  1  0.12986297  0.74538031  0.49425209  1
  O  O251  1  0.12937857  0.74487635  0.99634076  1
  O  O252  1  0.63166239  0.24455857  0.49514803  1
  O  O253  1  0.63253781  0.24391890  0.99950836  1
  O  O254  1  0.63003304  0.74495672  0.49437767  1
  O  O255  1  0.63087142  0.74413532  0.99530284  1
  O  O256  1  0.49227313  0.24303403  0.12531249  1
  O  O257  1  0.49154488  0.24360105  0.62500440  1
  O  O258  1  0.49233975  0.74724977  0.13332154  1
  O  O259  1  0.49989750  0.74336385  0.63283582  1
  O  O260  1  0.99956854  0.25295993  0.13666142  1
  O  O261  1  0.99400350  0.24539395  0.62922429  1
  O  O262  1  0.99390877  0.74874681  0.13254167  1
  O  O263  1  0.99863062  0.74405656  0.63179415  1
  O  O264  1  0.00549590  0.25687981  0.36781466  1
  O  O265  1  -0.00023599  0.25846687  0.86667526  1
  O  O266  1  0.00611279  0.75678581  0.36982335  1
  O  O267  1  0.00488186  0.75797398  0.87063067  1
  O  O268  1  0.50610631  0.25926472  0.37414651  1
  O  O269  1  0.50000596  0.25775094  0.87238489  1
  O  O270  1  0.50488397  0.75608982  0.37024186  1
  O  O271  1  0.50614811  0.75419511  0.87110027  1
  O  O272  1  0.24106271  0.12764072  0.49830732  1
  O  O273  1  0.24995709  0.13020124  0.98980636  1
  O  O274  1  0.24386770  0.63162622  0.49964034  1
  O  O275  1  0.24331042  0.63143308  0.99791330  1
  O  O276  1  0.74508453  0.13053544  0.49437221  1
  O  O277  1  0.74349701  0.13512495  1.00118494  1
  O  O278  1  0.74370148  0.63202651  0.49939014  1
  O  O279  1  0.74611820  0.62975111  0.99434755  1
  O  O280  1  0.25619677  0.36984423  0.00462212  1
  O  O281  1  0.25254063  0.37296247  0.51266337  1
  O  O282  1  0.25671513  0.86747001  0.00138767  1
  O  O283  1  0.25520214  0.87074773  0.50569429  1
  O  O284  1  0.75166906  0.36859598  0.00631239  1
  O  O285  1  0.75605798  0.36988031  0.50495667  1
  O  O286  1  0.76085488  0.86828172  -0.00009610  1
  O  O287  1  0.75481527  0.87038083  0.50731689  1
  O  O288  1  0.12511450  0.49401233  0.24415327  1
  O  O289  1  0.13259388  0.49312670  0.74760402  1
  O  O290  1  0.12960975  0.99565942  0.24433129  1
  O  O291  1  0.13065870  0.99805658  0.74190541  1
  O  O292  1  0.62688175  0.48792406  0.25040990  1
  O  O293  1  0.63205608  0.49490569  0.74469969  1
  O  O294  1  0.62888486  0.99414782  0.24563031  1
  O  O295  1  0.62807210  0.99685219  0.74052457  1
  O  O296  1  0.37047516  0.00459778  0.25495395  1
  O  O297  1  0.36717317  0.00646446  0.75109016  1
  O  O298  1  0.37531108  0.50802333  0.25894901  1
  O  O299  1  0.37071421  0.50466198  0.75600427  1
  O  O300  1  0.86763452  -0.00005041  0.25672575  1
  O  O301  1  0.87447417  0.01274798  0.74829391  1
  O  O302  1  0.87631674  0.50883036  0.25489753  1
  O  O303  1  0.86949951  0.50510357  0.75575879  1
  O  O304  1  0.11951791  0.37087286  0.37003687  1
  O  O305  1  0.11770547  0.37405521  0.86775198  1
  O  O306  1  0.11902412  0.87058639  0.37018112  1
  O  O307  1  0.11403344  0.86919492  0.87570822  1
  O  O308  1  0.61923313  0.37122437  0.36902281  1
  O  O309  1  0.61817792  0.37373226  0.86791773  1
  O  O310  1  0.61847278  0.86974723  0.37027580  1
  O  O311  1  0.61872427  0.86735676  0.87550498  1
  O  O312  1  0.37928648  0.12935462  0.12971408  1
  O  O313  1  0.37952077  0.13147458  0.62861275  1
  O  O314  1  0.37580297  0.62988640  0.13599826  1
  O  O315  1  0.38313016  0.62582251  0.63218579  1
  O  O316  1  0.87803987  0.13042133  0.12995705  1
  O  O317  1  0.88042630  0.13087662  0.62985863  1
  O  O318  1  0.87696295  0.63023724  0.13412919  1
  O  O319  1  0.88193597  0.62646250  0.63202271  1
  O  O320  1  0.25524346  0.25542875  0.11908772  1
  O  O321  1  0.25893761  0.25848891  0.62582155  1
  O  O322  1  0.25644373  0.75216478  0.11873856  1
  O  O323  1  0.25118897  0.75729546  0.61873473  1
  O  O324  1  0.74798739  0.26058826  0.11557960  1
  O  O325  1  0.75596126  0.25628991  0.61747577  1
  O  O326  1  0.75775105  0.75317015  0.11817414  1
  O  O327  1  0.75080450  0.76009228  0.61844281  1
  O  O328  1  0.24209851  0.24937060  0.37767224  1
  O  O329  1  0.24998308  0.24062629  0.87916229  1
  O  O330  1  0.24307406  0.74967154  0.38287892  1
  O  O331  1  0.24268168  0.74855444  0.88199860  1
  O  O332  1  0.74495709  0.24578190  0.38035247  1
  O  O333  1  0.74678842  0.24955632  0.88731736  1
  O  O334  1  0.74228017  0.74937789  0.38142662  1
  O  O335  1  0.74557811  0.74384099  0.88064281  1
  O  O336  1  0.00305826  0.12361181  0.00075245  1
  O  O337  1  0.00429996  0.11950415  0.50499964  1
  O  O338  1  0.00607837  0.61766022  0.00114869  1
  O  O339  1  0.00518903  0.62085491  0.50491624  1
  O  O340  1  0.50320094  0.11853003  0.00533303  1
  O  O341  1  0.50616370  0.11898961  0.50508825  1
  O  O342  1  0.50644245  0.61809296  0.00088920  1
  O  O343  1  0.50770386  0.62454074  0.50765181  1
  O  O344  1  0.49997660  0.37688928  0.48754136  1
  O  O345  1  0.49385964  0.37981285  0.99475229  1
  O  O346  1  0.49523097  0.88003098  0.49536202  1
  O  O347  1  0.49469412  0.87860477  0.99537570  1
  O  O348  1  0.99515776  0.38051883  0.49524429  1
  O  O349  1  0.99360588  0.37990949  0.99363615  1
  O  O350  1  0.99536909  0.88058880  0.49456596  1
  O  O351  1  0.99095279  0.87391113  0.99110277  1
  O  O352  1  0.49174306  0.49085494  0.37602399  1
  O  O353  1  0.49398525  0.49295786  0.88096747  1
  O  O354  1  0.49516138  0.99431800  0.38078051  1
  O  O355  1  0.49770833  0.99235568  0.88242479  1
  O  O356  1  0.99486821  0.49450682  0.38093086  1
  O  O357  1  0.99383760  0.49442584  0.87981361  1
  O  O358  1  0.99517835  0.99504256  0.37951870  1
  O  O359  1  0.99764381  0.98821798  0.87563560  1
  O  O360  1  0.01126144  0.00229428  0.12562596  1
  O  O361  1  0.00479969  0.00507167  0.61842605  1
  O  O362  1  0.00673366  0.49951857  0.11693498  1
  O  O363  1  0.00192411  0.50668140  0.61778143  1
  O  O364  1  0.50491725  0.00492236  0.11949196  1
  O  O365  1  0.50516837  0.00458035  0.61882045  1
  O  O366  1  0.50197358  0.50142472  0.11701338  1
  O  O367  1  0.50779662  0.50628482  0.62454193  1
  O  O368  1  0.24302758  0.37626152  0.24214539  1
  O  O369  1  0.24648934  0.37897174  0.74194492  1
  O  O370  1  0.24308708  0.88238175  0.24913300  1
  O  O371  1  0.24857122  0.88099228  0.74438097  1
  O  O372  1  0.74190178  0.37411299  0.24202969  1
  O  O373  1  0.74623952  0.38051456  0.74401326  1
  O  O374  1  0.74220050  0.88180218  0.24948179  1
  O  O375  1  0.75061921  0.87457880  0.73736069  1
  O  O376  1  0.25765023  0.11861345  0.25248071  1
  O  O377  1  0.25428950  0.11974152  0.75627040  1
  O  O378  1  0.26247555  0.62350365  0.25424257  1
  O  O379  1  0.25701573  0.61799822  0.75054471  1
  O  O380  1  0.74829808  0.11903016  0.25697578  1
  O  O381  1  0.76151800  0.12540731  0.74772621  1
  O  O382  1  0.76239123  0.62372621  0.25154928  1
  O  O383  1  0.75546911  0.61963087  0.75561957  1
  O  O384  1  0.37598305  0.11854180  0.36889626  1
  O  O385  1  0.36373910  0.12305799  0.86850976  1
  O  O386  1  0.37599330  0.61631999  0.36781201  1
  O  O387  1  0.37412470  0.61708006  0.86840299  1
  O  O388  1  0.86770930  0.11840609  0.37332743  1
  O  O389  1  0.87343030  0.12589223  0.86143514  1
  O  O390  1  0.87515775  0.62027020  0.36544935  1
  O  O391  1  0.86986192  0.61943314  0.87026360  1
  O  O392  1  0.13087996  0.38084794  0.12962276  1
  O  O393  1  0.13553919  0.37566775  0.63075726  1
  O  O394  1  0.12553085  0.88462030  0.13226681  1
  O  O395  1  0.13121932  0.88228766  0.62584113  1
  O  O396  1  0.63127729  0.37476028  0.13405951  1
  O  O397  1  0.63121367  0.38045273  0.62915420  1
  O  O398  1  0.62497588  0.88089657  0.13210590  1
  O  O399  1  0.63515940  0.88054142  0.62409146  1
  O  O400  1  0.11775541  0.25655708  0.25519722  1
  O  O401  1  0.11714598  0.25679052  0.75046913  1
  O  O402  1  0.12049580  0.75523462  0.25493224  1
  O  O403  1  0.11813915  0.75157511  0.75778698  1
  O  O404  1  0.62325027  0.26079743  0.25617037  1
  O  O405  1  0.62318308  0.25805180  0.75047392  1
  O  O406  1  0.61946279  0.75457513  0.25546570  1
  O  O407  1  0.61918207  0.75092919  0.75843359  1
  O  O408  1  0.37655342  0.24335379  0.24266720  1
  O  O409  1  0.37628809  0.24302938  0.73797350  1
  O  O410  1  0.37917725  0.74284897  0.24791230  1
  O  O411  1  0.38248237  0.74245157  0.74964315  1
  O  O412  1  0.88644264  0.25095263  0.24996646  1
  O  O413  1  0.87962625  0.24363665  0.74276965  1
  O  O414  1  0.87990459  0.74368648  0.24637491  1
  O  O415  1  0.88213887  0.74199275  0.74916871  1
  O  O416  1  0.37845861  0.49828430  0.48861086  1
  O  O417  1  0.37962491  0.49405901  0.99521972  1
  O  O418  1  0.38101244  0.99490805  0.49484425  1
  O  O419  1  0.38113144  0.99205678  1.00006670  1
  O  O420  1  0.88122232  0.49511789  0.49479363  1
  O  O421  1  0.87936007  0.49488612  0.99417871  1
  O  O422  1  0.88091001  0.99469516  0.49341678  1
  O  O423  1  0.87646289  0.98776474  1.00062796  1
  O  O424  1  0.12344505  0.00101234  0.01197248  1
  O  O425  1  0.11862932  0.00549670  0.50467532  1
  O  O426  1  0.11965008  0.50421077  0.00444959  1
  O  O427  1  0.11884934  0.50678562  0.50098556  1
  O  O428  1  0.61878470  0.00438097  0.00625141  1
  O  O429  1  0.61940666  0.00560237  0.50442024  1
  O  O430  1  0.61827296  0.50626066  0.00040916  1
  O  O431  1  0.62471464  0.50674579  0.50703974  1
  O  O432  1  0.37011075  0.36967950  0.11981633  1
  O  O433  1  0.36871917  0.36679487  0.62544071  1
  O  O434  1  0.37345805  0.86722179  0.11908916  1
  O  O435  1  0.36836930  0.87418044  0.61792370  1
  O  O436  1  0.86411670  0.37362184  0.11876858  1
  O  O437  1  0.86992329  0.37049124  0.61927518  1
  O  O438  1  0.87544017  0.86923717  0.11555221  1
  O  O439  1  0.86620612  0.87471766  0.61791136  1
  O  O440  1  0.12584889  0.13213081  0.38165940  1
  O  O441  1  0.13720399  0.12664213  0.87377672  1
  O  O442  1  0.12609341  0.63212372  0.38149400  1
  O  O443  1  0.12619029  0.63136468  0.88239988  1
  O  O444  1  0.62961083  0.13025050  0.38045466  1
  O  O445  1  0.62603147  0.12688847  0.88309924  1
  O  O446  1  0.62533314  0.63133142  0.38114172  1
  O  O447  1  0.63164587  0.62980744  0.88112736  1
