# generated using pymatgen
data_V3Zn3O8
_symmetry_space_group_name_H-M   'P 1'
_cell_length_a   17.09135387
_cell_length_b   17.08981955
_cell_length_c   17.09015580
_cell_angle_alpha   90.00029413
_cell_angle_beta   90.00631688
_cell_angle_gamma   89.99728362
_symmetry_Int_Tables_number   1
_chemical_formula_structural   V3Zn3O8
_chemical_formula_sum   'V96 Zn96 O256'
_cell_volume   4991.83201339
_cell_formula_units_Z   32
loop_
 _symmetry_equiv_pos_site_id
 _symmetry_equiv_pos_as_xyz
  1  'x, y, z'
loop_
 _atom_site_type_symbol
 _atom_site_label
 _atom_site_symmetry_multiplicity
 _atom_site_fract_x
 _atom_site_fract_y
 _atom_site_fract_z
 _atom_site_occupancy
  V  V0  1  0.25020902  0.87450713  0.62569765  1
  V  V1  1  0.12509239  0.87589561  0.25162136  1
  V  V2  1  0.37497322  0.37445634  -0.00145663  1
  V  V3  1  0.37495429  0.87549434  0.00136120  1
  V  V4  1  0.50048240  0.75010974  0.25056104  1
  V  V5  1  -0.00088440  0.37592115  0.87532700  1
  V  V6  1  0.75055256  0.12532574  0.87491880  1
  V  V7  1  0.37599730  0.12545054  0.24915198  1
  V  V8  1  0.49974110  0.37432107  0.37527265  1
  V  V9  1  0.37698917  -0.00184973  0.37632882  1
  V  V10  1  0.50000465  0.24875601  0.24901921  1
  V  V11  1  0.62451345  0.49919239  0.12431915  1
  V  V12  1  0.37567748  0.12485661  0.74888050  1
  V  V13  1  0.87502707  0.87670413  0.50025259  1
  V  V14  1  0.00000977  0.75165808  0.25157385  1
  V  V15  1  0.62606747  0.24934843  0.37388469  1
  V  V16  1  0.87456250  0.62641163  0.25101286  1
  V  V17  1  0.87574517  0.50121594  0.37540395  1
  V  V18  1  0.37493840  0.74874379  0.62560899  1
  V  V19  1  0.75089691  -0.00077772  0.75039441  1
  V  V20  1  0.12627034  0.12580533  0.49913463  1
  V  V21  1  0.50057098  0.00027510  -0.00027619  1
  V  V22  1  0.87634422  0.87627578  0.00039347  1
  V  V23  1  0.00004267  0.62499606  0.12533782  1
  V  V24  1  0.87697391  -0.00100127  0.87688181  1
  V  V25  1  0.87478120  0.75063395  0.12571696  1
  V  V26  1  0.74929595  0.37631129  0.12438928  1
  V  V27  1  0.12553045  0.12485974  0.00136738  1
  V  V28  1  0.12421710  0.50048218  0.62541728  1
  V  V29  1  0.25106610  0.25107976  -0.00066907  1
  V  V30  1  0.00001573  0.87576962  0.37578802  1
  V  V31  1  0.37373893  0.74975945  0.12487698  1
  V  V32  1  0.25085143  0.00009098  0.25135669  1
  V  V33  1  0.24982697  0.50055644  0.74999555  1
  V  V34  1  0.12528689  0.00179620  0.12548056  1
  V  V35  1  0.62494938  0.62579563  -0.00093065  1
  V  V36  1  0.62396618  0.87372440  0.25053360  1
  V  V37  1  0.25058676  0.00001028  0.75038918  1
  V  V38  1  0.25062004  0.87480352  0.12620073  1
  V  V39  1  0.87467485  0.24941206  0.62405747  1
  V  V40  1  0.50093955  0.25045348  0.74907490  1
  V  V41  1  0.12508012  0.00041375  0.62533732  1
  V  V42  1  0.74947146  0.25023009  -0.00160587  1
  V  V43  1  0.50067494  0.74911594  0.75078895  1
  V  V44  1  0.12489004  0.24983567  0.37516614  1
  V  V45  1  0.62629842  0.37482779  0.74763076  1
  V  V46  1  0.12343681  0.50174525  0.12427096  1
  V  V47  1  0.87554307  0.12614435  0.24852315  1
  V  V48  1  0.62530276  -0.00004520  0.62494882  1
  V  V49  1  0.87476495  0.62508913  0.75080581  1
  V  V50  1  0.00032653  0.75141117  0.75354004  1
  V  V51  1  0.12436439  0.37549891  0.75031128  1
  V  V52  1  0.12534850  0.25030439  0.87488329  1
  V  V53  1  0.37431525  0.62398062  0.24931406  1
  V  V54  1  -0.00078459  0.37635080  0.37528599  1
  V  V55  1  0.87508321  -0.00002899  0.37429431  1
  V  V56  1  0.24924507  0.62448494  0.37552058  1
  V  V57  1  0.75032611  0.87510334  0.12523554  1
  V  V58  1  0.87536422  0.25109470  0.12481089  1
  V  V59  1  0.37494953  0.49932051  0.87464394  1
  V  V60  1  -0.00052525  0.24986342  0.74980476  1
  V  V61  1  0.62501467  0.37487690  0.24837611  1
  V  V62  1  0.87462254  0.37645114  -0.00060790  1
  V  V63  1  0.37582622  -0.00072418  0.87587202  1
  V  V64  1  0.74795457  0.74998620  0.50067923  1
  V  V65  1  0.74979365  0.12501290  0.37327490  1
  V  V66  1  0.75171624  0.24940051  0.49962842  1
  V  V67  1  0.24727305  0.62727469  0.87741795  1
  V  V68  1  0.74851787  0.74915098  -0.00013884  1
  V  V69  1  0.74789361  0.62566715  0.37560587  1
  V  V70  1  0.37527148  0.62513465  0.74912906  1
  V  V71  1  0.25092808  0.37289035  0.62267308  1
  V  V72  1  0.12501139  0.87449778  0.75187054  1
  V  V73  1  0.24920390  0.49910295  0.24952942  1
  V  V74  1  0.49922653  0.49889317  -0.00164737  1
  V  V75  1  0.74941301  0.50021872  0.74706615  1
  V  V76  1  0.62554873  0.12472475  -0.00090921  1
  V  V77  1  0.00076482  0.12408423  0.62541400  1
  V  V78  1  0.50081111  0.12291655  0.62239441  1
  V  V79  1  -0.00092740  0.50086588  0.50011968  1
  V  V80  1  0.25057234  0.12572254  0.87450023  1
  V  V81  1  0.37642448  0.49656982  0.37754345  1
  V  V82  1  0.24984431  0.37460609  0.12370249  1
  V  V83  1  0.37582257  0.87451161  0.50023190  1
  V  V84  1  0.62488286  0.87398071  0.75164633  1
  V  V85  1  0.62484834  0.00064207  0.12406581  1
  V  V86  1  0.25000547  0.74895512  0.50054080  1
  V  V87  1  0.12450280  0.37477674  0.24971052  1
  V  V88  1  0.87436832  0.50017743  0.87479058  1
  V  V89  1  -0.00029853  0.62561095  0.62614247  1
  V  V90  1  0.12491755  0.62617515  0.50017825  1
  V  V91  1  0.87512913  0.12420751  0.75039432  1
  V  V92  1  0.74984534  -0.00017104  0.24921954  1
  V  V93  1  0.75093529  0.87525768  0.62539534  1
  V  V94  1  -0.00051356  0.25062163  0.24904182  1
  V  V95  1  0.49880931  0.62390787  0.12443569  1
  Zn  Zn96  1  0.74783980  0.62677807  0.87388645  1
  Zn  Zn97  1  0.50059397  0.12644786  0.12309490  1
  Zn  Zn98  1  0.50242068  0.87199705  0.37758723  1
  Zn  Zn99  1  0.37805975  0.37141610  0.50161223  1
  Zn  Zn100  1  0.62196939  0.50158959  0.62248829  1
  Zn  Zn101  1  0.50481916  0.49806836  0.50216397  1
  Zn  Zn102  1  0.75154857  0.37545231  0.62205537  1
  Zn  Zn103  1  0.50090186  0.87455864  0.87641432  1
  Zn  Zn104  1  0.37653125  0.24944010  0.12296488  1
  Zn  Zn105  1  0.50284123  -0.00350701  0.49971462  1
  Zn  Zn106  1  -0.00023538  0.50283612  -0.00022110  1
  Zn  Zn107  1  0.87463487  0.75130982  0.62685396  1
  Zn  Zn108  1  0.12280273  0.62757119  0.00099448  1
  Zn  Zn109  1  0.25215950  0.25145693  0.49790932  1
  Zn  Zn110  1  0.00364099  0.87673867  0.87936741  1
  Zn  Zn111  1  0.12532255  0.75125674  0.37615517  1
  Zn  Zn112  1  0.00008266  -0.00117726  0.50033407  1
  Zn  Zn113  1  0.87611563  0.37575839  0.50080316  1
  Zn  Zn114  1  0.50137163  0.62143416  0.61992767  1
  Zn  Zn115  1  0.62309484  0.62022757  0.50153865  1
  Zn  Zn116  1  0.00063123  0.12528768  0.12372135  1
  Zn  Zn117  1  0.50036189  0.37452183  0.87373781  1
  Zn  Zn118  1  0.62504727  0.75030077  0.87606691  1
  Zn  Zn119  1  0.00106729  0.00062130  0.00129675  1
  Zn  Zn120  1  0.24772614  0.75073859  0.00151350  1
  Zn  Zn121  1  0.62588866  0.24976141  0.87427041  1
  Zn  Zn122  1  0.62452263  0.12241560  0.49780145  1
  Zn  Zn123  1  0.62183315  0.74967035  0.37577113  1
  Zn  Zn124  1  0.37366383  0.24876462  0.62117820  1
  Zn  Zn125  1  0.25079865  0.12748798  0.37637399  1
  Zn  Zn126  1  0.12559761  0.75272491  0.88016879  1
  Zn  Zn127  1  0.74936657  0.50088608  0.25035829  1
  Zn  Zn128  1  0.18955655  0.18772250  0.18764558  1
  Zn  Zn129  1  0.18668135  0.18790438  0.68750664  1
  Zn  Zn130  1  0.18621565  0.68837726  0.18876935  1
  Zn  Zn131  1  0.18646513  0.68812063  0.68935299  1
  Zn  Zn132  1  0.68799003  0.18801336  0.18534419  1
  Zn  Zn133  1  0.68712500  0.18663329  0.68607353  1
  Zn  Zn134  1  0.68640050  0.68751672  0.18691801  1
  Zn  Zn135  1  0.68503824  0.68591173  0.68515952  1
  Zn  Zn136  1  0.31098320  0.31099801  0.31206341  1
  Zn  Zn137  1  0.31384623  0.31255104  0.81036961  1
  Zn  Zn138  1  0.31309101  0.81136698  0.31321212  1
  Zn  Zn139  1  0.31393105  0.81255821  0.81375598  1
  Zn  Zn140  1  0.81253767  0.31441995  0.31187148  1
  Zn  Zn141  1  0.81232071  0.31312664  0.81224805  1
  Zn  Zn142  1  0.81179677  0.81290891  0.31392092  1
  Zn  Zn143  1  0.81320914  0.81217853  0.81597551  1
  Zn  Zn144  1  0.18586011  0.43834318  0.43820510  1
  Zn  Zn145  1  0.18625250  0.44018668  0.93885051  1
  Zn  Zn146  1  0.18886300  0.93840434  0.43813165  1
  Zn  Zn147  1  0.18830619  0.93795520  0.93884119  1
  Zn  Zn148  1  0.68766837  0.43678566  0.43675790  1
  Zn  Zn149  1  0.68639046  0.43769412  0.93407059  1
  Zn  Zn150  1  0.68655738  0.93682872  0.43719314  1
  Zn  Zn151  1  0.68792609  0.93639831  0.93673410  1
  Zn  Zn152  1  0.31205364  0.06199769  0.06308119  1
  Zn  Zn153  1  0.31259336  0.06182613  0.56243355  1
  Zn  Zn154  1  0.31152005  0.56102123  0.06115353  1
  Zn  Zn155  1  0.31379629  0.56158948  0.56228248  1
  Zn  Zn156  1  0.81289464  0.06325027  0.06212603  1
  Zn  Zn157  1  0.81235269  0.06285503  0.56172514  1
  Zn  Zn158  1  0.81183481  0.56307023  0.06232141  1
  Zn  Zn159  1  0.81354976  0.56441447  0.56336487  1
  Zn  Zn160  1  0.43709972  0.43563975  0.18663851  1
  Zn  Zn161  1  0.43722343  0.43866233  0.68612504  1
  Zn  Zn162  1  0.43974226  0.93749923  0.18697806  1
  Zn  Zn163  1  0.43794820  0.93614664  0.68801555  1
  Zn  Zn164  1  0.93649412  0.43967276  0.18830799  1
  Zn  Zn165  1  0.93558593  0.43649172  0.68654059  1
  Zn  Zn166  1  0.93953541  0.93864738  0.18654438  1
  Zn  Zn167  1  0.93825851  0.93675916  0.68796358  1
  Zn  Zn168  1  0.06097941  0.06311212  0.31234476  1
  Zn  Zn169  1  0.06253280  0.06166874  0.81446976  1
  Zn  Zn170  1  0.06254343  0.56357725  0.31232790  1
  Zn  Zn171  1  0.06201637  0.56290125  0.81311345  1
  Zn  Zn172  1  0.56181049  0.06168721  0.31200567  1
  Zn  Zn173  1  0.56323577  0.06170224  0.81304863  1
  Zn  Zn174  1  0.56260026  0.56180443  0.31216128  1
  Zn  Zn175  1  0.56291934  0.56341243  0.81267858  1
  Zn  Zn176  1  0.43654794  0.18935883  0.43773273  1
  Zn  Zn177  1  0.43864708  0.18701177  0.93559415  1
  Zn  Zn178  1  0.43844090  0.68534326  0.43746084  1
  Zn  Zn179  1  0.43569252  0.68786464  0.93708835  1
  Zn  Zn180  1  0.93875999  0.18661894  0.43658672  1
  Zn  Zn181  1  0.93855221  0.18716057  0.93844271  1
  Zn  Zn182  1  0.93571122  0.68972570  0.43831769  1
  Zn  Zn183  1  0.93553046  0.68665346  0.93839675  1
  Zn  Zn184  1  0.06181416  0.31366209  0.06165889  1
  Zn  Zn185  1  0.06252103  0.31238357  0.56177145  1
  Zn  Zn186  1  0.06352787  0.81223670  0.06290823  1
  Zn  Zn187  1  0.06214332  0.81244068  0.56413354  1
  Zn  Zn188  1  0.56135196  0.31111655  0.06201041  1
  Zn  Zn189  1  0.56464972  0.31310234  0.56106742  1
  Zn  Zn190  1  0.56143067  0.81271345  0.06364216  1
  Zn  Zn191  1  0.56230544  0.81151409  0.56471213  1
  O  O192  1  0.12639776  0.11970634  0.11935949  1
  O  O193  1  0.12018331  0.12057422  0.61866190  1
  O  O194  1  0.11804669  0.61862870  0.12748776  1
  O  O195  1  0.12011450  0.61924594  0.62043484  1
  O  O196  1  0.62560833  0.11786790  0.11728874  1
  O  O197  1  0.61584220  0.11825432  0.62497343  1
  O  O198  1  0.61815412  0.61861694  0.11982199  1
  O  O199  1  0.62124432  0.62086586  0.62072956  1
  O  O200  1  0.37961707  0.38335614  0.37206547  1
  O  O201  1  0.37519569  0.38190153  0.88011774  1
  O  O202  1  0.37533625  0.88361293  0.38061582  1
  O  O203  1  0.37515199  0.88275689  0.88253091  1
  O  O204  1  0.88208460  0.38251766  0.37534399  1
  O  O205  1  0.88012566  0.37993835  0.87934996  1
  O  O206  1  0.87956185  0.88134144  0.37996714  1
  O  O207  1  0.87625869  0.88228815  0.88282891  1
  O  O208  1  0.26173002  0.00155282  0.36994262  1
  O  O209  1  0.25585774  0.00693221  0.86933021  1
  O  O210  1  0.25666856  0.50328824  0.36891493  1
  O  O211  1  0.25436945  0.50736741  0.86922560  1
  O  O212  1  0.75522028  0.00531699  0.36819458  1
  O  O213  1  0.75682490  0.00559155  0.86929959  1
  O  O214  1  0.75693837  0.51050604  0.37423477  1
  O  O215  1  0.75605258  0.50045521  0.86284235  1
  O  O216  1  0.24450265  0.49453215  0.13103185  1
  O  O217  1  0.24390530  0.49314781  0.63023479  1
  O  O218  1  0.24562289  0.99427924  0.13252775  1
  O  O219  1  0.24522855  0.99438160  0.63155682  1
  O  O220  1  0.74261453  0.49380357  0.12648813  1
  O  O221  1  0.75243329  0.49720645  0.63791129  1
  O  O222  1  0.74513433  0.99459637  0.13042422  1
  O  O223  1  0.74560864  0.99554997  0.63138212  1
  O  O224  1  0.00546086  0.37048312  0.25546032  1
  O  O225  1  0.00496308  0.36933810  0.75500539  1
  O  O226  1  0.00501836  0.87071683  0.25603421  1
  O  O227  1  0.00561492  0.86576445  0.75084456  1
  O  O228  1  0.50551759  0.36822826  0.25441751  1
  O  O229  1  0.50748530  0.36557941  0.74852827  1
  O  O230  1  0.50637780  0.86759119  0.24968805  1
  O  O231  1  0.50510166  0.86533149  0.75054134  1
  O  O232  1  0.49069825  0.12963395  0.24917408  1
  O  O233  1  0.49677213  0.13115800  0.74172517  1
  O  O234  1  0.49395235  0.62881550  0.24340528  1
  O  O235  1  0.49282988  0.63492147  0.75075159  1
  O  O236  1  0.99309628  0.13327357  0.24878144  1
  O  O237  1  0.99529322  0.13076134  0.74549411  1
  O  O238  1  0.99394436  0.63205821  0.24650883  1
  O  O239  1  0.99587416  0.63229321  0.74546472  1
  O  O240  1  0.36858746  0.25537719  -0.00107748  1
  O  O241  1  0.36926920  0.25335328  0.50361424  1
  O  O242  1  0.37351252  0.75683306  0.00796016  1
  O  O243  1  0.36838397  0.75439211  0.50575203  1
  O  O244  1  0.86912629  0.25628656  0.00466351  1
  O  O245  1  0.86720130  0.24833387  0.50436695  1
  O  O246  1  0.86876099  0.75567113  0.00702641  1
  O  O247  1  0.86423514  0.75726790  0.50211903  1
  O  O248  1  0.12442895  0.24036851  0.49458962  1
  O  O249  1  0.13153655  0.24631967  0.99355104  1
  O  O250  1  0.13218805  0.74372633  0.50027821  1
  O  O251  1  0.13003935  0.74619166  0.99774343  1
  O  O252  1  0.63586478  0.24707924  0.49317022  1
  O  O253  1  0.63153946  0.24387878  0.99737797  1
  O  O254  1  0.63930506  0.75159711  0.49808678  1
  O  O255  1  0.63015522  0.74382663  1.00172680  1
  O  O256  1  0.49645831  0.24664317  0.13282610  1
  O  O257  1  0.50101421  0.24061413  0.63394696  1
  O  O258  1  0.49283590  0.74284188  0.13045816  1
  O  O259  1  0.49271169  0.74917551  0.63649198  1
  O  O260  1  0.99309608  0.25087730  0.13179164  1
  O  O261  1  0.99554749  0.24393810  0.63093907  1
  O  O262  1  0.99344196  0.74566170  0.13271259  1
  O  O263  1  0.99887667  0.74451946  0.63652467  1
  O  O264  1  0.00481599  0.25634145  0.36861346  1
  O  O265  1  0.00536061  0.25557339  0.86877292  1
  O  O266  1  0.00076549  0.75755958  0.36928223  1
  O  O267  1  0.00133419  0.75016604  0.86284345  1
  O  O268  1  0.50660050  0.25405415  0.36840514  1
  O  O269  1  0.50259933  0.24959715  0.86000059  1
  O  O270  1  0.50112598  0.75078679  0.36533432  1
  O  O271  1  0.49909508  0.75242631  0.86268390  1
  O  O272  1  0.23684832  0.12628249  0.50072251  1
  O  O273  1  0.24619283  0.13098704  0.99367223  1
  O  O274  1  0.24460687  0.62917935  0.49560889  1
  O  O275  1  0.25012550  0.62582851  0.98836914  1
  O  O276  1  0.74985438  0.13422732  0.49233612  1
  O  O277  1  0.74549723  0.13070071  0.99429728  1
  O  O278  1  0.75290335  0.63454119  0.49143495  1
  O  O279  1  0.74278359  0.63163924  1.00055766  1
  O  O280  1  0.25469662  0.37020296  0.00388292  1
  O  O281  1  0.24731356  0.37526511  0.51264385  1
  O  O282  1  0.25764368  0.87553222  0.00894650  1
  O  O283  1  0.25494390  0.86918831  0.50669059  1
  O  O284  1  0.75450443  0.37010811  0.00412376  1
  O  O285  1  0.75354713  0.36040017  0.49897733  1
  O  O286  1  0.75528515  0.86990819  0.00724131  1
  O  O287  1  0.75537707  0.86839812  0.50452663  1
  O  O288  1  0.13031161  0.49400292  0.24551606  1
  O  O289  1  0.12974980  0.49479763  0.74442408  1
  O  O290  1  0.13154888  0.99604711  0.24649286  1
  O  O291  1  0.13169020  0.99583509  0.74507455  1
  O  O292  1  0.62567878  0.49298836  0.24214258  1
  O  O293  1  0.63388449  0.49165742  0.75047873  1
  O  O294  1  0.63080298  0.99496829  0.24406860  1
  O  O295  1  0.63175266  0.99470492  0.74482691  1
  O  O296  1  0.37178563  0.00595165  0.25745280  1
  O  O297  1  0.36960063  0.00489440  0.75509020  1
  O  O298  1  0.36911389  0.50383163  0.25704163  1
  O  O299  1  0.36839480  0.50517515  0.75565915  1
  O  O300  1  0.86871626  0.00542877  0.25404966  1
  O  O301  1  0.86977242  0.00520184  0.75533987  1
  O  O302  1  0.87278781  0.50856077  0.25730397  1
  O  O303  1  0.86793349  0.50376846  0.75470074  1
  O  O304  1  0.11897719  0.37127249  0.36891617  1
  O  O305  1  0.12016752  0.37024587  0.86953261  1
  O  O306  1  0.11920155  0.87529440  0.36949721  1
  O  O307  1  0.12460161  0.87391724  0.86694540  1
  O  O308  1  0.62042870  0.36821611  0.36694526  1
  O  O309  1  0.62239869  0.37179404  0.86110489  1
  O  O310  1  0.62340181  0.87255207  0.36576517  1
  O  O311  1  0.62202736  0.87283052  0.86692046  1
  O  O312  1  0.37610853  0.12476105  0.13848185  1
  O  O313  1  0.38440278  0.12385943  0.63122835  1
  O  O314  1  0.37907477  0.62806979  0.13048837  1
  O  O315  1  0.37313989  0.63196704  0.63261807  1
  O  O316  1  0.87525792  0.13307454  0.13113632  1
  O  O317  1  0.88101094  0.12886781  0.63117443  1
  O  O318  1  0.87892580  0.63128521  0.13171184  1
  O  O319  1  0.88285591  0.62749185  0.63292538  1
  O  O320  1  0.25198950  0.25727504  0.11766424  1
  O  O321  1  0.24911131  0.26201237  0.62558213  1
  O  O322  1  0.25730198  0.75682781  0.12717864  1
  O  O323  1  0.25498242  0.75517188  0.62091654  1
  O  O324  1  0.75569910  0.25693448  0.11835371  1
  O  O325  1  0.75576865  0.24724262  0.61459312  1
  O  O326  1  0.75586479  0.75583083  0.12065976  1
  O  O327  1  0.75204881  0.75648726  0.61678946  1
  O  O328  1  0.23989295  0.24807449  0.37696430  1
  O  O329  1  0.24450354  0.24511910  0.87837192  1
  O  O330  1  0.24964898  0.74217339  0.38221750  1
  O  O331  1  0.25022816  0.73809205  0.87508703  1
  O  O332  1  0.74648185  0.24457752  0.38051520  1
  O  O333  1  0.75035322  0.24280655  0.88059069  1
  O  O334  1  0.75063007  0.74179125  0.38328587  1
  O  O335  1  0.74724808  0.74759263  0.88449323  1
  O  O336  1  0.01002597  0.12457014  0.00268547  1
  O  O337  1  0.01042510  0.12332713  0.50583986  1
  O  O338  1  0.00011487  0.62348409  0.00987105  1
  O  O339  1  0.00469290  0.62143841  0.50592382  1
  O  O340  1  0.50684424  0.11872443  0.00024929  1
  O  O341  1  0.50111914  0.12404673  0.51276330  1
  O  O342  1  0.50331775  0.61916390  0.00590042  1
  O  O343  1  0.50394385  0.62015629  0.50014553  1
  O  O344  1  0.49772079  0.37491798  0.48988915  1
  O  O345  1  0.49373745  0.38068754  0.99702243  1
  O  O346  1  0.49124793  0.87567840  0.49936441  1
  O  O347  1  0.49300927  0.88212382  0.99976306  1
  O  O348  1  1.00023800  0.38265933  0.49312952  1
  O  O349  1  0.99234828  0.37637163  0.99248195  1
  O  O350  1  0.99370335  0.87617164  0.49484669  1
  O  O351  1  0.99144092  0.87730895  0.99974728  1
  O  O352  1  0.48917410  0.49287518  0.37140847  1
  O  O353  1  0.49219147  0.49893025  0.88052462  1
  O  O354  1  0.48783756  0.99780190  0.37665365  1
  O  O355  1  0.49275856  0.99890206  0.88080680  1
  O  O356  1  0.99550448  0.49644037  0.38065667  1
  O  O357  1  0.99293611  0.49310472  0.87464300  1
  O  O358  1  0.99230888  0.99358228  0.37580339  1
  O  O359  1  0.99186741  0.99834474  0.87785044  1
  O  O360  1  0.00985028  0.00414307  0.12422859  1
  O  O361  1  0.00718093  0.00675939  0.62497482  1
  O  O362  1  0.00563482  0.50717818  0.12580236  1
  O  O363  1  0.00511237  0.50530992  0.62085780  1
  O  O364  1  0.50748697  0.00255990  0.11814026  1
  O  O365  1  0.50566541  0.00898139  0.62650538  1
  O  O366  1  0.50438947  0.50467050  0.11876269  1
  O  O367  1  0.50116634  0.50250071  0.62150708  1
  O  O368  1  0.24368110  0.37950364  0.24384677  1
  O  O369  1  0.24359449  0.38055070  0.74284940  1
  O  O370  1  0.24560412  0.88061410  0.24607810  1
  O  O371  1  0.24591157  0.88043505  0.74464111  1
  O  O372  1  0.74290529  0.37641458  0.24269369  1
  O  O373  1  0.74326694  0.38210973  0.74850982  1
  O  O374  1  0.74542367  0.88043125  0.24429047  1
  O  O375  1  0.74593389  0.87988631  0.74499603  1
  O  O376  1  0.26002125  0.11914516  0.25266839  1
  O  O377  1  0.25508629  0.12015166  0.75443691  1
  O  O378  1  0.25485237  0.61854334  0.25533725  1
  O  O379  1  0.25468080  0.61975851  0.75719594  1
  O  O380  1  0.75564107  0.11995480  0.25407970  1
  O  O381  1  0.75604883  0.11922662  0.75429315  1
  O  O382  1  0.75609770  0.62654168  0.25965848  1
  O  O383  1  0.75557372  0.61614843  0.75067077  1
  O  O384  1  0.37433965  0.11622132  0.36650752  1
  O  O385  1  0.36935944  0.11938316  0.86852352  1
  O  O386  1  0.36861910  0.61515836  0.36828549  1
  O  O387  1  0.36613239  0.61911205  0.86944425  1
  O  O388  1  0.86979066  0.12003502  0.36776387  1
  O  O389  1  0.87003450  0.12003632  0.86936185  1
  O  O390  1  0.86740812  0.62152120  0.37062426  1
  O  O391  1  0.87280063  0.61762721  0.86801985  1
  O  O392  1  0.12997693  0.38059971  0.13059021  1
  O  O393  1  0.13045036  0.38088041  0.63135791  1
  O  O394  1  0.13111368  0.88153544  0.13262229  1
  O  O395  1  0.13122176  0.88091005  0.63097950  1
  O  O396  1  0.62980887  0.38000530  0.12855780  1
  O  O397  1  0.62964352  0.37504838  0.63754542  1
  O  O398  1  0.63151131  0.88116816  0.13016719  1
  O  O399  1  0.63145565  0.88058860  0.63181279  1
  O  O400  1  0.11982597  0.25573283  0.25475408  1
  O  O401  1  0.11887913  0.25500534  0.75595611  1
  O  O402  1  0.11812605  0.75812014  0.25278473  1
  O  O403  1  0.11569780  0.75589315  0.75134831  1
  O  O404  1  0.62050219  0.25487290  0.25401232  1
  O  O405  1  0.61836511  0.25648430  0.74988799  1
  O  O406  1  0.61793300  0.75610608  0.24894009  1
  O  O407  1  0.61549672  0.75529700  0.75022039  1
  O  O408  1  0.38015727  0.23968779  0.25101682  1
  O  O409  1  0.38463299  0.24389236  0.74658922  1
  O  O410  1  0.37968684  0.74299407  0.24448431  1
  O  O411  1  0.38186708  0.74603708  0.74489366  1
  O  O412  1  0.87940933  0.24606738  0.24443421  1
  O  O413  1  0.88010997  0.24343869  0.74501919  1
  O  O414  1  0.88001908  0.74655530  0.24493298  1
  O  O415  1  0.88397752  0.74490881  0.74973498  1
  O  O416  1  0.37316469  0.49671984  0.48464256  1
  O  O417  1  0.38004218  0.49397301  0.99441651  1
  O  O418  1  0.37503189  0.99445883  0.49136917  1
  O  O419  1  0.38028008  0.99596716  0.99555844  1
  O  O420  1  0.88207730  0.49961114  0.49404039  1
  O  O421  1  0.87467043  0.49337742  0.99313698  1
  O  O422  1  0.87557434  0.99482004  0.49244435  1
  O  O423  1  0.87534659  0.99429371  0.99493503  1
  O  O424  1  0.12662398  0.00742368  0.00749405  1
  O  O425  1  0.12435883  0.00903689  0.50649152  1
  O  O426  1  0.12142766  0.50345958  0.00917643  1
  O  O427  1  0.11861171  0.50701582  0.50584800  1
  O  O428  1  0.62096397  0.00472273  0.00483181  1
  O  O429  1  0.62330033  0.00236240  0.50806531  1
  O  O430  1  0.61892323  0.50442729  0.00467054  1
  O  O431  1  0.62483582  0.50014197  0.50336908  1
  O  O432  1  0.36720057  0.37417542  0.11725223  1
  O  O433  1  0.36133093  0.37478341  0.62469033  1
  O  O434  1  0.36977759  0.87016848  0.12156163  1
  O  O435  1  0.36831773  0.86968711  0.62071708  1
  O  O436  1  0.86907535  0.37094729  0.11992955  1
  O  O437  1  0.87296451  0.36496421  0.62163838  1
  O  O438  1  0.86921892  0.87009885  0.12134859  1
  O  O439  1  0.86803224  0.87519529  0.61882712  1
  O  O440  1  0.12497150  0.12943060  0.38420734  1
  O  O441  1  0.13192175  0.13105881  0.87945458  1
  O  O442  1  0.13171983  0.62582068  0.38216351  1
  O  O443  1  0.13687546  0.62524259  0.87505976  1
  O  O444  1  0.63185389  0.13080962  0.37427572  1
  O  O445  1  0.63357353  0.12493662  0.88073754  1
  O  O446  1  0.63842489  0.62661262  0.37446681  1
  O  O447  1  0.62669085  0.62767839  0.88454281  1
