# generated using pymatgen
data_V3Zn3O8
_symmetry_space_group_name_H-M   'P 1'
_cell_length_a   17.08970851
_cell_length_b   17.09099826
_cell_length_c   17.09010963
_cell_angle_alpha   89.99799757
_cell_angle_beta   89.98741804
_cell_angle_gamma   90.01970367
_symmetry_Int_Tables_number   1
_chemical_formula_structural   V3Zn3O8
_chemical_formula_sum   'V96 Zn96 O256'
_cell_volume   4991.68185374
_cell_formula_units_Z   32
loop_
 _symmetry_equiv_pos_site_id
 _symmetry_equiv_pos_as_xyz
  1  'x, y, z'
loop_
 _atom_site_type_symbol
 _atom_site_label
 _atom_site_symmetry_multiplicity
 _atom_site_fract_x
 _atom_site_fract_y
 _atom_site_fract_z
 _atom_site_occupancy
  V  V0  1  -0.00051067  0.62517128  0.12494625  1
  V  V1  1  0.37674623  0.49966152  0.37524845  1
  V  V2  1  0.37635007  0.74999641  0.62475684  1
  V  V3  1  0.00036385  0.87372163  0.37448220  1
  V  V4  1  0.37461567  0.37608544  -0.00203129  1
  V  V5  1  0.37535463  0.50043755  0.87455304  1
  V  V6  1  0.87671406  0.37322806  0.50145088  1
  V  V7  1  0.24924800  0.62615466  0.87527609  1
  V  V8  1  0.12361340  0.25056970  0.87471340  1
  V  V9  1  0.12553200  0.37508551  0.74969333  1
  V  V10  1  0.74929174  0.12551948  0.87523514  1
  V  V11  1  0.75029051  0.62468510  0.87655361  1
  V  V12  1  0.24871976  0.25062005  -0.00149630  1
  V  V13  1  0.25155791  0.87464420  0.62362887  1
  V  V14  1  0.12648160  0.49939239  0.62513296  1
  V  V15  1  0.62557818  0.25006150  0.87532353  1
  V  V16  1  0.87601215  0.87367260  0.50049900  1
  V  V17  1  0.50105523  0.49769433  0.49922836  1
  V  V18  1  0.12389205  0.00053823  0.12435578  1
  V  V19  1  0.74935611  0.75041935  0.00171224  1
  V  V20  1  0.87346811  0.49996317  0.37406883  1
  V  V21  1  0.00077575  0.74992841  0.74996709  1
  V  V22  1  0.87237216  0.25043145  0.12447581  1
  V  V23  1  0.25220500  0.74996249  0.49974627  1
  V  V24  1  0.62550018  0.75117470  0.37482232  1
  V  V25  1  -0.00084976  0.75031545  0.25045917  1
  V  V26  1  -0.00031035  0.50017013  0.00064554  1
  V  V27  1  0.12504700  0.12443263  0.49865592  1
  V  V28  1  0.50006655  0.74969335  0.74987462  1
  V  V29  1  0.12547708  0.24968668  0.37377426  1
  V  V30  1  0.62588455  0.37573538  0.75071714  1
  V  V31  1  0.87694838  0.24872912  0.62607616  1
  V  V32  1  0.24910895  0.12522583  0.87283928  1
  V  V33  1  0.25042796  0.62607858  0.37566725  1
  V  V34  1  0.87442055  0.00023273  0.37467198  1
  V  V35  1  0.12560734  0.75026325  0.87535098  1
  V  V36  1  0.49814046  -0.00043636  -0.00164003  1
  V  V37  1  0.12300133  0.12518035  -0.00040108  1
  V  V38  1  -0.00047679  0.24962682  0.24945832  1
  V  V39  1  -0.00086484  0.37554699  0.87597816  1
  V  V40  1  0.37735533  -0.00079274  0.37618378  1
  V  V41  1  0.75094486  0.74797950  0.50048489  1
  V  V42  1  -0.00104583  0.87547611  0.87519204  1
  V  V43  1  0.75052688  0.12483058  0.37561489  1
  V  V44  1  0.62808676  0.62324975  0.50074580  1
  V  V45  1  0.49996883  0.37556453  0.87505926  1
  V  V46  1  0.87554452  0.62389309  0.75132260  1
  V  V47  1  0.87318093  0.12446023  0.25028055  1
  V  V48  1  0.74872859  0.37504642  0.12611023  1
  V  V49  1  0.50061036  0.25292964  0.24987137  1
  V  V50  1  0.37632520  0.62536594  0.75030253  1
  V  V51  1  0.62443876  -0.00092759  0.12751193  1
  V  V52  1  0.37372495  0.25083567  0.12299113  1
  V  V53  1  0.25003330  0.50132857  0.24985625  1
  V  V54  1  -0.00021694  0.24915247  0.75008358  1
  V  V55  1  0.37269383  0.12580866  0.24764703  1
  V  V56  1  0.62648371  0.49872670  0.62520129  1
  V  V57  1  0.37421389  0.62652395  0.24971551  1
  V  V58  1  0.49983558  0.24972334  0.74970196  1
  V  V59  1  0.25012267  0.00106100  0.74943518  1
  V  V60  1  0.87341401  0.87456364  0.00025154  1
  V  V61  1  0.24936772  0.37640667  0.12383380  1
  V  V62  1  0.12545552  0.37546010  0.24979088  1
  V  V63  1  -0.00175950  0.12477961  0.12393626  1
  V  V64  1  0.62439971  0.50077768  0.12756576  1
  V  V65  1  0.12699356  0.62549076  0.49990454  1
  V  V66  1  0.87512660  0.49999556  0.87623316  1
  V  V67  1  0.24850485  0.00038185  0.24828552  1
  V  V68  1  0.49814062  0.12528510  0.12204850  1
  V  V69  1  0.62503302  0.74883159  0.87667220  1
  V  V70  1  0.00125828  0.37413656  0.37568025  1
  V  V71  1  0.87403758  -0.00113436  0.87523134  1
  V  V72  1  0.49892206  0.87520573  0.87469634  1
  V  V73  1  0.87413473  0.75045554  0.12499050  1
  V  V74  1  0.62504080  0.12435526  0.50033027  1
  V  V75  1  0.37395360  0.75318969  0.12478750  1
  V  V76  1  0.00161003  0.49924316  0.50062565  1
  V  V77  1  0.50055209  0.62693488  0.12527795  1
  V  V78  1  0.74971598  -0.00198496  0.75020563  1
  V  V79  1  0.00167739  0.62432067  0.62541870  1
  V  V80  1  0.24913717  0.87613844  0.12449053  1
  V  V81  1  0.37469769  0.12539358  0.74897060  1
  V  V82  1  0.24902117  0.12525113  0.37345673  1
  V  V83  1  0.00018926  0.12443815  0.62533227  1
  V  V84  1  0.75157177  0.24820306  0.50084521  1
  V  V85  1  0.87613522  0.74853516  0.62506454  1
  V  V86  1  0.62562030  0.87354414  0.74946593  1
  V  V87  1  0.75123418  0.37422753  0.62673473  1
  V  V88  1  0.75046205  0.87389192  0.62643406  1
  V  V89  1  0.50066458  0.12450269  0.62442736  1
  V  V90  1  0.25058431  0.25101716  0.49879210  1
  V  V91  1  0.00054131  -0.00139164  0.49972834  1
  V  V92  1  0.12545739  0.87551725  0.74964127  1
  V  V93  1  0.25273187  0.37431141  0.62370874  1
  V  V94  1  0.12561786  -0.00059227  0.62395222  1
  V  V95  1  0.12372427  0.50142897  0.12445109  1
  Zn  Zn96  1  0.87340153  0.37400832  0.00002289  1
  Zn  Zn97  1  0.37715349  0.37282802  0.49765389  1
  Zn  Zn98  1  0.87587325  0.12335994  0.75032901  1
  Zn  Zn99  1  0.50121240  0.87442485  0.37766719  1
  Zn  Zn100  1  0.25135997  0.49923842  0.74927398  1
  Zn  Zn101  1  0.75207309  0.62464334  0.37336457  1
  Zn  Zn102  1  0.50151901  0.37366949  0.37445187  1
  Zn  Zn103  1  0.37809769  0.87554648  0.49995064  1
  Zn  Zn104  1  0.74933547  0.50055845  0.25215930  1
  Zn  Zn105  1  0.62487254  0.62591465  0.00158930  1
  Zn  Zn106  1  0.24740047  0.75255589  0.00073424  1
  Zn  Zn107  1  -0.00185698  0.00001882  -0.00026433  1
  Zn  Zn108  1  0.74828002  -0.00040385  0.24977639  1
  Zn  Zn109  1  0.74815941  0.87493794  0.12867959  1
  Zn  Zn110  1  0.50203555  0.75454622  0.25263521  1
  Zn  Zn111  1  0.12641107  0.75119970  0.37410402  1
  Zn  Zn112  1  0.62473317  -0.00248596  0.62459844  1
  Zn  Zn113  1  0.62535230  0.25139593  0.37339045  1
  Zn  Zn114  1  0.12422024  0.87528151  0.25014797  1
  Zn  Zn115  1  0.74997167  0.49990007  0.75199662  1
  Zn  Zn116  1  0.50154760  0.62423234  0.62632191  1
  Zn  Zn117  1  0.37248330  0.87520702  -0.00295261  1
  Zn  Zn118  1  0.37375091  -0.00099428  0.87428171  1
  Zn  Zn119  1  0.49993269  0.50062786  0.00047965  1
  Zn  Zn120  1  0.74835955  0.25053526  0.00012699  1
  Zn  Zn121  1  0.12475285  0.62716527  0.00023970  1
  Zn  Zn122  1  0.62372643  0.12659846  -0.00081149  1
  Zn  Zn123  1  0.37585679  0.25041918  0.62202912  1
  Zn  Zn124  1  0.62433863  0.37557839  0.25280445  1
  Zn  Zn125  1  0.50000502  -0.00123402  0.50005270  1
  Zn  Zn126  1  0.62491027  0.87701869  0.25366146  1
  Zn  Zn127  1  0.87364137  0.62303467  0.24999488  1
  Zn  Zn128  1  0.18613142  0.18757980  0.18560820  1
  Zn  Zn129  1  0.18658357  0.18869018  0.68617938  1
  Zn  Zn130  1  0.18604017  0.68831068  0.18759441  1
  Zn  Zn131  1  0.18968657  0.68808206  0.68812570  1
  Zn  Zn132  1  0.68567396  0.18498897  0.18614499  1
  Zn  Zn133  1  0.68781253  0.18719872  0.68886821  1
  Zn  Zn134  1  0.69139793  0.68516246  0.19182096  1
  Zn  Zn135  1  0.68786325  0.68562320  0.68875010  1
  Zn  Zn136  1  0.31447302  0.31473196  0.31214182  1
  Zn  Zn137  1  0.31364461  0.31134855  0.81041449  1
  Zn  Zn138  1  0.31217476  0.81471442  0.31110520  1
  Zn  Zn139  1  0.31361703  0.81305060  0.81157138  1
  Zn  Zn140  1  0.81126494  0.31242484  0.31204363  1
  Zn  Zn141  1  0.81336603  0.31229864  0.81204827  1
  Zn  Zn142  1  0.80942373  0.81509745  0.31106406  1
  Zn  Zn143  1  0.81224066  0.81072465  0.81370195  1
  Zn  Zn144  1  0.18900531  0.43853068  0.43732326  1
  Zn  Zn145  1  0.18659909  0.44004341  0.93728795  1
  Zn  Zn146  1  0.18856078  0.93527337  0.43564446  1
  Zn  Zn147  1  0.18710976  0.93820614  0.93874960  1
  Zn  Zn148  1  0.68679908  0.43245735  0.43725612  1
  Zn  Zn149  1  0.68676479  0.43941977  0.94127484  1
  Zn  Zn150  1  0.68938679  0.93721171  0.43924123  1
  Zn  Zn151  1  0.68612728  0.93673317  0.93906327  1
  Zn  Zn152  1  0.31127298  0.06241473  0.06030509  1
  Zn  Zn153  1  0.31285944  0.06402565  0.56179956  1
  Zn  Zn154  1  0.31239649  0.56422705  0.06042488  1
  Zn  Zn155  1  0.31514775  0.56262901  0.56259617  1
  Zn  Zn156  1  0.81079159  0.06187944  0.06079585  1
  Zn  Zn157  1  0.81309049  0.06072727  0.56356898  1
  Zn  Zn158  1  0.81277703  0.56279877  0.06268138  1
  Zn  Zn159  1  0.81281916  0.56082978  0.56253009  1
  Zn  Zn160  1  0.43636727  0.43882215  0.18664071  1
  Zn  Zn161  1  0.43817746  0.43847192  0.68782651  1
  Zn  Zn162  1  0.44044677  0.93505916  0.19202148  1
  Zn  Zn163  1  0.43707486  0.93805194  0.68790133  1
  Zn  Zn164  1  0.93709766  0.43606612  0.18741318  1
  Zn  Zn165  1  0.93789114  0.43766603  0.68936937  1
  Zn  Zn166  1  0.93608671  0.93704346  0.18696819  1
  Zn  Zn167  1  0.93669148  0.93741068  0.68838941  1
  Zn  Zn168  1  0.06091198  0.06150437  0.31069060  1
  Zn  Zn169  1  0.06196079  0.06154179  0.81252350  1
  Zn  Zn170  1  0.06210013  0.56417993  0.31268353  1
  Zn  Zn171  1  0.06346129  0.56113708  0.81251597  1
  Zn  Zn172  1  0.56087604  0.06795713  0.31138670  1
  Zn  Zn173  1  0.56407273  0.06107629  0.81129245  1
  Zn  Zn174  1  0.56297739  0.56629911  0.31312379  1
  Zn  Zn175  1  0.56291910  0.56234101  0.81310269  1
  Zn  Zn176  1  0.43597812  0.18723939  0.43620445  1
  Zn  Zn177  1  0.43641043  0.18704459  0.93521053  1
  Zn  Zn178  1  0.43993410  0.68532544  0.43982304  1
  Zn  Zn179  1  0.43675391  0.68836443  0.93949607  1
  Zn  Zn180  1  0.93778398  0.18627900  0.43758703  1
  Zn  Zn181  1  0.93409120  0.18816876  0.93895580  1
  Zn  Zn182  1  0.93895542  0.68572141  0.43734682  1
  Zn  Zn183  1  0.93769610  0.68739931  0.93918985  1
  Zn  Zn184  1  0.06081990  0.31313268  0.06216995  1
  Zn  Zn185  1  0.06473525  0.31163774  0.56284670  1
  Zn  Zn186  1  0.06205850  0.81353941  0.06144438  1
  Zn  Zn187  1  0.06470232  0.81121588  0.56163300  1
  Zn  Zn188  1  0.56328971  0.31351719  0.06099187  1
  Zn  Zn189  1  0.56466432  0.31177110  0.56283799  1
  Zn  Zn190  1  0.56186994  0.81483379  0.06208009  1
  Zn  Zn191  1  0.56131885  0.81309210  0.56023968  1
  O  O192  1  0.11841408  0.12132522  0.11897310  1
  O  O193  1  0.12003266  0.11925114  0.61824757  1
  O  O194  1  0.11854669  0.61835038  0.12396627  1
  O  O195  1  0.12119556  0.61945791  0.62066538  1
  O  O196  1  0.61631606  0.11662803  0.12067934  1
  O  O197  1  0.61766003  0.12424435  0.61793045  1
  O  O198  1  0.61597926  0.61917351  0.12660128  1
  O  O199  1  0.62505443  0.61715208  0.61909588  1
  O  O200  1  0.37792504  0.38467684  0.37703183  1
  O  O201  1  0.37955561  0.37964096  0.87831140  1
  O  O202  1  0.37384409  0.88859249  0.37555555  1
  O  O203  1  0.38265616  0.87799180  0.87604044  1
  O  O204  1  0.88209710  0.37953175  0.38193916  1
  O  O205  1  0.88173869  0.38118999  0.87584571  1
  O  O206  1  0.88059524  0.88025566  0.38200226  1
  O  O207  1  0.87980688  0.87876148  0.87988391  1
  O  O208  1  0.25589424  0.00661187  0.36862926  1
  O  O209  1  0.24894568  0.00755579  0.86723608  1
  O  O210  1  0.25551894  0.50615579  0.36924182  1
  O  O211  1  0.25535437  0.50954798  0.87260696  1
  O  O212  1  0.75771551  0.00764418  0.37639167  1
  O  O213  1  0.75337470  0.00616726  0.86982839  1
  O  O214  1  0.76343419  0.49617326  0.37707522  1
  O  O215  1  0.75644124  0.50631519  0.87540563  1
  O  O216  1  0.24487197  0.49597744  0.12999859  1
  O  O217  1  0.24517892  0.49045408  0.62488263  1
  O  O218  1  0.24452039  0.99655093  0.12933451  1
  O  O219  1  0.24415660  0.99572985  0.62918923  1
  O  O220  1  0.74190434  0.49295293  0.12636083  1
  O  O221  1  0.74518701  0.49144178  0.62663110  1
  O  O222  1  0.73606260  1.00130145  0.12415324  1
  O  O223  1  0.75025269  0.99153165  0.63183780  1
  O  O224  1  0.00649008  0.36862493  0.25547302  1
  O  O225  1  0.00632821  0.36894142  0.75537454  1
  O  O226  1  -0.00036969  0.86610021  0.25560288  1
  O  O227  1  0.00587254  0.86929717  0.75434304  1
  O  O228  1  0.49802518  0.36293728  0.24793787  1
  O  O229  1  0.50557960  0.36935430  0.75518965  1
  O  O230  1  0.50645022  0.87148486  0.25914431  1
  O  O231  1  0.50579312  0.86958540  0.75465429  1
  O  O232  1  0.49128834  0.13413825  0.24178820  1
  O  O233  1  0.49659556  0.12951873  0.74247737  1
  O  O234  1  0.49290569  0.62799005  0.23962396  1
  O  O235  1  0.49412034  0.63208472  0.74985849  1
  O  O236  1  0.99372706  0.13132550  0.24443638  1
  O  O237  1  1.00003627  0.13104154  0.74299948  1
  O  O238  1  0.99757443  0.63393380  0.24463239  1
  O  O239  1  0.99616180  0.63046140  0.74466815  1
  O  O240  1  0.36779994  0.25576302  0.00333068  1
  O  O241  1  0.36654054  0.25245937  0.50142436  1
  O  O242  1  0.37252464  0.75201508  0.01445377  1
  O  O243  1  0.36915013  0.74945501  0.50674093  1
  O  O244  1  0.87030315  0.25316934  0.00896600  1
  O  O245  1  0.87229909  0.25424641  0.50655945  1
  O  O246  1  0.86960194  0.75559418  0.00515296  1
  O  O247  1  0.87214574  0.75402886  0.50618194  1
  O  O248  1  0.12968149  0.24393372  0.49267097  1
  O  O249  1  0.12964589  0.24550861  0.99433797  1
  O  O250  1  0.13311699  0.74223197  0.49931995  1
  O  O251  1  0.12660279  0.74777447  0.99075013  1
  O  O252  1  0.63236581  0.23866804  0.50091558  1
  O  O253  1  0.62680194  0.24701011  0.99071524  1
  O  O254  1  0.63172732  0.74306750  0.49517713  1
  O  O255  1  0.63074139  0.74956584  0.99392265  1
  O  O256  1  0.49238801  0.24574776  0.12927593  1
  O  O257  1  0.50032931  0.24009294  0.63058185  1
  O  O258  1  0.49213945  0.74338879  0.12708528  1
  O  O259  1  0.49453570  0.74802386  0.63209335  1
  O  O260  1  0.99418694  0.24524092  0.13090592  1
  O  O261  1  0.99697148  0.24427580  0.62967117  1
  O  O262  1  0.99470526  0.74595138  0.13211203  1
  O  O263  1  0.99600717  0.74409311  0.63024095  1
  O  O264  1  0.00580776  0.25438453  0.36973776  1
  O  O265  1  0.00461455  0.25494921  0.87024611  1
  O  O266  1  -0.00014763  0.75466267  0.36654261  1
  O  O267  1  0.00468256  0.75526621  0.86832796  1
  O  O268  1  0.49834097  0.24910973  0.36130788  1
  O  O269  1  0.50496045  0.25537942  0.86862829  1
  O  O270  1  0.51291044  0.74798141  0.37647230  1
  O  O271  1  0.50467263  0.75496826  0.87034786  1
  O  O272  1  0.24325008  0.13078380  0.49377439  1
  O  O273  1  0.24346736  0.13164408  0.99352424  1
  O  O274  1  0.24617936  0.62962711  0.49528319  1
  O  O275  1  0.24832278  0.62789400  0.98665965  1
  O  O276  1  0.74372290  0.12901447  0.49718392  1
  O  O277  1  0.74672102  0.12523962  0.98545014  1
  O  O278  1  0.74596864  0.63076255  0.49932982  1
  O  O279  1  0.74913024  0.63275806  0.99393022  1
  O  O280  1  0.25387425  0.36981568  0.00412213  1
  O  O281  1  0.24912323  0.36988470  0.50903583  1
  O  O282  1  0.25299886  0.87404452  0.00864704  1
  O  O283  1  0.25179725  0.86833293  0.50677401  1
  O  O284  1  0.75082490  0.37373221  0.01403361  1
  O  O285  1  0.75713946  0.36721292  0.50728508  1
  O  O286  1  0.75601029  0.86762867  0.00132055  1
  O  O287  1  0.75763932  0.86870802  0.50713338  1
  O  O288  1  0.12998601  0.49461309  0.24507337  1
  O  O289  1  0.12676572  0.49262615  0.74271737  1
  O  O290  1  0.13089420  1.00064078  0.24212809  1
  O  O291  1  0.13006174  0.99486789  0.74302674  1
  O  O292  1  0.62459872  0.49902410  0.23847002  1
  O  O293  1  0.62608645  0.49284397  0.74374775  1
  O  O294  1  0.62324211  1.00398744  0.23838222  1
  O  O295  1  0.63204568  0.99105392  0.74812470  1
  O  O296  1  0.36857050  0.00712249  0.25593018  1
  O  O297  1  0.36735104  0.00769773  0.75061918  1
  O  O298  1  0.36870866  0.50669442  0.25418971  1
  O  O299  1  0.37384805  0.50663516  0.75682872  1
  O  O300  1  0.87495421  0.00770195  0.25708668  1
  O  O301  1  0.86770958  0.00003425  0.75711903  1
  O  O302  1  0.87739608  0.49770879  0.26429444  1
  O  O303  1  0.87510404  0.50684565  0.75745374  1
  O  O304  1  0.12100911  0.36992424  0.36933514  1
  O  O305  1  0.11986574  0.36982934  0.86967177  1
  O  O306  1  0.11659371  0.87214387  0.37173624  1
  O  O307  1  0.11981513  0.87092578  0.86841744  1
  O  O308  1  0.62078202  0.36849208  0.37017484  1
  O  O309  1  0.61996035  0.37102677  0.87055344  1
  O  O310  1  0.62576569  0.86280786  0.37928629  1
  O  O311  1  0.61926658  0.86831129  0.86904751  1
  O  O312  1  0.37752533  0.13178079  0.12818058  1
  O  O313  1  0.38415440  0.12730129  0.62966912  1
  O  O314  1  0.38038259  0.63253420  0.12975002  1
  O  O315  1  0.37669434  0.63136190  0.63270348  1
  O  O316  1  0.87831691  0.12994202  0.13008992  1
  O  O317  1  0.88257852  0.13040586  0.62618654  1
  O  O318  1  0.88279387  0.63208388  0.12648288  1
  O  O319  1  0.88236066  0.62890522  0.63019278  1
  O  O320  1  0.25363865  0.25639902  0.11854248  1
  O  O321  1  0.24849157  0.25946422  0.61810619  1
  O  O322  1  0.25774300  0.75601040  0.12553771  1
  O  O323  1  0.25614317  0.75526934  0.62028739  1
  O  O324  1  0.75331177  0.25799226  0.12507364  1
  O  O325  1  0.75707400  0.25401187  0.62098895  1
  O  O326  1  0.75621639  0.75037762  0.11921710  1
  O  O327  1  0.75734510  0.75406749  0.62097608  1
  O  O328  1  0.24434588  0.24504612  0.37759282  1
  O  O329  1  0.24302831  0.24569208  0.87908108  1
  O  O330  1  0.24997518  0.74341714  0.38039083  1
  O  O331  1  0.24495804  0.74157496  0.87420030  1
  O  O332  1  0.75137190  0.24255711  0.38342074  1
  O  O333  1  0.74504732  0.24122283  0.87383309  1
  O  O334  1  0.74398273  0.74901326  0.38390911  1
  O  O335  1  0.74484751  0.74419365  0.88115441  1
  O  O336  1  0.00552739  0.12463553  0.00604050  1
  O  O337  1  0.00604105  0.11858393  0.50492601  1
  O  O338  1  0.00214119  0.61838773  0.00666070  1
  O  O339  1  0.00675979  0.61916164  0.50678240  1
  O  O340  1  0.49911996  0.11636500  0.00347918  1
  O  O341  1  0.50838392  0.12677060  0.50806944  1
  O  O342  1  0.50009214  0.62397403  0.01417085  1
  O  O343  1  0.50804761  0.61235635  0.50305653  1
  O  O344  1  0.50005052  0.38571699  0.49942931  1
  O  O345  1  0.49173244  0.37576877  0.99285028  1
  O  O346  1  0.49599684  0.88186743  0.49624611  1
  O  O347  1  0.49736543  0.88435357  0.99366910  1
  O  O348  1  0.99696896  0.37906879  0.49542514  1
  O  O349  1  0.99872641  0.38166445  0.99340136  1
  O  O350  1  0.99529649  0.87920578  0.49573567  1
  O  O351  1  0.99214324  0.87634716  0.99207631  1
  O  O352  1  0.49565171  0.50050154  0.38384382  1
  O  O353  1  0.49386011  0.49349575  0.87738596  1
  O  O354  1  0.48624935  1.00583180  0.37511690  1
  O  O355  1  0.50027144  0.99496964  0.88278062  1
  O  O356  1  0.99507733  0.49309203  0.38143252  1
  O  O357  1  0.99563894  0.49497800  0.88021612  1
  O  O358  1  0.99461973  0.99499587  0.38091564  1
  O  O359  1  0.99308738  0.99292958  0.87495752  1
  O  O360  1  0.00495730  0.00762935  0.12351485  1
  O  O361  1  0.00576652  0.00368485  0.61936419  1
  O  O362  1  0.00459932  0.50441220  0.12122369  1
  O  O363  1  0.00621044  0.50451768  0.61986997  1
  O  O364  1  0.50420208  0.00507934  0.11745846  1
  O  O365  1  0.50200276  0.01365010  0.62431503  1
  O  O366  1  0.50574427  0.50959745  0.12527127  1
  O  O367  1  0.50719955  0.49969330  0.61591841  1
  O  O368  1  0.24468263  0.38124449  0.24354357  1
  O  O369  1  0.24418593  0.37436585  0.74003271  1
  O  O370  1  0.24696307  0.88271661  0.24210623  1
  O  O371  1  0.24410152  0.88067304  0.74379367  1
  O  O372  1  0.74730293  0.37683519  0.23829387  1
  O  O373  1  0.74383607  0.37599056  0.74402592  1
  O  O374  1  0.74387757  0.88218179  0.24657524  1
  O  O375  1  0.74518665  0.87750671  0.74564153  1
  O  O376  1  0.25364305  0.12107969  0.25363657  1
  O  O377  1  0.25343924  0.12109488  0.75305065  1
  O  O378  1  0.25446458  0.61997547  0.25513729  1
  O  O379  1  0.25650786  0.62404232  0.76003331  1
  O  O380  1  0.75624300  0.12421025  0.25743139  1
  O  O381  1  0.75120241  0.11849747  0.75944594  1
  O  O382  1  0.75744286  0.61796539  0.25616263  1
  O  O383  1  0.75812892  0.62380896  0.75788054  1
  O  O384  1  0.36704680  0.11887968  0.36772740  1
  O  O385  1  0.36650202  0.12418690  0.86692610  1
  O  O386  1  0.37007065  0.61961748  0.36951355  1
  O  O387  1  0.36780587  0.62155112  0.87065753  1
  O  O388  1  0.87089999  0.11967870  0.37083026  1
  O  O389  1  0.86581011  0.11896547  0.87310936  1
  O  O390  1  0.87653555  0.61032131  0.37732752  1
  O  O391  1  0.87101974  0.62020210  0.86999355  1
  O  O392  1  0.12998937  0.38037764  0.13068364  1
  O  O393  1  0.13327017  0.37937171  0.62933193  1
  O  O394  1  0.13095793  0.88244922  0.12586526  1
  O  O395  1  0.13063836  0.88023845  0.63005167  1
  O  O396  1  0.63078543  0.38364172  0.12694525  1
  O  O397  1  0.63188888  0.37871132  0.63069389  1
  O  O398  1  0.62379319  0.88783527  0.12651210  1
  O  O399  1  0.63279514  0.87433669  0.63121223  1
  O  O400  1  0.11985135  0.25542701  0.25456098  1
  O  O401  1  0.11917157  0.25526400  0.75536050  1
  O  O402  1  0.11098580  0.75163329  0.25087758  1
  O  O403  1  0.11976875  0.75632001  0.75428083  1
  O  O404  1  0.61044639  0.24831147  0.24818360  1
  O  O405  1  0.61950890  0.25634193  0.75542770  1
  O  O406  1  0.62642480  0.74886942  0.26472076  1
  O  O407  1  0.61995747  0.75443428  0.75640305  1
  O  O408  1  0.37948274  0.24540240  0.24217547  1
  O  O409  1  0.38248531  0.24315246  0.74669994  1
  O  O410  1  0.37528000  0.74455895  0.23991377  1
  O  O411  1  0.38105714  0.74490734  0.74449544  1
  O  O412  1  0.88092243  0.24433009  0.24518336  1
  O  O413  1  0.88283835  0.24815807  0.74326428  1
  O  O414  1  0.88547233  0.75011364  0.24510551  1
  O  O415  1  0.88175441  0.74420932  0.74461990  1
  O  O416  1  0.38570242  0.49978110  0.49463440  1
  O  O417  1  0.37549971  0.49322413  0.99310289  1
  O  O418  1  0.37434447  1.00218012  0.48733973  1
  O  O419  1  0.38664859  0.99932283  0.99819187  1
  O  O420  1  0.88255569  0.49235284  0.49467412  1
  O  O421  1  0.88236116  0.49797238  0.99383142  1
  O  O422  1  0.88172061  0.99348277  0.49551962  1
  O  O423  1  0.87530338  0.99295048  0.99263894  1
  O  O424  1  0.12240446  0.00827006  0.00606758  1
  O  O425  1  0.12039678  0.00498217  0.50439459  1
  O  O426  1  0.11813794  0.50169528  0.00724722  1
  O  O427  1  0.12048859  0.50527773  0.50534744  1
  O  O428  1  0.61264543  0.00117041  0.00691940  1
  O  O429  1  0.62470656  0.01384209  0.50264515  1
  O  O430  1  0.62129624  0.50386266  0.01441594  1
  O  O431  1  0.61941709  0.50270944  0.50481272  1
  O  O432  1  0.36765544  0.37098124  0.11826173  1
  O  O433  1  0.36325455  0.37357596  0.62366783  1
  O  O434  1  0.36890486  0.86686330  0.12638474  1
  O  O435  1  0.36814238  0.86877420  0.62487966  1
  O  O436  1  0.86549386  0.36935178  0.12560422  1
  O  O437  1  0.87218505  0.36900730  0.62049194  1
  O  O438  1  0.87337864  0.86866416  0.11778871  1
  O  O439  1  0.87146265  0.86765827  0.62013091  1
  O  O440  1  0.12924257  0.12991948  0.37905268  1
  O  O441  1  0.12916742  0.13140607  0.87915069  1
  O  O442  1  0.13233640  0.62554566  0.38216356  1
  O  O443  1  0.13423312  0.63069591  0.87320824  1
  O  O444  1  0.63061315  0.12800045  0.38473942  1
  O  O445  1  0.63380746  0.13094037  0.87328470  1
  O  O446  1  0.62894226  0.63243842  0.38330270  1
  O  O447  1  0.63102760  0.63107933  0.87744781  1
