# generated using pymatgen
data_V3Zn3O8
_symmetry_space_group_name_H-M   'P 1'
_cell_length_a   17.08437961
_cell_length_b   17.08384950
_cell_length_c   17.08287211
_cell_angle_alpha   89.98188362
_cell_angle_beta   90.00502902
_cell_angle_gamma   90.00577396
_symmetry_Int_Tables_number   1
_chemical_formula_structural   V3Zn3O8
_chemical_formula_sum   'V96 Zn96 O256'
_cell_volume   4985.92583121
_cell_formula_units_Z   32
loop_
 _symmetry_equiv_pos_site_id
 _symmetry_equiv_pos_as_xyz
  1  'x, y, z'
loop_
 _atom_site_type_symbol
 _atom_site_label
 _atom_site_symmetry_multiplicity
 _atom_site_fract_x
 _atom_site_fract_y
 _atom_site_fract_z
 _atom_site_occupancy
  V  V0  1  0.50050175  0.75097230  0.24925480  1
  V  V1  1  0.50091647  0.50011285  -0.00117771  1
  V  V2  1  0.37426115  0.87404113  0.50015098  1
  V  V3  1  0.62473598  0.12563118  0.49942701  1
  V  V4  1  0.62376357  0.87290650  0.75018790  1
  V  V5  1  0.37524224  0.37469112  0.50061791  1
  V  V6  1  0.49996779  0.62433423  0.62547417  1
  V  V7  1  0.87573598  0.50015120  0.87494070  1
  V  V8  1  0.87505457  0.74997785  0.62537394  1
  V  V9  1  0.12473770  0.87519344  0.74973956  1
  V  V10  1  0.74978183  0.37600570  0.12524363  1
  V  V11  1  0.87520676  0.50078134  0.37485137  1
  V  V12  1  0.37511806  0.62379546  0.74934666  1
  V  V13  1  0.74977147  0.74938725  0.49946189  1
  V  V14  1  0.50027632  0.24942329  0.75023755  1
  V  V15  1  0.00214097  0.50089050  0.00010091  1
  V  V16  1  0.12510014  0.25079863  0.87534287  1
  V  V17  1  0.24933122  0.87419208  0.62507260  1
  V  V18  1  0.87459360  0.87564736  0.49851198  1
  V  V19  1  0.75155601  0.49954411  0.75012247  1
  V  V20  1  0.62420258  0.00137458  0.12546767  1
  V  V21  1  0.37589431  0.87610860  -0.00099267  1
  V  V22  1  0.49954492  0.87443249  0.87443914  1
  V  V23  1  0.25035253  0.37518521  0.62557828  1
  V  V24  1  0.62466414  0.24986226  0.87407504  1
  V  V25  1  0.62614410  0.62486153  0.49974070  1
  V  V26  1  0.50087574  0.49982369  0.49984331  1
  V  V27  1  0.62510976  0.37556040  0.25045330  1
  V  V28  1  0.24888496  0.74884315  0.49918858  1
  V  V29  1  0.00025521  0.00097988  0.00062697  1
  V  V30  1  0.37587521  0.37482839  -0.00070147  1
  V  V31  1  0.74916161  0.00113896  0.24982636  1
  V  V32  1  0.87433972  0.25089017  0.12518752  1
  V  V33  1  0.37334278  0.12337536  0.75056242  1
  V  V34  1  0.74979698  0.25006453  -0.00044875  1
  V  V35  1  0.62417918  0.12503360  0.00075529  1
  V  V36  1  0.25029876  0.37539697  0.12591200  1
  V  V37  1  0.87517524  0.37357203  0.50150850  1
  V  V38  1  0.87503149  0.37611974  -0.00006443  1
  V  V39  1  0.50057807  0.37526006  0.37493218  1
  V  V40  1  0.37544205  0.24934734  0.12588778  1
  V  V41  1  0.87422161  0.87559080  0.00109793  1
  V  V42  1  0.49946128  0.25011956  0.24999308  1
  V  V43  1  0.49960819  0.12572629  0.12538285  1
  V  V44  1  0.74883617  0.87460338  0.62492195  1
  V  V45  1  0.37401183  0.25007513  0.62515451  1
  V  V46  1  0.62394447  -0.00114188  0.62451842  1
  V  V47  1  0.00042166  0.37636754  0.37531346  1
  V  V48  1  0.25054738  0.74896060  -0.00124241  1
  V  V49  1  -0.00109405  0.24852578  0.74924557  1
  V  V50  1  0.49877591  0.12373182  0.62541642  1
  V  V51  1  0.24735856  0.87641963  0.12700991  1
  V  V52  1  0.12446648  0.12557728  0.00239824  1
  V  V53  1  0.25121245  0.62428891  0.87460353  1
  V  V54  1  0.12612348  0.74932337  0.87460329  1
  V  V55  1  0.87422555  0.00025788  0.37467247  1
  V  V56  1  0.87577077  0.62555123  0.74960163  1
  V  V57  1  -0.00058265  0.75049432  0.74972939  1
  V  V58  1  0.37593005  0.50053615  0.37400274  1
  V  V59  1  0.00142415  0.50019314  0.50088189  1
  V  V60  1  0.62553793  0.37376818  0.74980117  1
  V  V61  1  0.62437994  0.87652229  0.24960541  1
  V  V62  1  0.00028811  0.87604949  0.87578764  1
  V  V63  1  0.74907662  0.75017919  0.00021658  1
  V  V64  1  0.12311275  0.00016660  0.62434132  1
  V  V65  1  -0.00060447  0.62724621  0.12660288  1
  V  V66  1  0.62537544  0.24967181  0.37689220  1
  V  V67  1  0.75014023  0.00014447  0.75066480  1
  V  V68  1  0.74952638  0.62601465  0.87552850  1
  V  V69  1  0.62604053  0.49933242  0.62530127  1
  V  V70  1  0.25001634  0.49932765  0.75036269  1
  V  V71  1  0.25211897  0.49983294  0.24958729  1
  V  V72  1  0.62536814  0.50123073  0.12365106  1
  V  V73  1  0.12297083  0.75112644  0.37168665  1
  V  V74  1  0.37514959  0.74832558  0.62474346  1
  V  V75  1  0.75226889  0.37310259  0.62418150  1
  V  V76  1  0.37689868  0.62507214  0.24918069  1
  V  V77  1  0.75081435  0.50170199  0.25031775  1
  V  V78  1  0.25004631  0.00033228  0.75090092  1
  V  V79  1  0.87355794  0.12540690  0.25091025  1
  V  V80  1  0.12479664  0.25009323  0.37627140  1
  V  V81  1  0.12585837  0.49959648  0.62491734  1
  V  V82  1  0.37584907  0.75002817  0.12557227  1
  V  V83  1  0.75053930  0.62506440  0.37526458  1
  V  V84  1  0.49891401  -0.00086608  0.50035508  1
  V  V85  1  -0.00140060  -0.00076707  0.49911454  1
  V  V86  1  0.12538735  0.62468144  0.49995495  1
  V  V87  1  -0.00097917  0.25165826  0.25010097  1
  V  V88  1  0.12591803  0.37676061  0.25020060  1
  V  V89  1  -0.00018239  0.12586616  0.12471247  1
  V  V90  1  0.37284408  0.00049281  0.37514313  1
  V  V91  1  0.49945763  0.87504495  0.37441540  1
  V  V92  1  0.12292916  0.12430721  0.50045533  1
  V  V93  1  0.24977098  0.24945201  0.00117982  1
  V  V94  1  0.24980653  0.12469975  0.37483262  1
  V  V95  1  0.75004247  0.12362162  0.87362225  1
  Zn  Zn96  1  0.25053078  0.62527694  0.37339323  1
  Zn  Zn97  1  0.12463400  0.00062289  0.12830983  1
  Zn  Zn98  1  0.49882790  0.00110897  -0.00005897  1
  Zn  Zn99  1  0.87556872  0.00232947  0.87334480  1
  Zn  Zn100  1  0.50259613  0.62722786  0.12306206  1
  Zn  Zn101  1  0.50101365  0.74754503  0.75071675  1
  Zn  Zn102  1  0.25176512  0.12279223  0.87714613  1
  Zn  Zn103  1  -0.00282944  0.75213020  0.24852247  1
  Zn  Zn104  1  0.62429644  0.62661180  -0.00074423  1
  Zn  Zn105  1  0.37409501  0.12391006  0.25008732  1
  Zn  Zn106  1  0.12718735  0.62423463  0.00064164  1
  Zn  Zn107  1  0.37362092  0.00110893  0.87576865  1
  Zn  Zn108  1  -0.00151537  0.87449478  0.36957584  1
  Zn  Zn109  1  0.74940618  0.87483446  0.12545970  1
  Zn  Zn110  1  0.12149484  0.87749207  0.24969179  1
  Zn  Zn111  1  0.62405384  0.74804133  0.87383906  1
  Zn  Zn112  1  0.75246834  0.24767105  0.50087638  1
  Zn  Zn113  1  0.37561443  0.49811195  0.87431976  1
  Zn  Zn114  1  0.12695335  0.50165926  0.12511986  1
  Zn  Zn115  1  0.24780398  -0.00052907  0.25013642  1
  Zn  Zn116  1  -0.00319203  0.12435882  0.62569864  1
  Zn  Zn117  1  0.87425172  0.75049886  0.12894735  1
  Zn  Zn118  1  0.87512914  0.62836195  0.25051826  1
  Zn  Zn119  1  0.49887050  0.37484724  0.87355418  1
  Zn  Zn120  1  0.87508589  0.24648434  0.62454361  1
  Zn  Zn121  1  0.24885150  0.25051603  0.50158712  1
  Zn  Zn122  1  0.62546427  0.75053257  0.37396469  1
  Zn  Zn123  1  0.12483924  0.37504504  0.75003872  1
  Zn  Zn124  1  0.00038943  0.37571011  0.87410517  1
  Zn  Zn125  1  0.00064201  0.62456089  0.62561232  1
  Zn  Zn126  1  0.87508711  0.12336419  0.74848886  1
  Zn  Zn127  1  0.74960810  0.12695072  0.37688568  1
  Zn  Zn128  1  0.18657666  0.18884985  0.18912944  1
  Zn  Zn129  1  0.18675894  0.18635958  0.68786168  1
  Zn  Zn130  1  0.18714850  0.68620951  0.18671238  1
  Zn  Zn131  1  0.18748280  0.68603598  0.68730866  1
  Zn  Zn132  1  0.68684390  0.18783806  0.18863125  1
  Zn  Zn133  1  0.68826300  0.18661434  0.68621199  1
  Zn  Zn134  1  0.68694586  0.68783018  0.18609117  1
  Zn  Zn135  1  0.68750612  0.68752549  0.68831543  1
  Zn  Zn136  1  0.31267464  0.31155997  0.31314433  1
  Zn  Zn137  1  0.31220709  0.31220619  0.81334381  1
  Zn  Zn138  1  0.31122066  0.81126214  0.31205647  1
  Zn  Zn139  1  0.31376916  0.81128757  0.81133353  1
  Zn  Zn140  1  0.81138014  0.31340256  0.31482482  1
  Zn  Zn141  1  0.81396549  0.31205001  0.81279452  1
  Zn  Zn142  1  0.81226625  0.81236681  0.31122009  1
  Zn  Zn143  1  0.81247411  0.81368932  0.81415091  1
  Zn  Zn144  1  0.18944524  0.43811639  0.43730684  1
  Zn  Zn145  1  0.18830674  0.43693319  0.93712693  1
  Zn  Zn146  1  0.18569541  0.93666906  0.43745069  1
  Zn  Zn147  1  0.18714078  0.93872484  0.93867408  1
  Zn  Zn148  1  0.68916545  0.43665867  0.43807270  1
  Zn  Zn149  1  0.68694565  0.43727405  0.93611310  1
  Zn  Zn150  1  0.68758947  0.93853922  0.43564563  1
  Zn  Zn151  1  0.68554989  0.93813252  0.93681004  1
  Zn  Zn152  1  0.31303288  0.06179214  0.06228655  1
  Zn  Zn153  1  0.31018225  0.06229325  0.56242980  1
  Zn  Zn154  1  0.31544405  0.56287800  0.06284015  1
  Zn  Zn155  1  0.31159643  0.56220651  0.56156836  1
  Zn  Zn156  1  0.81201175  0.06212437  0.06259213  1
  Zn  Zn157  1  0.81257361  0.06432599  0.56373655  1
  Zn  Zn158  1  0.81439745  0.56453823  0.06275037  1
  Zn  Zn159  1  0.81412540  0.56201249  0.56278115  1
  Zn  Zn160  1  0.43852497  0.43771536  0.18546495  1
  Zn  Zn161  1  0.43748391  0.43722799  0.68794517  1
  Zn  Zn162  1  0.43559887  0.94000284  0.18848419  1
  Zn  Zn163  1  0.43636496  0.93624003  0.68892058  1
  Zn  Zn164  1  0.93734703  0.44017718  0.18724903  1
  Zn  Zn165  1  0.94011420  0.43442959  0.68772702  1
  Zn  Zn166  1  0.93861910  0.93765146  0.18798875  1
  Zn  Zn167  1  0.93629473  0.93817577  0.68690128  1
  Zn  Zn168  1  0.06249091  0.06032264  0.31125657  1
  Zn  Zn169  1  0.06324846  0.06400172  0.81422861  1
  Zn  Zn170  1  0.06415926  0.56428396  0.31197164  1
  Zn  Zn171  1  0.06387684  0.56391718  0.81231115  1
  Zn  Zn172  1  0.56121013  0.06344365  0.31280256  1
  Zn  Zn173  1  0.56225892  0.06060590  0.81301394  1
  Zn  Zn174  1  0.56352434  0.56432889  0.31153916  1
  Zn  Zn175  1  0.56364697  0.56227868  0.81386876  1
  Zn  Zn176  1  0.43732032  0.18801365  0.43836190  1
  Zn  Zn177  1  0.43731566  0.18721635  0.93675358  1
  Zn  Zn178  1  0.43833614  0.68751585  0.43608494  1
  Zn  Zn179  1  0.43670517  0.68695243  0.93668683  1
  Zn  Zn180  1  0.93737772  0.18683448  0.43763600  1
  Zn  Zn181  1  0.93671704  0.18684294  0.93540948  1
  Zn  Zn182  1  0.93849741  0.68681564  0.43809389  1
  Zn  Zn183  1  0.93676126  0.68809839  0.93826823  1
  Zn  Zn184  1  0.06294161  0.31424095  0.06331089  1
  Zn  Zn185  1  0.06302105  0.31233541  0.56378298  1
  Zn  Zn186  1  0.06343000  0.81098173  0.06071495  1
  Zn  Zn187  1  0.06082366  0.81263042  0.56041592  1
  Zn  Zn188  1  0.56251528  0.31339710  0.06224742  1
  Zn  Zn189  1  0.56294538  0.31153673  0.56331427  1
  Zn  Zn190  1  0.56343099  0.81419775  0.06249273  1
  Zn  Zn191  1  0.56195766  0.81063937  0.56215560  1
  O  O192  1  0.11704179  0.12807480  0.11929481  1
  O  O193  1  0.12410903  0.11703532  0.61777271  1
  O  O194  1  0.11545262  0.62158174  0.12076262  1
  O  O195  1  0.12401491  0.61803947  0.61814673  1
  O  O196  1  0.61902791  0.12198770  0.12000769  1
  O  O197  1  0.61750378  0.11823470  0.62017350  1
  O  O198  1  0.62300732  0.61607494  0.12072243  1
  O  O199  1  0.62071597  0.61819661  0.61985764  1
  O  O200  1  0.38177131  0.38017086  0.38018357  1
  O  O201  1  0.37773252  0.37621565  0.88390652  1
  O  O202  1  0.37888345  0.87993826  0.38133746  1
  O  O203  1  0.38268450  0.87452969  0.88103776  1
  O  O204  1  0.88136666  0.38119591  0.38046273  1
  O  O205  1  0.87591604  0.38250889  0.88296716  1
  O  O206  1  0.87407295  0.88244032  0.38228931  1
  O  O207  1  0.88171719  0.87653356  0.88538774  1
  O  O208  1  0.25457344  0.00943841  0.37697472  1
  O  O209  1  0.25111412  0.00152060  0.86628936  1
  O  O210  1  0.25882563  0.50050250  0.36767523  1
  O  O211  1  0.25124236  0.50621911  0.86873792  1
  O  O212  1  0.75584975  0.00322669  0.36765014  1
  O  O213  1  0.74864177  0.00647711  0.86808116  1
  O  O214  1  0.75520049  0.50475934  0.37008112  1
  O  O215  1  0.75615338  0.50526901  0.86958418  1
  O  O216  1  0.25087747  0.49260787  0.13108891  1
  O  O217  1  0.24545748  0.49463575  0.63034337  1
  O  O218  1  0.24916876  0.98834198  0.12518108  1
  O  O219  1  0.24333456  0.99281637  0.62966055  1
  O  O220  1  0.74581997  0.49465979  0.12935160  1
  O  O221  1  0.74528449  0.49424547  0.63108047  1
  O  O222  1  0.74222144  1.00007413  0.13192698  1
  O  O223  1  0.74243045  0.99299825  0.62971956  1
  O  O224  1  0.00497006  0.37139180  0.25530078  1
  O  O225  1  0.00451556  0.36454299  0.75433333  1
  O  O226  1  0.00376380  0.87023384  0.25130448  1
  O  O227  1  0.00532442  0.87012000  0.75552875  1
  O  O228  1  0.50600240  0.37049881  0.25528224  1
  O  O229  1  0.50744483  0.36775882  0.74936185  1
  O  O230  1  0.50376122  0.87093073  0.25555502  1
  O  O231  1  0.50453833  0.87260094  0.75771493  1
  O  O232  1  0.49839715  0.13323195  0.24362500  1
  O  O233  1  0.49488430  0.12919268  0.74374590  1
  O  O234  1  0.49473515  0.63229984  0.24787690  1
  O  O235  1  0.49425583  0.62401719  0.74294789  1
  O  O236  1  0.99363652  0.13253987  0.24490867  1
  O  O237  1  0.99954726  0.13544266  0.74988923  1
  O  O238  1  0.99883046  0.62452249  0.23807033  1
  O  O239  1  0.99324601  0.63277374  0.74918621  1
  O  O240  1  0.36984150  0.25472502  0.00631529  1
  O  O241  1  0.37487049  0.25735573  0.50762365  1
  O  O242  1  0.37011100  0.75702002  0.00523470  1
  O  O243  1  0.36941816  0.75470689  0.50470665  1
  O  O244  1  0.86940801  0.25565352  0.00584225  1
  O  O245  1  0.87460822  0.25917076  0.50136258  1
  O  O246  1  0.86664898  0.75972268  -0.00043566  1
  O  O247  1  0.86914652  0.75512691  0.50553212  1
  O  O248  1  0.12526997  0.24327878  0.49304010  1
  O  O249  1  0.12895544  0.24613541  0.99418184  1
  O  O250  1  0.12973155  0.74484561  0.49359929  1
  O  O251  1  0.13299356  0.74872066  0.99073908  1
  O  O252  1  0.62378983  0.24331448  0.49411418  1
  O  O253  1  0.63106317  0.24567100  0.99505082  1
  O  O254  1  0.63195670  0.74263954  0.49954675  1
  O  O255  1  0.63709889  0.75034972  0.99749787  1
  O  O256  1  0.49534785  0.24602118  0.13040503  1
  O  O257  1  0.49442794  0.24341158  0.63081941  1
  O  O258  1  0.49330464  0.75101547  0.13098939  1
  O  O259  1  0.49258398  0.74183464  0.62493462  1
  O  O260  1  0.99322974  0.24673549  0.13061731  1
  O  O261  1  1.00145781  0.24855262  0.63764532  1
  O  O262  1  0.99902088  0.73793068  0.12215922  1
  O  O263  1  0.99280028  0.74990018  0.63192411  1
  O  O264  1  0.00499019  0.25669187  0.36883838  1
  O  O265  1  0.00914869  0.25107402  0.86930645  1
  O  O266  1  0.01140260  0.75026248  0.37507631  1
  O  O267  1  0.00542755  0.75586448  0.86967844  1
  O  O268  1  0.50468577  0.25663081  0.37000694  1
  O  O269  1  0.50748027  0.25091601  0.86769233  1
  O  O270  1  0.50140526  0.75779252  0.36852112  1
  O  O271  1  0.50137702  0.76142167  0.87334685  1
  O  O272  1  0.24291083  0.12609615  0.49002869  1
  O  O273  1  0.24325692  0.13258347  1.00076361  1
  O  O274  1  0.24390096  0.63136086  0.49807246  1
  O  O275  1  0.25117952  0.63136320  0.99357279  1
  O  O276  1  0.73941164  0.12629489  0.49848646  1
  O  O277  1  0.74399427  0.13158207  0.99516128  1
  O  O278  1  0.74519223  0.62917818  0.49566448  1
  O  O279  1  0.75219293  0.63455803  0.99345243  1
  O  O280  1  0.25555864  0.36951536  0.00654258  1
  O  O281  1  0.25818484  0.37446681  0.50669276  1
  O  O282  1  0.25664410  0.86898617  0.00611014  1
  O  O283  1  0.25527927  0.86944153  0.50624962  1
  O  O284  1  0.75503230  0.36988943  0.00566342  1
  O  O285  1  0.75729588  0.37532946  0.50737957  1
  O  O286  1  0.75797487  0.86803980  -0.00158644  1
  O  O287  1  0.75393782  0.86993535  0.50579147  1
  O  O288  1  0.13352366  0.49327042  0.24976205  1
  O  O289  1  0.13179368  0.49889544  0.74364160  1
  O  O290  1  0.13006253  0.99654486  0.24583452  1
  O  O291  1  0.12934627  0.99395170  0.74465749  1
  O  O292  1  0.63029745  0.49403004  0.24456795  1
  O  O293  1  0.63175376  0.49420159  0.74444666  1
  O  O294  1  0.62897669  0.99637238  0.24525270  1
  O  O295  1  0.62943287  0.99313530  0.74282777  1
  O  O296  1  0.36987175  0.00370579  0.25988969  1
  O  O297  1  0.36734771  0.00560127  0.74922074  1
  O  O298  1  0.37216427  0.50419504  0.25469244  1
  O  O299  1  0.36849329  0.50623532  0.75024730  1
  O  O300  1  0.86932701  0.00642964  0.25434141  1
  O  O301  1  0.86527134  -0.00026782  0.75275264  1
  O  O302  1  0.86776598  0.50077736  0.25754594  1
  O  O303  1  0.87089802  0.50483864  0.75511164  1
  O  O304  1  0.11990107  0.37032575  0.37027405  1
  O  O305  1  0.12352304  0.36161314  0.87545429  1
  O  O306  1  0.12358751  0.86289925  0.37518246  1
  O  O307  1  0.12005267  0.86915273  0.86913723  1
  O  O308  1  0.61909007  0.37108727  0.36998708  1
  O  O309  1  0.62519006  0.36730924  0.86696227  1
  O  O310  1  0.61667945  0.87519770  0.36833557  1
  O  O311  1  0.61537106  0.87401248  0.86877490  1
  O  O312  1  0.38081346  0.13221073  0.12654329  1
  O  O313  1  0.37987524  0.12964621  0.62932682  1
  O  O314  1  0.37834948  0.63279194  0.13149387  1
  O  O315  1  0.38052827  0.62878265  0.62886915  1
  O  O316  1  0.87995757  0.13227853  0.13011091  1
  O  O317  1  0.87867515  0.12862721  0.62958864  1
  O  O318  1  0.88666687  0.62614721  0.12660109  1
  O  O319  1  0.87600260  0.63201905  0.63202890  1
  O  O320  1  0.25540623  0.25590332  0.12098306  1
  O  O321  1  0.25626982  0.25624689  0.62396020  1
  O  O322  1  0.25606772  0.75693718  0.11890434  1
  O  O323  1  0.25492491  0.75509240  0.61929487  1
  O  O324  1  0.75472656  0.25622911  0.11976940  1
  O  O325  1  0.75154379  0.25939950  0.62334436  1
  O  O326  1  0.75224099  0.75246304  0.11262307  1
  O  O327  1  0.75549511  0.75514595  0.61954036  1
  O  O328  1  0.24393546  0.24195978  0.37768296  1
  O  O329  1  0.24071939  0.24823298  0.88200337  1
  O  O330  1  0.24167548  0.74849448  0.38185248  1
  O  O331  1  0.24569618  0.74484062  0.87879897  1
  O  O332  1  0.74047168  0.24887180  0.37805800  1
  O  O333  1  0.74402222  0.24459326  0.88039711  1
  O  O334  1  0.74795206  0.74337973  0.38270011  1
  O  O335  1  0.75013602  0.74439880  0.88399863  1
  O  O336  1  0.00402597  0.12149567  0.00568937  1
  O  O337  1  0.00639337  0.11729436  0.50044514  1
  O  O338  1  -0.00036160  0.61520236  0.00620566  1
  O  O339  1  0.00691872  0.61717065  0.50276180  1
  O  O340  1  0.50668252  0.12509592  0.00707429  1
  O  O341  1  0.50372185  0.11828660  0.50648114  1
  O  O342  1  0.50128795  0.61352161  0.00088723  1
  O  O343  1  0.50560576  0.61874780  0.50517234  1
  O  O344  1  0.49556178  0.38108103  0.49525162  1
  O  O345  1  0.49477892  0.38340511  0.99924505  1
  O  O346  1  0.49378828  0.87971654  0.49510625  1
  O  O347  1  0.49310325  0.87558119  0.99144109  1
  O  O348  1  0.99587068  0.38073708  0.49396343  1
  O  O349  1  0.99353390  0.38514556  1.00077733  1
  O  O350  1  0.99126976  0.88154952  0.49797424  1
  O  O351  1  0.99294252  0.87974955  0.99548310  1
  O  O352  1  0.49617175  0.49418006  0.38018147  1
  O  O353  1  0.49949408  0.49637269  0.88590612  1
  O  O354  1  0.49308057  0.99494596  0.38135818  1
  O  O355  1  0.49749464  0.98683014  0.87631065  1
  O  O356  1  0.99583636  0.49483143  0.38057623  1
  O  O357  1  0.99493203  0.50045899  0.88415558  1
  O  O358  1  0.99192842  0.99856525  0.38149082  1
  O  O359  1  0.99971933  0.99329908  0.88226674  1
  O  O360  1  0.00031779  0.00905168  0.11783668  1
  O  O361  1  0.00674853  -0.00040875  0.61813750  1
  O  O362  1  0.00040206  0.50727242  0.11520212  1
  O  O363  1  0.00765748  0.50040357  0.61869046  1
  O  O364  1  0.50607048  0.00796160  0.12462077  1
  O  O365  1  0.50410608  0.00370857  0.61968567  1
  O  O366  1  0.50690558  0.49962907  0.11486682  1
  O  O367  1  0.50633787  0.50454831  0.61896410  1
  O  O368  1  0.24596504  0.37963965  0.24532668  1
  O  O369  1  0.24917587  0.38115458  0.74306098  1
  O  O370  1  0.24931273  0.87393250  0.23701682  1
  O  O371  1  0.24403651  0.87907634  0.74389124  1
  O  O372  1  0.74439106  0.38127734  0.24461438  1
  O  O373  1  0.74554398  0.38064105  0.74471148  1
  O  O374  1  0.74256849  0.88304247  0.24817822  1
  O  O375  1  0.74388797  0.87942385  0.74444413  1
  O  O376  1  0.25068213  0.12600755  0.26430279  1
  O  O377  1  0.25597611  0.11765198  0.75053540  1
  O  O378  1  0.25883442  0.61789600  0.25027709  1
  O  O379  1  0.25594028  0.61911288  0.75432991  1
  O  O380  1  0.75640871  0.11976086  0.25115016  1
  O  O381  1  0.74776496  0.11736290  0.75647275  1
  O  O382  1  0.74969819  0.61811454  0.25704684  1
  O  O383  1  0.75625935  0.61897760  0.75478927  1
  O  O384  1  0.36537582  0.11996164  0.37704598  1
  O  O385  1  0.37298945  0.12274801  0.86650847  1
  O  O386  1  0.37494557  0.61775619  0.36823744  1
  O  O387  1  0.36838210  0.62328944  0.86689342  1
  O  O388  1  0.87325394  0.11908374  0.36784251  1
  O  O389  1  0.86454349  0.12288481  0.87282444  1
  O  O390  1  0.86818965  0.61719502  0.37605398  1
  O  O391  1  0.86967354  0.61969263  0.86889108  1
  O  O392  1  0.13219045  0.37623475  0.13279114  1
  O  O393  1  0.13326808  0.38218295  0.62518996  1
  O  O394  1  0.13760951  0.87434426  0.12271123  1
  O  O395  1  0.13031883  0.87929223  0.63012146  1
  O  O396  1  0.63132656  0.37996643  0.13106331  1
  O  O397  1  0.63098946  0.38061611  0.63011904  1
  O  O398  1  0.62546844  0.88399934  0.13190996  1
  O  O399  1  0.62900366  0.87977401  0.62918091  1
  O  O400  1  0.11821619  0.25702054  0.25652920  1
  O  O401  1  0.11864347  0.24948983  0.76011711  1
  O  O402  1  0.12496285  0.74973591  0.26210794  1
  O  O403  1  0.11996273  0.75611462  0.75425800  1
  O  O404  1  0.61918143  0.25685544  0.25540668  1
  O  O405  1  0.61954721  0.25418449  0.75417925  1
  O  O406  1  0.61873099  0.75806801  0.25071979  1
  O  O407  1  0.62243992  0.75765950  0.75162280  1
  O  O408  1  0.38222717  0.24957205  0.24378894  1
  O  O409  1  0.38038082  0.24401174  0.74414842  1
  O  O410  1  0.38107328  0.74516619  0.24531762  1
  O  O411  1  0.37577861  0.74198430  0.74123324  1
  O  O412  1  0.87960828  0.24688129  0.24490670  1
  O  O413  1  0.88730247  0.24886063  0.75085794  1
  O  O414  1  0.87761069  0.74599769  0.24640605  1
  O  O415  1  0.87960116  0.74608252  0.74527052  1
  O  O416  1  0.38180671  0.49491860  0.49469756  1
  O  O417  1  0.38513976  0.49325596  0.99995024  1
  O  O418  1  0.37967401  0.99326883  0.49625818  1
  O  O419  1  0.37735584  0.98973576  0.99744374  1
  O  O420  1  0.88141733  0.49401741  0.49470707  1
  O  O421  1  0.88266817  0.49554121  0.99477610  1
  O  O422  1  0.87852976  0.99489717  0.49482137  1
  O  O423  1  0.88023954  0.99173249  0.99780252  1
  O  O424  1  0.11804300  0.00759663  0.00282007  1
  O  O425  1  0.11847191  0.00401560  0.50487667  1
  O  O426  1  0.11331170  0.50028163  0.00090881  1
  O  O427  1  0.12104395  0.50493847  0.50429782  1
  O  O428  1  0.62344165  0.00768234  0.00723108  1
  O  O429  1  0.61755420  0.00419605  0.50525091  1
  O  O430  1  0.61690678  0.49852732  0.00550008  1
  O  O431  1  0.62012920  0.50454958  0.50576448  1
  O  O432  1  0.36983659  0.36831245  0.11969821  1
  O  O433  1  0.37062568  0.36978649  0.61977479  1
  O  O434  1  0.36795682  0.87009046  0.11848512  1
  O  O435  1  0.36926807  0.86869729  0.61939099  1
  O  O436  1  0.86901595  0.37040253  0.12009263  1
  O  O437  1  0.86899113  0.37426904  0.61865212  1
  O  O438  1  0.87344774  0.87461105  0.11069675  1
  O  O439  1  0.86755248  0.86937856  0.61923258  1
  O  O440  1  0.13172233  0.13013662  0.38019395  1
  O  O441  1  0.12660456  0.13594570  0.88363437  1
  O  O442  1  0.12788419  0.63332591  0.38175580  1
  O  O443  1  0.13315149  0.63242970  0.87599693  1
  O  O444  1  0.62341627  0.13175713  0.38207924  1
  O  O445  1  0.62949436  0.13045776  0.88075131  1
  O  O446  1  0.63197685  0.62562026  0.38271685  1
  O  O447  1  0.63446399  0.62715567  0.87781717  1
