# generated using pymatgen
data_V3Zn3O8
_symmetry_space_group_name_H-M   'P 1'
_cell_length_a   17.08926784
_cell_length_b   17.09037275
_cell_length_c   17.09002260
_cell_angle_alpha   90.00190020
_cell_angle_beta   89.99653836
_cell_angle_gamma   90.00196564
_symmetry_Int_Tables_number   1
_chemical_formula_structural   V3Zn3O8
_chemical_formula_sum   'V96 Zn96 O256'
_cell_volume   4991.34543784
_cell_formula_units_Z   32
loop_
 _symmetry_equiv_pos_site_id
 _symmetry_equiv_pos_as_xyz
  1  'x, y, z'
loop_
 _atom_site_type_symbol
 _atom_site_label
 _atom_site_symmetry_multiplicity
 _atom_site_fract_x
 _atom_site_fract_y
 _atom_site_fract_z
 _atom_site_occupancy
  V  V0  1  -0.00135686  0.74950243  0.74908021  1
  V  V1  1  0.62527628  0.74878033  0.87505553  1
  V  V2  1  0.62613047  -0.00086559  0.12565105  1
  V  V3  1  -0.00039625  0.87493454  0.87523421  1
  V  V4  1  0.37448995  0.87545441  0.50075751  1
  V  V5  1  0.24936582  0.62524785  0.87550192  1
  V  V6  1  0.00113255  0.00142110  0.00231298  1
  V  V7  1  0.37408947  0.24963022  0.62570142  1
  V  V8  1  0.87504397  0.87352649  -0.00014062  1
  V  V9  1  0.50005730  0.37446972  0.37417333  1
  V  V10  1  0.87520473  0.49909146  0.87396856  1
  V  V11  1  0.62345584  0.49949264  0.62518497  1
  V  V12  1  0.50040111  0.49968474  -0.00006498  1
  V  V13  1  0.37597521  0.12511882  0.25008838  1
  V  V14  1  0.50006774  0.12499207  0.12572397  1
  V  V15  1  0.37426046  0.75110390  0.62467440  1
  V  V16  1  0.37442106  0.49999608  0.87464539  1
  V  V17  1  0.87541445  0.00019052  0.37508463  1
  V  V18  1  0.75002454  0.37425106  0.62470011  1
  V  V19  1  0.25019022  0.12584701  0.37547506  1
  V  V20  1  0.37408158  0.50077839  0.37449080  1
  V  V21  1  -0.00034466  0.74984448  0.24894644  1
  V  V22  1  0.75064620  0.87465518  0.62478318  1
  V  V23  1  0.37526821  0.62514505  0.24970987  1
  V  V24  1  0.37504653  0.37501939  0.49944075  1
  V  V25  1  0.62576338  0.62472157  0.00000762  1
  V  V26  1  0.00052596  0.62582023  0.12455854  1
  V  V27  1  0.25087378  0.87514143  0.12586291  1
  V  V28  1  0.49952239  0.62509997  0.12517315  1
  V  V29  1  0.87408987  0.12467923  0.75016360  1
  V  V30  1  0.12529703  0.75088651  0.37501300  1
  V  V31  1  0.24970184  0.24889653  -0.00079882  1
  V  V32  1  0.87587585  0.37683880  0.49939166  1
  V  V33  1  0.37516757  0.87453584  0.00106262  1
  V  V34  1  0.87558208  0.74928852  0.12477624  1
  V  V35  1  0.12506342  0.62589150  0.49978939  1
  V  V36  1  0.37418331  -0.00027106  0.87471396  1
  V  V37  1  0.12308290  0.50110421  0.62322609  1
  V  V38  1  0.00005463  0.37459446  0.87462282  1
  V  V39  1  0.62491162  0.37491985  0.75017906  1
  V  V40  1  0.12421462  0.87537139  0.74935048  1
  V  V41  1  0.24964891  0.50004954  0.74913641  1
  V  V42  1  0.62551002  0.37473986  0.24995112  1
  V  V43  1  0.74962283  -0.00107257  0.24973482  1
  V  V44  1  0.74992571  0.12370665  0.87473918  1
  V  V45  1  0.25090802  0.62557775  0.37393339  1
  V  V46  1  0.74975276  0.75061409  0.50030852  1
  V  V47  1  -0.00026288  0.37675089  0.37380413  1
  V  V48  1  0.12528285  -0.00007266  0.62565058  1
  V  V49  1  0.75016385  0.74909202  0.00035286  1
  V  V50  1  0.00017551  0.25003690  0.75027902  1
  V  V51  1  0.62463725  0.24920600  0.87545257  1
  V  V52  1  0.49902223  0.62482132  0.62474819  1
  V  V53  1  0.62523182  0.87332037  0.75007422  1
  V  V54  1  0.50065320  0.74988949  0.75011149  1
  V  V55  1  0.75110345  0.24948534  0.00072246  1
  V  V56  1  0.74983535  0.49945443  0.75016657  1
  V  V57  1  0.62597611  0.12381095  0.00056423  1
  V  V58  1  0.62555309  0.74946883  0.37405528  1
  V  V59  1  0.37522353  0.00037763  0.37666526  1
  V  V60  1  0.50105302  0.87582640  0.37497978  1
  V  V61  1  0.50039944  -0.00121959  0.00079581  1
  V  V62  1  0.87447369  0.37452805  0.00046298  1
  V  V63  1  0.12461350  0.62511575  -0.00092573  1
  V  V64  1  0.37382906  0.12446431  0.75107072  1
  V  V65  1  0.74921140  0.25046510  0.50040656  1
  V  V66  1  0.12609145  0.87601654  0.24974860  1
  V  V67  1  0.62433993  0.25007245  0.37549763  1
  V  V68  1  0.49951859  0.24986023  0.75042774  1
  V  V69  1  0.25039511  0.75162075  0.50026546  1
  V  V70  1  0.00045170  0.50059879  0.00014051  1
  V  V71  1  0.62488814  0.00057889  0.62487432  1
  V  V72  1  0.37577416  0.24924125  0.12506286  1
  V  V73  1  0.75015893  -0.00028722  0.75093751  1
  V  V74  1  0.24821271  0.37739861  0.12714555  1
  V  V75  1  0.37524306  0.37468220  0.00027189  1
  V  V76  1  0.87785785  0.12731398  0.24854797  1
  V  V77  1  0.62567127  0.12563451  0.50085390  1
  V  V78  1  0.12435085  0.25104240  0.37297047  1
  V  V79  1  0.24988119  0.24953661  0.49983406  1
  V  V80  1  0.74976131  0.37471589  0.12496463  1
  V  V81  1  -0.00024624  0.12605916  0.62326798  1
  V  V82  1  0.87537904  0.62507179  0.74759026  1
  V  V83  1  0.12564053  0.24834160  0.87592881  1
  V  V84  1  0.62546443  0.49866557  0.12549697  1
  V  V85  1  0.25002843  -0.00041415  0.25029428  1
  V  V86  1  0.49956631  0.37460739  0.87526900  1
  V  V87  1  0.50028422  0.12475028  0.62538156  1
  V  V88  1  0.12509357  0.74940616  0.87439212  1
  V  V89  1  -0.00002058  0.87592606  0.37514482  1
  V  V90  1  0.37577046  0.74982190  0.12496371  1
  V  V91  1  0.87440144  0.87559507  0.49954952  1
  V  V92  1  0.62517875  0.62527691  0.49955119  1
  V  V93  1  0.24958813  0.37533338  0.62472400  1
  V  V94  1  0.49929570  0.50008395  0.49998741  1
  V  V95  1  0.37478038  0.62589601  0.75009720  1
  Zn  Zn96  1  0.50004404  0.87319789  0.87542919  1
  Zn  Zn97  1  0.75378691  0.62211390  0.37401124  1
  Zn  Zn98  1  0.24984602  0.75046054  -0.00007621  1
  Zn  Zn99  1  0.12636406  0.12358765  0.00363550  1
  Zn  Zn100  1  0.24848209  0.12380074  0.87589609  1
  Zn  Zn101  1  0.75230422  0.50216145  0.25230723  1
  Zn  Zn102  1  0.24778597  0.50048383  0.24991838  1
  Zn  Zn103  1  0.87553618  0.25044501  0.62526702  1
  Zn  Zn104  1  0.87789768  0.25027091  0.12496368  1
  Zn  Zn105  1  0.12576968  0.00268414  0.12543932  1
  Zn  Zn106  1  0.62561793  0.87425913  0.24866579  1
  Zn  Zn107  1  0.24919051  0.00011142  0.75118101  1
  Zn  Zn108  1  0.50015126  0.00125792  0.50120698  1
  Zn  Zn109  1  0.12390148  0.12400282  0.49914366  1
  Zn  Zn110  1  0.74882420  0.87334650  0.12470073  1
  Zn  Zn111  1  0.50173119  0.75011782  0.24896296  1
  Zn  Zn112  1  0.87616535  0.75016041  0.62344026  1
  Zn  Zn113  1  0.50097586  0.24942565  0.24998712  1
  Zn  Zn114  1  0.12256059  0.37826427  0.24839612  1
  Zn  Zn115  1  0.12502552  0.50145826  0.12685953  1
  Zn  Zn116  1  0.00336495  0.12921143  0.12399410  1
  Zn  Zn117  1  0.74963974  0.62365237  0.87524461  1
  Zn  Zn118  1  0.87479316  -0.00081505  0.87581308  1
  Zn  Zn119  1  -0.00043644  0.00085441  0.49891625  1
  Zn  Zn120  1  0.87357454  0.50314815  0.37190020  1
  Zn  Zn121  1  0.75021630  0.12604411  0.37610304  1
  Zn  Zn122  1  0.00006411  0.25109691  0.24650380  1
  Zn  Zn123  1  0.25042987  0.87689032  0.62654758  1
  Zn  Zn124  1  -0.00199429  0.50400108  0.49843861  1
  Zn  Zn125  1  0.12415288  0.37523733  0.74889655  1
  Zn  Zn126  1  -0.00027864  0.62683724  0.62213038  1
  Zn  Zn127  1  0.87341168  0.62355067  0.25269355  1
  Zn  Zn128  1  0.18729258  0.18716089  0.18662299  1
  Zn  Zn129  1  0.18743537  0.18603425  0.69035154  1
  Zn  Zn130  1  0.18804233  0.68838824  0.18682125  1
  Zn  Zn131  1  0.18750422  0.68822251  0.68736918  1
  Zn  Zn132  1  0.68923403  0.18767078  0.18853500  1
  Zn  Zn133  1  0.68794132  0.18794420  0.68699709  1
  Zn  Zn134  1  0.68958763  0.68589259  0.18825285  1
  Zn  Zn135  1  0.68887758  0.68694099  0.68643533  1
  Zn  Zn136  1  0.31304203  0.31179650  0.31060187  1
  Zn  Zn137  1  0.31076873  0.31293826  0.81176557  1
  Zn  Zn138  1  0.31414587  0.81167275  0.31163678  1
  Zn  Zn139  1  0.31026836  0.81440737  0.81210116  1
  Zn  Zn140  1  0.81063088  0.31350303  0.31286899  1
  Zn  Zn141  1  0.81336020  0.31071492  0.81275546  1
  Zn  Zn142  1  0.81345062  0.81174477  0.31218896  1
  Zn  Zn143  1  0.81202371  0.81122860  0.81424535  1
  Zn  Zn144  1  0.18747282  0.43798938  0.43743216  1
  Zn  Zn145  1  0.18623281  0.43649955  0.93883585  1
  Zn  Zn146  1  0.18700696  0.93839008  0.43941939  1
  Zn  Zn147  1  0.18750147  0.93630026  0.93838716  1
  Zn  Zn148  1  0.68825614  0.43801898  0.43592105  1
  Zn  Zn149  1  0.68848844  0.43740750  0.93781108  1
  Zn  Zn150  1  0.68837898  0.93872994  0.43740398  1
  Zn  Zn151  1  0.68810549  0.93509586  0.93707740  1
  Zn  Zn152  1  0.31131560  0.06277913  0.06230647  1
  Zn  Zn153  1  0.31133484  0.06293498  0.56222094  1
  Zn  Zn154  1  0.31221422  0.56306642  0.06142161  1
  Zn  Zn155  1  0.31073394  0.56364225  0.56127572  1
  Zn  Zn156  1  0.81507046  0.06138945  0.06416451  1
  Zn  Zn157  1  0.81237267  0.06219675  0.56261591  1
  Zn  Zn158  1  0.81296493  0.56245427  0.06455416  1
  Zn  Zn159  1  0.80998792  0.56201538  0.56107218  1
  Zn  Zn160  1  0.43731025  0.43797320  0.18907385  1
  Zn  Zn161  1  0.43670845  0.43697559  0.68768130  1
  Zn  Zn162  1  0.43779877  0.93770317  0.18871470  1
  Zn  Zn163  1  0.43888127  0.93720009  0.68815893  1
  Zn  Zn164  1  0.93598275  0.43945126  0.18765360  1
  Zn  Zn165  1  0.93806049  0.43681828  0.68673171  1
  Zn  Zn166  1  0.93698257  0.93680439  0.18585666  1
  Zn  Zn167  1  0.93687079  0.93823881  0.68745104  1
  Zn  Zn168  1  0.06263748  0.06275354  0.31183928  1
  Zn  Zn169  1  0.06030488  0.06216913  0.81332794  1
  Zn  Zn170  1  0.06321740  0.56142461  0.30968616  1
  Zn  Zn171  1  0.06184240  0.56252733  0.81104052  1
  Zn  Zn172  1  0.56315915  0.06312666  0.31325806  1
  Zn  Zn173  1  0.56155854  0.06104201  0.81263283  1
  Zn  Zn174  1  0.56297312  0.56193829  0.31087297  1
  Zn  Zn175  1  0.56208170  0.56325563  0.81321229  1
  Zn  Zn176  1  0.43875360  0.18775436  0.43853696  1
  Zn  Zn177  1  0.43705044  0.18579298  0.93888578  1
  Zn  Zn178  1  0.43819432  0.68838371  0.43729213  1
  Zn  Zn179  1  0.43786851  0.68814561  0.93810743  1
  Zn  Zn180  1  0.93576533  0.18922074  0.43613436  1
  Zn  Zn181  1  0.93698642  0.18640586  0.93706211  1
  Zn  Zn182  1  0.93753867  0.68814471  0.43696335  1
  Zn  Zn183  1  0.93724211  0.68684475  0.93607850  1
  Zn  Zn184  1  0.06176267  0.31162528  0.06231061  1
  Zn  Zn185  1  0.06319068  0.31262238  0.56041942  1
  Zn  Zn186  1  0.06382335  0.81348502  0.06236862  1
  Zn  Zn187  1  0.06016886  0.81291233  0.56260409  1
  Zn  Zn188  1  0.56308457  0.31122108  0.06309456  1
  Zn  Zn189  1  0.56198785  0.31202081  0.56214114  1
  Zn  Zn190  1  0.56300835  0.81274371  0.06302099  1
  Zn  Zn191  1  0.56227124  0.81309719  0.56176824  1
  O  O192  1  0.12187801  0.12083439  0.12233876  1
  O  O193  1  0.11573778  0.11782631  0.62595349  1
  O  O194  1  0.11900730  0.62625181  0.11647129  1
  O  O195  1  0.12664781  0.61570199  0.61921014  1
  O  O196  1  0.62029580  0.11953759  0.11928544  1
  O  O197  1  0.61956252  0.12045432  0.62130271  1
  O  O198  1  0.61859741  0.61909450  0.11878089  1
  O  O199  1  0.61828362  0.61894584  0.62032287  1
  O  O200  1  0.37946280  0.37984826  0.38070109  1
  O  O201  1  0.38024027  0.38022886  0.87982766  1
  O  O202  1  0.38269529  0.87948582  0.38027243  1
  O  O203  1  0.37668001  0.88387645  0.88047550  1
  O  O204  1  0.88388268  0.37306485  0.38422066  1
  O  O205  1  0.88025908  0.37985314  0.87992619  1
  O  O206  1  0.88058470  0.88039922  0.37978557  1
  O  O207  1  0.88204043  0.87496790  0.88169382  1
  O  O208  1  0.25558881  0.00577475  0.37056613  1
  O  O209  1  0.26265608  0.00145831  0.87479887  1
  O  O210  1  0.25732435  0.50734047  0.37581269  1
  O  O211  1  0.25540647  0.50431022  0.86949618  1
  O  O212  1  0.75577461  0.00187598  0.36562373  1
  O  O213  1  0.75000690  0.00635420  0.86834014  1
  O  O214  1  0.75242045  0.50288392  0.37253663  1
  O  O215  1  0.75668921  0.49990902  0.86762584  1
  O  O216  1  0.25058535  0.48832007  0.12374770  1
  O  O217  1  0.24307041  0.49567017  0.62909662  1
  O  O218  1  0.25148481  0.99273096  0.13324931  1
  O  O219  1  0.23719858  1.00040476  0.62730948  1
  O  O220  1  0.74126965  0.49153269  0.12262256  1
  O  O221  1  0.74221490  0.49348169  0.63041944  1
  O  O222  1  0.74450488  0.99897904  0.13375809  1
  O  O223  1  0.74386890  0.99473954  0.63168602  1
  O  O224  1  0.00028262  0.37181737  0.26225700  1
  O  O225  1  0.00089617  0.36845552  0.75649244  1
  O  O226  1  0.00608268  0.87027861  0.25541493  1
  O  O227  1  0.00394483  0.86967272  0.75552216  1
  O  O228  1  0.50602439  0.37279868  0.25673239  1
  O  O229  1  0.50474890  0.36967012  0.75535996  1
  O  O230  1  0.50130515  0.87415100  0.26407467  1
  O  O231  1  0.50759521  0.86700439  0.75073847  1
  O  O232  1  0.49362854  0.12523226  0.24331763  1
  O  O233  1  0.49508495  0.13145455  0.74502404  1
  O  O234  1  0.49327698  0.62579268  0.24251788  1
  O  O235  1  0.49400777  0.62925210  0.74393056  1
  O  O236  1  0.98853252  0.12563703  0.24983762  1
  O  O237  1  0.99426855  0.12987733  0.74226641  1
  O  O238  1  1.00146458  0.63398306  0.24216319  1
  O  O239  1  0.99020891  0.62990557  0.74865649  1
  O  O240  1  0.37056841  0.25575143  0.00475937  1
  O  O241  1  0.37000592  0.25559524  0.50620029  1
  O  O242  1  0.37421144  0.75637765  0.00644595  1
  O  O243  1  0.37028830  0.75521155  0.50513989  1
  O  O244  1  0.86769157  0.25688110  -0.00163979  1
  O  O245  1  0.86868799  0.26061707  0.50182250  1
  O  O246  1  0.87048448  0.75401532  0.00421078  1
  O  O247  1  0.86742593  0.75790374  0.50107432  1
  O  O248  1  0.13180784  0.24868276  0.48979010  1
  O  O249  1  0.13040204  0.25012746  0.98945065  1
  O  O250  1  0.13066782  0.74642738  0.49448673  1
  O  O251  1  0.12573748  0.74368514  0.99130845  1
  O  O252  1  0.62972161  0.24578168  0.49592075  1
  O  O253  1  0.63014013  0.24355695  0.99410023  1
  O  O254  1  0.62890886  0.74542818  0.49308208  1
  O  O255  1  0.62959002  0.74401204  0.99520322  1
  O  O256  1  0.49353806  0.24247543  0.12487454  1
  O  O257  1  0.49392529  0.24570359  0.63131042  1
  O  O258  1  0.49443452  0.74276197  0.12630040  1
  O  O259  1  0.49469338  0.74368504  0.62974732  1
  O  O260  1  0.99589835  0.24828646  0.12904213  1
  O  O261  1  1.00183801  0.24081075  0.63075057  1
  O  O262  1  0.99559782  0.74580227  0.12945603  1
  O  O263  1  0.99668657  0.74729158  0.63358823  1
  O  O264  1  0.00942273  0.25816966  0.37545380  1
  O  O265  1  0.00749910  0.25481670  0.87094783  1
  O  O266  1  0.00699963  0.75706229  0.36907413  1
  O  O267  1  0.00570056  0.75499596  0.86858052  1
  O  O268  1  0.50588309  0.25737958  0.37486101  1
  O  O269  1  0.50489839  0.25506127  0.87051316  1
  O  O270  1  0.50853559  0.75911047  0.37619516  1
  O  O271  1  0.50650242  0.74987657  0.86752702  1
  O  O272  1  0.24894153  0.13263414  0.49305648  1
  O  O273  1  0.24872203  0.13385759  0.99677988  1
  O  O274  1  0.24541270  0.63234168  0.49345244  1
  O  O275  1  0.24377912  0.62625835  0.99222909  1
  O  O276  1  0.74373093  0.13258302  0.50048824  1
  O  O277  1  0.74510745  0.12880958  0.99482852  1
  O  O278  1  0.74125570  0.63244725  0.49996248  1
  O  O279  1  0.74317144  0.63041114  0.99833158  1
  O  O280  1  0.25655925  0.36979830  0.00698227  1
  O  O281  1  0.25667250  0.36954324  0.50526940  1
  O  O282  1  0.25752104  0.87353314  0.00741562  1
  O  O283  1  0.25668997  0.86862994  0.50169512  1
  O  O284  1  0.75438924  0.36876949  0.00393387  1
  O  O285  1  0.75677958  0.37032226  0.50561891  1
  O  O286  1  0.75696988  0.86747152  0.00070864  1
  O  O287  1  0.75446942  0.87054688  0.50558715  1
  O  O288  1  0.13058312  0.49580383  0.24499927  1
  O  O289  1  0.13116639  0.49981659  0.74001168  1
  O  O290  1  0.13293304  0.99298247  0.25090391  1
  O  O291  1  0.12363331  0.99486400  0.74171054  1
  O  O292  1  0.62415850  0.49196857  0.24176754  1
  O  O293  1  0.62867166  0.49427903  0.74506783  1
  O  O294  1  0.63477040  1.00088252  0.24546350  1
  O  O295  1  0.63008307  0.99415775  0.74489645  1
  O  O296  1  0.36970861  0.00550415  0.25733792  1
  O  O297  1  0.37591859  0.00473104  0.75941785  1
  O  O298  1  0.37308202  0.50704825  0.25742074  1
  O  O299  1  0.37033728  0.50595707  0.75487269  1
  O  O300  1  0.86815651  0.00626965  0.25431909  1
  O  O301  1  0.86745356  0.00630160  0.75191054  1
  O  O302  1  0.87166577  0.50394329  0.25286518  1
  O  O303  1  0.87024748  0.50592926  0.75372667  1
  O  O304  1  0.11758872  0.36675494  0.37720145  1
  O  O305  1  0.11904654  0.36541894  0.87351972  1
  O  O306  1  0.12066280  0.87009105  0.37005078  1
  O  O307  1  0.11937500  0.86897730  0.86902300  1
  O  O308  1  0.61835204  0.36960108  0.37068118  1
  O  O309  1  0.61906388  0.36944133  0.86988548  1
  O  O310  1  0.61640040  0.86745356  0.37695404  1
  O  O311  1  0.62305220  0.86732749  0.86783897  1
  O  O312  1  0.38029651  0.12954046  0.13029994  1
  O  O313  1  0.38008378  0.13077029  0.63047706  1
  O  O314  1  0.38010585  0.62957434  0.12895596  1
  O  O315  1  0.37960465  0.63031735  0.63017362  1
  O  O316  1  0.87710864  0.12646137  0.13657336  1
  O  O317  1  0.88462732  0.12596474  0.63065739  1
  O  O318  1  0.88415328  0.63322298  0.12327008  1
  O  O319  1  0.87597412  0.62391717  0.63672366  1
  O  O320  1  0.25643466  0.25806143  0.11930973  1
  O  O321  1  0.25465869  0.25497330  0.62051575  1
  O  O322  1  0.25812114  0.75713042  0.12342434  1
  O  O323  1  0.25683489  0.75126392  0.61835886  1
  O  O324  1  0.75075538  0.25645121  0.11694232  1
  O  O325  1  0.75063318  0.25753401  0.61915648  1
  O  O326  1  0.75655700  0.75132047  0.11764131  1
  O  O327  1  0.75061356  0.75734028  0.61817158  1
  O  O328  1  0.24386021  0.24631359  0.37993426  1
  O  O329  1  0.24111408  0.25171352  0.88029187  1
  O  O330  1  0.24510108  0.74557494  0.38050007  1
  O  O331  1  0.24341886  0.74263424  0.87525943  1
  O  O332  1  0.74169592  0.24963662  0.38324509  1
  O  O333  1  0.74289428  0.24425571  0.87999105  1
  O  O334  1  0.73802534  0.75326453  0.38164373  1
  O  O335  1  0.74271710  0.74635382  0.88169579  1
  O  O336  1  -0.00039317  0.11263984  -0.00054175  1
  O  O337  1  -0.00010237  0.12507103  0.51192868  1
  O  O338  1  0.00529349  0.62004505  0.00349918  1
  O  O339  1  0.00938299  0.62339893  0.50261491  1
  O  O340  1  0.50640463  0.11888634  0.00591211  1
  O  O341  1  0.50668654  0.12471491  0.50845361  1
  O  O342  1  0.50502587  0.61841827  0.00522607  1
  O  O343  1  0.50431700  0.61943244  0.50615632  1
  O  O344  1  0.49407274  0.38069366  0.49543970  1
  O  O345  1  0.49507790  0.37966954  0.99431580  1
  O  O346  1  0.49404255  0.87666868  0.49021614  1
  O  O347  1  0.49347794  0.88197022  0.99885166  1
  O  O348  1  0.99109718  0.37466094  0.49282063  1
  O  O349  1  0.99401940  0.38088362  0.99363294  1
  O  O350  1  0.99254663  0.87619318  0.49257964  1
  O  O351  1  0.99538096  0.88125434  0.99438308  1
  O  O352  1  0.49445275  0.49463930  0.38168569  1
  O  O353  1  0.49426928  0.49394531  0.87947143  1
  O  O354  1  0.49489330  0.99165726  0.37757683  1
  O  O355  1  0.49049368  0.99845833  0.88145455  1
  O  O356  1  1.00184835  0.48702005  0.37893164  1
  O  O357  1  0.99479543  0.49416580  0.87917741  1
  O  O358  1  0.99390156  0.99335713  0.37620306  1
  O  O359  1  0.99808037  0.99296231  0.88370400  1
  O  O360  1  0.00172820  -0.00068343  0.11291508  1
  O  O361  1  0.00780361  0.00994408  0.62519603  1
  O  O362  1  0.00158947  0.50675700  0.11617521  1
  O  O363  1  0.01324086  0.50062397  0.62301920  1
  O  O364  1  0.50517627  0.00565390  0.12032256  1
  O  O365  1  0.50712214  0.00699553  0.62463844  1
  O  O366  1  0.50467328  0.50446185  0.11811083  1
  O  O367  1  0.50372003  0.50484898  0.62006692  1
  O  O368  1  0.25123907  0.37585616  0.23759077  1
  O  O369  1  0.24916637  0.38250402  0.74216691  1
  O  O370  1  0.24613860  0.88034499  0.24643395  1
  O  O371  1  0.24023757  0.87833631  0.74640051  1
  O  O372  1  0.74216590  0.37518112  0.24201829  1
  O  O373  1  0.74428416  0.37926876  0.74507975  1
  O  O374  1  0.74990805  0.88842209  0.24877786  1
  O  O375  1  0.74460933  0.87942535  0.74507089  1
  O  O376  1  0.25695518  0.11987549  0.25633833  1
  O  O377  1  0.25885587  0.12234507  0.75455557  1
  O  O378  1  0.25726313  0.62523788  0.25688665  1
  O  O379  1  0.25603880  0.61958169  0.75550381  1
  O  O380  1  0.75818826  0.11457769  0.25146839  1
  O  O381  1  0.75361667  0.11993120  0.75478178  1
  O  O382  1  0.75294515  0.62210615  0.25443970  1
  O  O383  1  0.75843194  0.61781887  0.75048471  1
  O  O384  1  0.37055279  0.12051657  0.37081261  1
  O  O385  1  0.37600601  0.11534495  0.86998231  1
  O  O386  1  0.37099693  0.62061267  0.37065298  1
  O  O387  1  0.37033843  0.61929608  0.86961937  1
  O  O388  1  0.87306697  0.11879834  0.36710505  1
  O  O389  1  0.86701957  0.12332338  0.86780697  1
  O  O390  1  0.87317367  0.62240618  0.37342342  1
  O  O391  1  0.87420615  0.61786772  0.86343380  1
  O  O392  1  0.13785507  0.37491978  0.12428162  1
  O  O393  1  0.13131601  0.38434156  0.62416540  1
  O  O394  1  0.13290848  0.87586869  0.13273496  1
  O  O395  1  0.12275968  0.88530711  0.63047402  1
  O  O396  1  0.62894999  0.37925988  0.12927196  1
  O  O397  1  0.62853386  0.38028706  0.63095766  1
  O  O398  1  0.62697921  0.88324123  0.12857946  1
  O  O399  1  0.63028048  0.88013589  0.63014543  1
  O  O400  1  0.12611269  0.25337814  0.26387872  1
  O  O401  1  0.11948974  0.25246639  0.75921668  1
  O  O402  1  0.12040890  0.75659717  0.25619798  1
  O  O403  1  0.11881578  0.75443343  0.75484979  1
  O  O404  1  0.62331892  0.25561858  0.25692985  1
  O  O405  1  0.61924902  0.25540833  0.75577647  1
  O  O406  1  0.62311992  0.75295301  0.26184124  1
  O  O407  1  0.62031113  0.75331196  0.75422467  1
  O  O408  1  0.37734696  0.24243110  0.24325236  1
  O  O409  1  0.38052498  0.24574498  0.74523003  1
  O  O410  1  0.37838752  0.74317925  0.24356887  1
  O  O411  1  0.38012680  0.74475695  0.74503922  1
  O  O412  1  0.87321053  0.23761583  0.25105776  1
  O  O413  1  0.88160528  0.24308476  0.74809295  1
  O  O414  1  0.88301086  0.75108329  0.24235824  1
  O  O415  1  0.87883525  0.73981853  0.74964261  1
  O  O416  1  0.38005442  0.49493428  0.49530229  1
  O  O417  1  0.38119456  0.49472949  0.99341607  1
  O  O418  1  0.37626755  0.99417628  0.49402344  1
  O  O419  1  0.38072136  0.99542683  0.99311610  1
  O  O420  1  0.87611772  0.48664594  0.50055874  1
  O  O421  1  0.88038672  0.49465944  0.99312645  1
  O  O422  1  0.87502190  0.99361495  0.49296127  1
  O  O423  1  0.88308231  0.99235258  0.99841472  1
  O  O424  1  0.11421005  -0.00001141  0.00056615  1
  O  O425  1  0.12130801  0.00273387  0.51112527  1
  O  O426  1  0.11774448  0.50725096  -0.00020247  1
  O  O427  1  0.12728863  0.50674042  0.50984516  1
  O  O428  1  0.62070476  0.00502573  0.00480006  1
  O  O429  1  0.62482438  0.00702958  0.50759729  1
  O  O430  1  0.61873020  0.50404195  0.00434779  1
  O  O431  1  0.61805293  0.50438343  0.50640712  1
  O  O432  1  0.36929293  0.36995598  0.11916700  1
  O  O433  1  0.37027036  0.36942825  0.61936496  1
  O  O434  1  0.37111946  0.86997101  0.12116710  1
  O  O435  1  0.37479371  0.86888513  0.61913748  1
  O  O436  1  0.86764675  0.37406693  0.11652015  1
  O  O437  1  0.86959398  0.37343916  0.61658247  1
  O  O438  1  0.87386056  0.86668925  0.11711653  1
  O  O439  1  0.86772737  0.87507603  0.61848132  1
  O  O440  1  0.13092965  0.13410793  0.37624337  1
  O  O441  1  0.12504391  0.13812162  0.87603201  1
  O  O442  1  0.13094229  0.63183836  0.37998330  1
  O  O443  1  0.12985486  0.62961784  0.87861303  1
  O  O444  1  0.62582928  0.13170139  0.38286083  1
  O  O445  1  0.62935579  0.12998813  0.88038036  1
  O  O446  1  0.62060820  0.63623255  0.38207341  1
  O  O447  1  0.62589288  0.62997119  0.88193111  1
