# generated using pymatgen
data_V3Zn3O8
_symmetry_space_group_name_H-M   'P 1'
_cell_length_a   17.08892253
_cell_length_b   17.08758959
_cell_length_c   17.08878175
_cell_angle_alpha   89.99613331
_cell_angle_beta   89.99493621
_cell_angle_gamma   89.99603454
_symmetry_Int_Tables_number   1
_chemical_formula_structural   V3Zn3O8
_chemical_formula_sum   'V96 Zn96 O256'
_cell_volume   4990.06939402
_cell_formula_units_Z   32
loop_
 _symmetry_equiv_pos_site_id
 _symmetry_equiv_pos_as_xyz
  1  'x, y, z'
loop_
 _atom_site_type_symbol
 _atom_site_label
 _atom_site_symmetry_multiplicity
 _atom_site_fract_x
 _atom_site_fract_y
 _atom_site_fract_z
 _atom_site_occupancy
  V  V0  1  0.00089384  0.49891262  0.49989958  1
  V  V1  1  0.49994940  0.24900230  0.74934737  1
  V  V2  1  0.62526290  0.50094552  0.12528196  1
  V  V3  1  0.87525660  0.87483796  0.00041805  1
  V  V4  1  0.62563585  -0.00009367  0.12535972  1
  V  V5  1  0.00019005  0.12447811  0.62524160  1
  V  V6  1  0.12403412  0.87402674  0.24954992  1
  V  V7  1  0.24944410  0.62500612  0.37491391  1
  V  V8  1  0.12487619  -0.00040394  0.62397959  1
  V  V9  1  0.62449800  0.87492913  0.74961587  1
  V  V10  1  0.37579189  0.50059627  0.87541413  1
  V  V11  1  0.37569966  0.87702932  -0.00076811  1
  V  V12  1  0.75074277  0.62342047  0.37569993  1
  V  V13  1  0.62443018  0.12511906  -0.00019185  1
  V  V14  1  -0.00094393  -0.00126553  0.49931290  1
  V  V15  1  0.74950806  0.62472520  0.87525173  1
  V  V16  1  0.49937361  0.00073996  -0.00110535  1
  V  V17  1  0.75140481  0.37359406  0.62509930  1
  V  V18  1  0.24969663  0.50067780  0.25013807  1
  V  V19  1  0.87492056  -0.00050469  0.37491688  1
  V  V20  1  0.37592062  0.37497273  0.50031879  1
  V  V21  1  0.50044243  -0.00048874  0.49907383  1
  V  V22  1  0.87557566  -0.00089263  0.87611632  1
  V  V23  1  0.00029766  0.24951258  0.24923520  1
  V  V24  1  0.75022171  0.12433443  0.87537048  1
  V  V25  1  0.00006142  0.12497633  0.12499316  1
  V  V26  1  0.87356859  0.74979546  0.12739033  1
  V  V27  1  0.87423135  0.37480789  0.00037851  1
  V  V28  1  0.50019977  0.12558197  0.62449651  1
  V  V29  1  0.87512164  0.49974292  0.87459162  1
  V  V30  1  0.49977018  0.74990970  0.74976697  1
  V  V31  1  0.62450448  0.62424259  0.50191807  1
  V  V32  1  0.12601779  0.12488915  -0.00084472  1
  V  V33  1  0.74993986  0.37510459  0.12501719  1
  V  V34  1  0.00005948  0.75023289  0.75086761  1
  V  V35  1  0.75080603  0.50006988  0.25228703  1
  V  V36  1  0.49985769  0.62726829  0.12622815  1
  V  V37  1  0.75035311  0.12600560  0.37473457  1
  V  V38  1  0.00053079  0.24869112  0.74987081  1
  V  V39  1  0.87661738  0.24846300  0.62574494  1
  V  V40  1  0.24945231  0.12483301  0.37461779  1
  V  V41  1  0.50047591  0.49878250  0.50108276  1
  V  V42  1  0.24945050  0.25073405  -0.00036013  1
  V  V43  1  0.87366171  0.87492547  0.49957420  1
  V  V44  1  0.74994567  0.75045445  0.00059486  1
  V  V45  1  0.12324849  0.74976017  0.37520737  1
  V  V46  1  0.12384742  0.50127198  0.12443857  1
  V  V47  1  0.49867221  0.25096621  0.24860459  1
  V  V48  1  0.87668069  0.37445355  0.49955034  1
  V  V49  1  0.12407564  0.87393560  0.74962961  1
  V  V50  1  0.00046605  -0.00097590  -0.00099738  1
  V  V51  1  0.25031824  0.37577700  0.12420028  1
  V  V52  1  0.37385781  0.74880682  0.62534840  1
  V  V53  1  0.62457300  0.37579349  0.25021877  1
  V  V54  1  0.62612472  0.12543099  0.49918498  1
  V  V55  1  0.49878400  0.12688217  0.12452764  1
  V  V56  1  0.00042871  0.37515129  0.87514423  1
  V  V57  1  0.87379853  0.75015460  0.62479606  1
  V  V58  1  0.62579988  0.37432455  0.75037864  1
  V  V59  1  0.00071257  0.37509601  0.37498053  1
  V  V60  1  0.37580519  0.00031385  0.37404488  1
  V  V61  1  0.74978852  0.75020009  0.50088619  1
  V  V62  1  0.12653863  0.24939296  0.37502239  1
  V  V63  1  0.12618930  0.37463576  0.74998453  1
  V  V64  1  0.62414223  0.74972337  0.87488597  1
  V  V65  1  0.12546615  0.12459390  0.49898331  1
  V  V66  1  0.75000901  -0.00078808  0.74920792  1
  V  V67  1  0.62488945  0.25014718  0.87484276  1
  V  V68  1  0.87546742  0.62521000  0.74933096  1
  V  V69  1  -0.00090980  0.62611405  0.12571388  1
  V  V70  1  0.12571040  0.25004498  0.87554008  1
  V  V71  1  0.74844986  0.00005793  0.24855972  1
  V  V72  1  0.00006294  0.50056990  -0.00000885  1
  V  V73  1  0.37536937  0.62561337  0.75083453  1
  V  V74  1  0.37488329  0.37567131  0.00001255  1
  V  V75  1  0.24988664  0.00026814  0.24994875  1
  V  V76  1  0.12540518  0.50054431  0.62479048  1
  V  V77  1  0.62157552  0.75153999  0.37445603  1
  V  V78  1  0.25203509  0.00181443  0.75060265  1
  V  V79  1  0.49987091  0.37587829  0.87595273  1
  V  V80  1  0.75077807  0.24897843  0.49954743  1
  V  V81  1  0.25136794  0.37387189  0.62500136  1
  V  V82  1  0.87563127  0.12496848  0.24929933  1
  V  V83  1  0.62528767  0.49948483  0.62506733  1
  V  V84  1  0.24938768  0.74935230  0.50085853  1
  V  V85  1  0.12580383  -0.00065360  0.12463141  1
  V  V86  1  0.25045998  0.75118523  0.00113058  1
  V  V87  1  0.25002477  0.87406721  0.62373976  1
  V  V88  1  0.75056341  0.49929106  0.75001040  1
  V  V89  1  0.37537136  0.62661339  0.25022149  1
  V  V90  1  0.12525386  0.37529637  0.24993696  1
  V  V91  1  0.62445731  0.62518627  0.00102864  1
  V  V92  1  0.75028948  0.25080483  0.00025580  1
  V  V93  1  0.37619980  0.25011826  0.62462000  1
  V  V94  1  0.24914696  0.62580505  0.87575597  1
  V  V95  1  0.50007953  0.37562537  0.37488035  1
  Zn  Zn96  1  0.37593277  0.75341974  0.12683706  1
  Zn  Zn97  1  0.37637640  0.00339875  0.87364745  1
  Zn  Zn98  1  -0.00269177  0.74972921  0.25184782  1
  Zn  Zn99  1  -0.00252797  0.87343382  0.37429848  1
  Zn  Zn100  1  0.62620247  0.25088462  0.37448111  1
  Zn  Zn101  1  0.74766763  0.87515014  0.12667080  1
  Zn  Zn102  1  0.49906042  0.62437869  0.62559406  1
  Zn  Zn103  1  0.25165083  0.24956763  0.49937980  1
  Zn  Zn104  1  0.62508818  -0.00036340  0.62394703  1
  Zn  Zn105  1  0.87463452  0.62435649  0.25346364  1
  Zn  Zn106  1  0.25119855  0.87521250  0.12442374  1
  Zn  Zn107  1  0.00136703  0.87471720  0.87556955  1
  Zn  Zn108  1  0.49982280  0.50054002  0.00034895  1
  Zn  Zn109  1  0.62210385  0.87502042  0.24838917  1
  Zn  Zn110  1  0.87495902  0.25036590  0.12500680  1
  Zn  Zn111  1  0.12356423  0.62453993  0.50012087  1
  Zn  Zn112  1  0.87627499  0.50130345  0.37490774  1
  Zn  Zn113  1  0.25068049  0.49983721  0.75063150  1
  Zn  Zn114  1  0.49817399  0.75358754  0.25236497  1
  Zn  Zn115  1  0.87619294  0.12360767  0.75098610  1
  Zn  Zn116  1  0.37369117  0.12652265  0.24772093  1
  Zn  Zn117  1  0.49884146  0.87718938  0.87423519  1
  Zn  Zn118  1  0.12338068  0.75046963  0.87612630  1
  Zn  Zn119  1  0.00010966  0.62434769  0.62330005  1
  Zn  Zn120  1  0.37515647  0.12506077  0.75097627  1
  Zn  Zn121  1  0.12477315  0.62712496  -0.00057182  1
  Zn  Zn122  1  0.25217966  0.12565358  0.87441638  1
  Zn  Zn123  1  0.37327825  0.24974400  0.12376088  1
  Zn  Zn124  1  0.49966695  0.87545645  0.37272644  1
  Zn  Zn125  1  0.37618532  0.87294341  0.49902008  1
  Zn  Zn126  1  0.37452201  0.49992926  0.37664642  1
  Zn  Zn127  1  0.74852411  0.87554459  0.62342569  1
  Zn  Zn128  1  0.18751594  0.18731960  0.18682298  1
  Zn  Zn129  1  0.18790630  0.18746879  0.68591003  1
  Zn  Zn130  1  0.18792155  0.68817148  0.18640107  1
  Zn  Zn131  1  0.18722024  0.68654622  0.68847985  1
  Zn  Zn132  1  0.68644266  0.18787138  0.18660242  1
  Zn  Zn133  1  0.68685865  0.18544712  0.68641054  1
  Zn  Zn134  1  0.68774417  0.68652010  0.19058755  1
  Zn  Zn135  1  0.68791551  0.68702356  0.68676585  1
  Zn  Zn136  1  0.31363867  0.31354392  0.31318272  1
  Zn  Zn137  1  0.31314465  0.31268892  0.81205374  1
  Zn  Zn138  1  0.31095190  0.81351261  0.31396467  1
  Zn  Zn139  1  0.31306998  0.81415355  0.81329978  1
  Zn  Zn140  1  0.81412586  0.31248221  0.31255378  1
  Zn  Zn141  1  0.81383913  0.31128781  0.81253833  1
  Zn  Zn142  1  0.80800517  0.81356748  0.31264637  1
  Zn  Zn143  1  0.81296004  0.81342680  0.81407962  1
  Zn  Zn144  1  0.18918036  0.43659825  0.43837439  1
  Zn  Zn145  1  0.18738587  0.43886500  0.93843823  1
  Zn  Zn146  1  0.18828579  0.93618297  0.43705839  1
  Zn  Zn147  1  0.18668614  0.93601228  0.93416586  1
  Zn  Zn148  1  0.68720529  0.43642581  0.43735189  1
  Zn  Zn149  1  0.68653288  0.43823354  0.93850063  1
  Zn  Zn150  1  0.68781196  0.93697305  0.43519444  1
  Zn  Zn151  1  0.68777922  0.93630162  0.93801278  1
  Zn  Zn152  1  0.31259863  0.06361290  0.06335532  1
  Zn  Zn153  1  0.31334647  0.06385150  0.56244598  1
  Zn  Zn154  1  0.31400504  0.56257148  0.06247264  1
  Zn  Zn155  1  0.31154604  0.56249562  0.56219440  1
  Zn  Zn156  1  0.81295622  0.06269588  0.06342220  1
  Zn  Zn157  1  0.81306967  0.06233721  0.56341779  1
  Zn  Zn158  1  0.81216738  0.56235733  0.06321393  1
  Zn  Zn159  1  0.81375920  0.56243117  0.56175695  1
  Zn  Zn160  1  0.43646464  0.43968858  0.18676023  1
  Zn  Zn161  1  0.43762700  0.43787851  0.68835250  1
  Zn  Zn162  1  0.43982684  0.93716611  0.18714511  1
  Zn  Zn163  1  0.43655876  0.93591152  0.68428888  1
  Zn  Zn164  1  0.93565315  0.43823526  0.18839444  1
  Zn  Zn165  1  0.93915606  0.43599363  0.68723974  1
  Zn  Zn166  1  0.93783654  0.93721585  0.18710713  1
  Zn  Zn167  1  0.93603550  0.93538925  0.68614726  1
  Zn  Zn168  1  0.06188603  0.06164845  0.31303386  1
  Zn  Zn169  1  0.06421005  0.06250077  0.81285957  1
  Zn  Zn170  1  0.06183227  0.56278416  0.31173329  1
  Zn  Zn171  1  0.06345244  0.56342931  0.81133085  1
  Zn  Zn172  1  0.56374684  0.06575709  0.31155783  1
  Zn  Zn173  1  0.56146575  0.06243589  0.81334954  1
  Zn  Zn174  1  0.56255547  0.56256868  0.31430729  1
  Zn  Zn175  1  0.56166433  0.56250648  0.81221207  1
  Zn  Zn176  1  0.43783623  0.18766814  0.43615351  1
  Zn  Zn177  1  0.43436912  0.18719636  0.93574573  1
  Zn  Zn178  1  0.43713628  0.68474109  0.43995862  1
  Zn  Zn179  1  0.43752080  0.68947870  0.93777842  1
  Zn  Zn180  1  0.93860133  0.18688652  0.43700664  1
  Zn  Zn181  1  0.93717658  0.18643672  0.93773922  1
  Zn  Zn182  1  0.93801478  0.68542316  0.43973163  1
  Zn  Zn183  1  0.93590387  0.68739742  0.93804143  1
  Zn  Zn184  1  0.06267921  0.31244593  0.06301827  1
  Zn  Zn185  1  0.06422838  0.31182604  0.56198529  1
  Zn  Zn186  1  0.06275961  0.81246858  0.06218456  1
  Zn  Zn187  1  0.06094398  0.81320222  0.56285294  1
  Zn  Zn188  1  0.56223745  0.31331370  0.06230698  1
  Zn  Zn189  1  0.56375333  0.31186687  0.56182394  1
  Zn  Zn190  1  0.56197863  0.81409087  0.06330823  1
  Zn  Zn191  1  0.56094570  0.81253666  0.56354766  1
  O  O192  1  0.11903381  0.11896726  0.11927483  1
  O  O193  1  0.11920235  0.11936923  0.61836879  1
  O  O194  1  0.11507846  0.62061877  0.12357795  1
  O  O195  1  0.12452174  0.61146362  0.62500095  1
  O  O196  1  0.61908561  0.12074003  0.11770236  1
  O  O197  1  0.61856277  0.12239112  0.61717359  1
  O  O198  1  0.61818116  0.62085060  0.12135974  1
  O  O199  1  0.62447324  0.61716248  0.61986539  1
  O  O200  1  0.38187969  0.37763529  0.38172149  1
  O  O201  1  0.38034906  0.38084507  0.87993736  1
  O  O202  1  0.37520942  0.88816048  0.37796272  1
  O  O203  1  0.37690818  0.87830257  0.88695899  1
  O  O204  1  0.88344359  0.37486201  0.38231907  1
  O  O205  1  0.88063608  0.38072650  0.87992837  1
  O  O206  1  0.87533337  0.88122224  0.38087426  1
  O  O207  1  0.87695461  0.88122451  0.88281378  1
  O  O208  1  0.25716795  0.00480443  0.37065218  1
  O  O209  1  0.24923357  0.00090290  0.86080683  1
  O  O210  1  0.25010494  0.50662033  0.36774912  1
  O  O211  1  0.25555775  0.51060467  0.87556192  1
  O  O212  1  0.75572860  0.00709135  0.36934411  1
  O  O213  1  0.75459715  0.00463695  0.86789012  1
  O  O214  1  0.75035012  0.50563838  0.37032022  1
  O  O215  1  0.75512350  0.50464715  0.86949297  1
  O  O216  1  0.24350777  0.49629356  0.12992592  1
  O  O217  1  0.24043879  0.49345609  0.62662742  1
  O  O218  1  0.24238277  0.99891547  0.13181125  1
  O  O219  1  0.24428064  0.99489252  0.63057428  1
  O  O220  1  0.74428288  0.49494151  0.13072965  1
  O  O221  1  0.74601775  0.49296756  0.63071910  1
  O  O222  1  0.74351428  1.00064015  0.13084026  1
  O  O223  1  0.74795556  0.99878392  0.63716803  1
  O  O224  1  0.00615399  0.37024067  0.25420940  1
  O  O225  1  0.00577657  0.36866802  0.75612547  1
  O  O226  1  0.01232061  0.87306542  0.25193421  1
  O  O227  1  0.00452628  0.86546709  0.74976286  1
  O  O228  1  0.50450347  0.36991068  0.25340154  1
  O  O229  1  0.50695791  0.36923910  0.75581131  1
  O  O230  1  0.50345236  0.87067591  0.25472234  1
  O  O231  1  0.50912026  0.87036710  0.75071146  1
  O  O232  1  0.49995316  0.13638561  0.24419070  1
  O  O233  1  0.50098962  0.13143379  0.74250568  1
  O  O234  1  0.49145915  0.62519309  0.24342054  1
  O  O235  1  0.49356405  0.63173413  0.74885099  1
  O  O236  1  0.99585483  0.12954208  0.24478725  1
  O  O237  1  0.99991315  0.13071406  0.74312496  1
  O  O238  1  0.99751282  0.62643009  0.23706766  1
  O  O239  1  0.99370616  0.63309183  0.74834694  1
  O  O240  1  0.36765220  0.25834788  0.00072979  1
  O  O241  1  0.37558597  0.25687185  0.50648630  1
  O  O242  1  0.36748259  0.75896926  0.00096149  1
  O  O243  1  0.36754677  0.75021554  0.50626940  1
  O  O244  1  0.86834544  0.25700576  0.00041772  1
  O  O245  1  0.87122848  0.25441513  0.50627864  1
  O  O246  1  0.86964175  0.75389472  0.00804256  1
  O  O247  1  0.86978743  0.75498426  0.50505670  1
  O  O248  1  0.12626257  0.24273614  0.49258130  1
  O  O249  1  0.12926260  0.24573986  0.99465499  1
  O  O250  1  0.12920750  0.74969902  0.49056875  1
  O  O251  1  0.13641210  0.74907747  0.99748129  1
  O  O252  1  0.63325503  0.24410890  0.49841285  1
  O  O253  1  0.63057102  0.24548198  0.99401314  1
  O  O254  1  0.62938742  0.74465412  0.49471131  1
  O  O255  1  0.63015742  0.74460455  0.99522983  1
  O  O256  1  0.49948106  0.24669199  0.13358800  1
  O  O257  1  0.49629459  0.24570240  0.63021614  1
  O  O258  1  0.49986416  0.73681614  0.12782679  1
  O  O259  1  0.49245327  0.74787967  0.63166255  1
  O  O260  1  0.99964756  0.24347202  0.13145835  1
  O  O261  1  0.99644467  0.24465811  0.63022264  1
  O  O262  1  0.99111952  0.74162528  0.12424878  1
  O  O263  1  0.99381019  0.74822325  0.63492521  1
  O  O264  1  0.00691922  0.25467313  0.36898113  1
  O  O265  1  0.00543885  0.25573476  0.87038815  1
  O  O266  1  0.01100491  0.75062350  0.37301012  1
  O  O267  1  -0.00046313  0.75009657  0.86268543  1
  O  O268  1  0.50187708  0.25586328  0.36451341  1
  O  O269  1  0.50628669  0.25584858  0.86955975  1
  O  O270  1  0.51034355  0.74994232  0.37754168  1
  O  O271  1  0.50719951  0.75192008  0.86818678  1
  O  O272  1  0.24279875  0.12567900  0.49308872  1
  O  O273  1  0.24237178  0.13213791  0.99965658  1
  O  O274  1  0.24630274  0.63088935  0.49294101  1
  O  O275  1  0.25189214  0.63383095  0.99186675  1
  O  O276  1  0.74637759  0.12954288  0.49486720  1
  O  O277  1  0.74445854  0.13045157  0.99487264  1
  O  O278  1  0.74405350  0.62987992  0.49566433  1
  O  O279  1  0.74468977  0.63019254  0.99457845  1
  O  O280  1  0.25424358  0.37071853  0.00506781  1
  O  O281  1  0.25769735  0.37273025  0.50657794  1
  O  O282  1  0.25753741  0.86752561  -0.00087070  1
  O  O283  1  0.25053951  0.86790219  0.50656409  1
  O  O284  1  0.75448525  0.37057975  0.00475424  1
  O  O285  1  0.75596974  0.36910142  0.50602621  1
  O  O286  1  0.75673027  0.86773781  0.00241879  1
  O  O287  1  0.75562396  0.86886711  0.50124377  1
  O  O288  1  0.12992106  0.49465402  0.24380265  1
  O  O289  1  0.12564523  0.49324155  0.74094139  1
  O  O290  1  0.12922020  0.99191123  0.24622998  1
  O  O291  1  0.13158609  0.99443216  0.74285677  1
  O  O292  1  0.63016595  0.49487875  0.24467752  1
  O  O293  1  0.63157183  0.49394563  0.74579303  1
  O  O294  1  0.63118395  1.00234351  0.24306567  1
  O  O295  1  0.63330972  0.99149963  0.75133649  1
  O  O296  1  0.36965657  0.00143195  0.25928550  1
  O  O297  1  0.36318248  -0.00076630  0.74825957  1
  O  O298  1  0.36854899  0.51102119  0.25106022  1
  O  O299  1  0.37295730  0.50660997  0.75718200  1
  O  O300  1  0.87023453  0.00560640  0.25466537  1
  O  O301  1  0.86474433  -0.00110689  0.75573431  1
  O  O302  1  0.86629288  0.50193841  0.25334785  1
  O  O303  1  0.87027717  0.50391654  0.75492713  1
  O  O304  1  0.12072712  0.36959867  0.36894176  1
  O  O305  1  0.11922709  0.37084783  0.87033757  1
  O  O306  1  0.12469356  0.86620373  0.36652522  1
  O  O307  1  0.12124945  0.87064735  0.86518615  1
  O  O308  1  0.61841243  0.37314653  0.36802824  1
  O  O309  1  0.62087838  0.36975449  0.86975636  1
  O  O310  1  0.62367369  0.86234550  0.37479628  1
  O  O311  1  0.62462617  0.86822474  0.86509637  1
  O  O312  1  0.38311538  0.12889541  0.12761636  1
  O  O313  1  0.38254667  0.13234791  0.62579906  1
  O  O314  1  0.38337374  0.62570646  0.13336782  1
  O  O315  1  0.37396976  0.63115524  0.63316359  1
  O  O316  1  0.88255837  0.12651631  0.13118737  1
  O  O317  1  0.88243465  0.13097028  0.62689869  1
  O  O318  1  0.88247337  0.63367834  0.12462761  1
  O  O319  1  0.87603126  0.63104367  0.63231482  1
  O  O320  1  0.24938682  0.25815964  0.11857885  1
  O  O321  1  0.25678794  0.25632330  0.62310142  1
  O  O322  1  0.25266688  0.75083562  0.11280899  1
  O  O323  1  0.25331734  0.75434555  0.62051468  1
  O  O324  1  0.75064063  0.25712717  0.11799127  1
  O  O325  1  0.75635654  0.25422019  0.62031963  1
  O  O326  1  0.75901072  0.74809880  0.11970783  1
  O  O327  1  0.75590912  0.75129244  0.61866144  1
  O  O328  1  0.24383857  0.24363474  0.37502014  1
  O  O329  1  0.24228998  0.25100968  0.88125041  1
  O  O330  1  0.24126753  0.74534666  0.38018439  1
  O  O331  1  0.25080969  0.74112928  0.88349585  1
  O  O332  1  0.75019410  0.24370199  0.38155961  1
  O  O333  1  0.74445402  0.24503052  0.87977785  1
  O  O334  1  0.74108728  0.74386174  0.38164348  1
  O  O335  1  0.74499935  0.74344535  0.88029899  1
  O  O336  1  0.00589325  0.11938670  0.00528306  1
  O  O337  1  0.00562073  0.11856015  0.50528021  1
  O  O338  1  -0.00015172  0.61978567  0.00947380  1
  O  O339  1  0.00381209  0.61532478  0.50368745  1
  O  O340  1  0.50567308  0.12204438  0.00444088  1
  O  O341  1  0.50580386  0.11802479  0.50370051  1
  O  O342  1  0.50520893  0.62464942  0.00967582  1
  O  O343  1  0.50668236  0.61657915  0.50334813  1
  O  O344  1  0.49638501  0.37931993  0.49490367  1
  O  O345  1  0.49430781  0.37695117  0.99353651  1
  O  O346  1  0.49862747  0.88825021  0.49800038  1
  O  O347  1  0.49115957  0.88076398  0.99919334  1
  O  O348  1  0.99622672  0.37863927  0.49457465  1
  O  O349  1  0.99477225  0.38057469  0.99474449  1
  O  O350  1  0.99243382  0.88155091  0.49825738  1
  O  O351  1  0.99389052  0.88136344  0.99893160  1
  O  O352  1  0.49898736  0.49340941  0.38250827  1
  O  O353  1  0.49452447  0.49349706  0.87678666  1
  O  O354  1  0.49221097  1.00363215  0.38299696  1
  O  O355  1  0.49831258  0.99762998  0.88350486  1
  O  O356  1  1.00107735  0.49283066  0.38165726  1
  O  O357  1  0.99482496  0.49518041  0.87939334  1
  O  O358  1  0.99276604  0.99892700  0.38173933  1
  O  O359  1  0.99371444  0.99950207  0.88147175  1
  O  O360  1  0.00606103  0.00543688  0.11911437  1
  O  O361  1  0.00491752  0.00449219  0.61959823  1
  O  O362  1  0.00319119  0.50779766  0.12009432  1
  O  O363  1  0.01043772  0.49758455  0.61965817  1
  O  O364  1  0.50576398  0.00792901  0.11866018  1
  O  O365  1  0.50008464  0.00588134  0.61403914  1
  O  O366  1  0.50623941  0.51150090  0.12484681  1
  O  O367  1  0.50824348  0.49974505  0.61962380  1
  O  O368  1  0.24448282  0.38078744  0.24478069  1
  O  O369  1  0.24340661  0.37692826  0.74388015  1
  O  O370  1  0.23935082  0.88048693  0.24880072  1
  O  O371  1  0.24446936  0.88168849  0.74334897  1
  O  O372  1  0.74439248  0.37902149  0.24519446  1
  O  O373  1  0.74553483  0.37938852  0.74515559  1
  O  O374  1  0.74545036  0.88484953  0.24726042  1
  O  O375  1  0.74160844  0.88324115  0.75110708  1
  O  O376  1  0.25011305  0.11817154  0.25654208  1
  O  O377  1  0.24978118  0.11284068  0.74833616  1
  O  O378  1  0.25713554  0.62070509  0.25349956  1
  O  O379  1  0.25598189  0.62540433  0.76150974  1
  O  O380  1  0.75576661  0.12105192  0.25450134  1
  O  O381  1  0.74933383  0.11450392  0.75629611  1
  O  O382  1  0.75032770  0.61709796  0.25768871  1
  O  O383  1  0.75532875  0.61895542  0.75603680  1
  O  O384  1  0.36923792  0.11542591  0.37310908  1
  O  O385  1  0.36955509  0.12150273  0.86905934  1
  O  O386  1  0.36884954  0.62343040  0.36576157  1
  O  O387  1  0.36764247  0.62099649  0.87118483  1
  O  O388  1  0.87022183  0.11936533  0.36929746  1
  O  O389  1  0.86789312  0.11779029  0.87388154  1
  O  O390  1  0.86654875  0.62339514  0.37405042  1
  O  O391  1  0.86880918  0.61879752  0.86973898  1
  O  O392  1  0.12967336  0.38149682  0.13049042  1
  O  O393  1  0.13022425  0.38165027  0.62987554  1
  O  O394  1  0.12608000  0.88012744  0.13428494  1
  O  O395  1  0.13016465  0.88057453  0.62993121  1
  O  O396  1  0.63031001  0.38147374  0.12985993  1
  O  O397  1  0.63221980  0.37912919  0.63096618  1
  O  O398  1  0.62721917  0.88396300  0.12618758  1
  O  O399  1  0.62693857  0.87649705  0.63785101  1
  O  O400  1  0.11972831  0.25576268  0.25528214  1
  O  O401  1  0.11975822  0.25532595  0.75475273  1
  O  O402  1  0.12596062  0.75806360  0.25775816  1
  O  O403  1  0.11521263  0.75459060  0.74921739  1
  O  O404  1  0.61457607  0.25691631  0.24988133  1
  O  O405  1  0.62090892  0.25521075  0.75524350  1
  O  O406  1  0.62341245  0.74839826  0.26363575  1
  O  O407  1  0.62137650  0.75660097  0.75469416  1
  O  O408  1  0.38733137  0.25077096  0.24732411  1
  O  O409  1  0.38308293  0.25057797  0.74267665  1
  O  O410  1  0.37412489  0.73838803  0.24892459  1
  O  O411  1  0.37988038  0.74580074  0.74573536  1
  O  O412  1  0.88263898  0.24316491  0.24842949  1
  O  O413  1  0.88232418  0.24817534  0.74403339  1
  O  O414  1  0.87540330  0.74888719  0.23914886  1
  O  O415  1  0.88105628  0.74559695  0.74572066  1
  O  O416  1  0.38213646  0.49328166  0.50012219  1
  O  O417  1  0.37671770  0.49388092  0.99335465  1
  O  O418  1  0.38379976  1.00089674  0.49110110  1
  O  O419  1  0.37949100  0.99165795  0.99975607  1
  O  O420  1  0.88285688  0.49165333  0.50023290  1
  O  O421  1  0.87967795  0.49486434  0.99371526  1
  O  O422  1  0.87910221  0.99524871  0.49466480  1
  O  O423  1  0.88032195  0.99477649  0.99625484  1
  O  O424  1  0.12064771  0.00413919  0.00474816  1
  O  O425  1  0.11960466  0.00417661  0.50449593  1
  O  O426  1  0.11749832  0.50225066  0.00683857  1
  O  O427  1  0.11976185  0.49810942  0.51011477  1
  O  O428  1  0.62033742  0.00642900  0.00427229  1
  O  O429  1  0.61612837  0.00576566  0.49916831  1
  O  O430  1  0.62421938  0.50770319  0.00721179  1
  O  O431  1  0.62087662  0.50378875  0.50653572  1
  O  O432  1  0.36752428  0.37594844  0.11846243  1
  O  O433  1  0.37115415  0.36973612  0.62030281  1
  O  O434  1  0.37276789  0.87371564  0.11319486  1
  O  O435  1  0.36737460  0.86658049  0.62214030  1
  O  O436  1  0.86818199  0.37423547  0.11785517  1
  O  O437  1  0.87068977  0.36828322  0.62011852  1
  O  O438  1  0.87475875  0.86424828  0.11980877  1
  O  O439  1  0.87119950  0.86805723  0.61779008  1
  O  O440  1  0.12976325  0.12926222  0.37959965  1
  O  O441  1  0.12655422  0.13258500  0.88181876  1
  O  O442  1  0.13071298  0.63530674  0.37301894  1
  O  O443  1  0.13649971  0.62671612  0.87714286  1
  O  O444  1  0.63297252  0.12813279  0.38138949  1
  O  O445  1  0.63053957  0.13121053  0.88055279  1
  O  O446  1  0.62985471  0.63207835  0.38258950  1
  O  O447  1  0.63054677  0.62965009  0.88039007  1
