# generated using pymatgen
data_V3Zn3O8
_symmetry_space_group_name_H-M   'P 1'
_cell_length_a   17.08891232
_cell_length_b   17.08790533
_cell_length_c   17.08786444
_cell_angle_alpha   90.01163597
_cell_angle_beta   90.01092320
_cell_angle_gamma   90.01545438
_symmetry_Int_Tables_number   1
_chemical_formula_structural   V3Zn3O8
_chemical_formula_sum   'V96 Zn96 O256'
_cell_volume   4989.89041589
_cell_formula_units_Z   32
loop_
 _symmetry_equiv_pos_site_id
 _symmetry_equiv_pos_as_xyz
  1  'x, y, z'
loop_
 _atom_site_type_symbol
 _atom_site_label
 _atom_site_symmetry_multiplicity
 _atom_site_fract_x
 _atom_site_fract_y
 _atom_site_fract_z
 _atom_site_occupancy
  V  V0  1  0.74885693  0.62221745  0.87510467  1
  V  V1  1  0.37690675  0.00113238  0.37575043  1
  V  V2  1  0.37499661  0.25109439  0.12458497  1
  V  V3  1  0.62410100  0.49941626  0.12539813  1
  V  V4  1  0.37557879  0.00141260  0.87499634  1
  V  V5  1  0.24964184  0.75195361  0.50070666  1
  V  V6  1  0.12501117  0.00145896  0.12436968  1
  V  V7  1  -0.00051956  0.49977695  -0.00066920  1
  V  V8  1  0.37517836  0.37523774  0.49961250  1
  V  V9  1  0.12373119  0.75174630  0.87562116  1
  V  V10  1  0.37463140  0.75173504  0.12579598  1
  V  V11  1  0.75012589  0.12361418  0.37366428  1
  V  V12  1  0.74920676  0.12358565  0.87588075  1
  V  V13  1  0.24979671  0.62595037  0.87516542  1
  V  V14  1  0.74957015  0.49821223  0.24984833  1
  V  V15  1  0.37688868  0.25090272  0.62540327  1
  V  V16  1  0.12578624  0.25102274  0.37393120  1
  V  V17  1  0.62364648  -0.00053219  0.12398210  1
  V  V18  1  0.87533623  0.37255115  0.49804946  1
  V  V19  1  0.50048576  0.37402946  0.87224820  1
  V  V20  1  0.37509150  0.87799659  -0.00101560  1
  V  V21  1  0.25090043  0.37606226  0.12430869  1
  V  V22  1  0.74920675  0.24795833  -0.00196206  1
  V  V23  1  0.24913913  0.75101537  0.00068471  1
  V  V24  1  0.87455173  0.37403598  -0.00217092  1
  V  V25  1  0.87368365  0.74776726  0.12716228  1
  V  V26  1  0.25007648  0.50168321  0.25031183  1
  V  V27  1  0.62506102  0.62379513  0.50180486  1
  V  V28  1  0.62583356  0.24787645  0.37404582  1
  V  V29  1  0.12441244  0.12557042  0.50029874  1
  V  V30  1  0.74966699  0.37466961  0.62456786  1
  V  V31  1  -0.00040504  0.75079667  0.75101702  1
  V  V32  1  0.12446389  0.87612343  0.75085372  1
  V  V33  1  0.87613359  0.24823896  0.12382361  1
  V  V34  1  -0.00154511  0.62405397  0.12662837  1
  V  V35  1  0.50023671  0.37480980  0.37460676  1
  V  V36  1  0.12420754  0.62621787  0.00110996  1
  V  V37  1  0.12472843  0.25085456  0.87327594  1
  V  V38  1  0.12447209  0.87582285  0.25114406  1
  V  V39  1  0.75118316  0.74827758  0.50137656  1
  V  V40  1  0.87534518  0.87393729  0.00113079  1
  V  V41  1  0.62413466  0.00174459  0.62471945  1
  V  V42  1  0.25049646  0.62724302  0.37638353  1
  V  V43  1  0.00101937  0.49966946  0.49948798  1
  V  V44  1  0.87598288  0.74879502  0.62672056  1
  V  V45  1  0.50064222  0.12377513  0.12276098  1
  V  V46  1  0.74951699  0.87270734  0.12674912  1
  V  V47  1  0.75148311  -0.00198029  0.75193247  1
  V  V48  1  0.87786738  0.12364062  0.74843783  1
  V  V49  1  0.00026891  0.24935236  0.24664357  1
  V  V50  1  0.87419809  -0.00053075  0.37375208  1
  V  V51  1  0.24935260  0.12753270  0.87324854  1
  V  V52  1  0.12439271  0.62563154  0.50071755  1
  V  V53  1  0.25002172  0.25172230  0.49873265  1
  V  V54  1  0.25112347  0.00108771  0.24961698  1
  V  V55  1  0.24933140  0.37751010  0.62472125  1
  V  V56  1  0.62504906  0.74991019  0.37613967  1
  V  V57  1  0.37475114  0.62679305  0.25121642  1
  V  V58  1  0.37550524  0.50094619  0.37531778  1
  V  V59  1  0.24869781  0.00151126  0.74906577  1
  V  V60  1  0.75030890  0.62333606  0.37621272  1
  V  V61  1  0.00031658  0.37467029  0.37351891  1
  V  V62  1  0.87506310  0.49854985  0.37422368  1
  V  V63  1  0.24977591  0.87596643  0.12552380  1
  V  V64  1  0.87499067  0.62461112  0.75075253  1
  V  V65  1  0.37518033  0.12536281  0.24968933  1
  V  V66  1  0.49970067  0.62527441  0.12607112  1
  V  V67  1  0.12481632  0.50045386  0.12499452  1
  V  V68  1  0.50031930  0.75094195  0.25213338  1
  V  V69  1  0.12551835  0.37546027  0.24900116  1
  V  V70  1  0.00134042  0.87477845  0.37445858  1
  V  V71  1  0.37588076  0.87709717  0.50217737  1
  V  V72  1  0.74928912  0.37310146  0.12322419  1
  V  V73  1  0.62450700  0.87297082  0.75211020  1
  V  V74  1  0.75028647  -0.00103445  0.25052724  1
  V  V75  1  0.12455754  0.37540375  0.74948465  1
  V  V76  1  0.37608129  0.12826410  0.74840879  1
  V  V77  1  0.25020533  0.50313198  0.75052166  1
  V  V78  1  0.49997135  0.24988540  0.24903132  1
  V  V79  1  0.87389521  0.49975445  0.87352100  1
  V  V80  1  0.62470775  0.37376624  0.24903831  1
  V  V81  1  0.87633663  0.87447175  0.50041448  1
  V  V82  1  0.62222986  0.74907314  0.87538778  1
  V  V83  1  0.50068220  0.50086000  0.50062459  1
  V  V84  1  0.12358768  0.12532329  -0.00009114  1
  V  V85  1  0.75053013  0.87309365  0.62655778  1
  V  V86  1  0.49850867  0.49956452  0.00024433  1
  V  V87  1  0.62415328  0.62462316  0.00039564  1
  V  V88  1  0.62462221  0.87368977  0.25126317  1
  V  V89  1  0.75082455  0.24825207  0.49759065  1
  V  V90  1  0.49845631  0.62632635  0.62796564  1
  V  V91  1  0.87516029  0.62367790  0.25007078  1
  V  V92  1  0.00004666  0.37454027  0.87243375  1
  V  V93  1  0.24877647  0.87748244  0.62559270  1
  V  V94  1  0.37462044  0.37633794  0.00026723  1
  V  V95  1  0.00070782  0.00135209  0.49949677  1
  Zn  Zn96  1  0.74856840  0.74785149  0.00235602  1
  Zn  Zn97  1  0.50395204  0.25112160  0.74770520  1
  Zn  Zn98  1  0.87710284  -0.00300962  0.87735894  1
  Zn  Zn99  1  0.12254199  0.00216699  0.62636836  1
  Zn  Zn100  1  0.62417568  0.24945530  0.87238474  1
  Zn  Zn101  1  0.25135249  0.12711711  0.37433388  1
  Zn  Zn102  1  0.37544557  0.50270266  0.87557976  1
  Zn  Zn103  1  0.50183908  0.87540126  0.37828510  1
  Zn  Zn104  1  0.62306399  0.12382448  -0.00200895  1
  Zn  Zn105  1  0.50161866  0.00060405  -0.00290143  1
  Zn  Zn106  1  0.00013057  0.24924397  0.74581167  1
  Zn  Zn107  1  0.37470617  0.75172917  0.62885252  1
  Zn  Zn108  1  0.50146294  0.00225111  0.50181451  1
  Zn  Zn109  1  0.87638594  0.24796615  0.62326304  1
  Zn  Zn110  1  0.50227201  0.12832289  0.62443969  1
  Zn  Zn111  1  0.12298948  0.50030695  0.62509498  1
  Zn  Zn112  1  -0.00154645  0.12614144  0.62436102  1
  Zn  Zn113  1  0.12430365  0.75198601  0.37410485  1
  Zn  Zn114  1  0.24987299  0.25246464  -0.00080608  1
  Zn  Zn115  1  -0.00115183  0.12329398  0.12461764  1
  Zn  Zn116  1  0.74928036  0.49784495  0.74809290  1
  Zn  Zn117  1  -0.00130607  0.87563979  0.87703562  1
  Zn  Zn118  1  0.49920682  0.87677267  0.87486360  1
  Zn  Zn119  1  0.62711922  0.37384722  0.74966326  1
  Zn  Zn120  1  0.62419269  0.12324859  0.49954794  1
  Zn  Zn121  1  -0.00053025  -0.00209651  0.00102381  1
  Zn  Zn122  1  0.87715377  0.12287177  0.24667291  1
  Zn  Zn123  1  0.00141156  0.74888256  0.25255947  1
  Zn  Zn124  1  0.49623795  0.75106710  0.75052310  1
  Zn  Zn125  1  0.62527934  0.49873309  0.62779880  1
  Zn  Zn126  1  -0.00017685  0.62342369  0.62579882  1
  Zn  Zn127  1  0.37486673  0.62950335  0.75229751  1
  Zn  Zn128  1  0.18891459  0.18796001  0.18617607  1
  Zn  Zn129  1  0.18846926  0.19022039  0.68574533  1
  Zn  Zn130  1  0.18629971  0.68961504  0.18860437  1
  Zn  Zn131  1  0.18702812  0.69048406  0.68600710  1
  Zn  Zn132  1  0.68826672  0.18456795  0.18629729  1
  Zn  Zn133  1  0.68925401  0.19013831  0.68959470  1
  Zn  Zn134  1  0.68738516  0.68669880  0.18919404  1
  Zn  Zn135  1  0.68652202  0.68532286  0.68958984  1
  Zn  Zn136  1  0.31280663  0.31321446  0.31188974  1
  Zn  Zn137  1  0.31324820  0.31436532  0.81245488  1
  Zn  Zn138  1  0.31155214  0.81463907  0.31470716  1
  Zn  Zn139  1  0.31243274  0.81326884  0.81209802  1
  Zn  Zn140  1  0.81334486  0.30990908  0.31027743  1
  Zn  Zn141  1  0.81365584  0.30841870  0.81004782  1
  Zn  Zn142  1  0.81330554  0.81121232  0.31336939  1
  Zn  Zn143  1  0.81008703  0.80894884  0.81548074  1
  Zn  Zn144  1  0.18739922  0.43897767  0.43710714  1
  Zn  Zn145  1  0.18702569  0.43841418  0.93629376  1
  Zn  Zn146  1  0.18859181  0.93988211  0.43652839  1
  Zn  Zn147  1  0.18855982  0.93942136  0.93596560  1
  Zn  Zn148  1  0.68668524  0.43606682  0.43914181  1
  Zn  Zn149  1  0.68567072  0.43727486  0.93693846  1
  Zn  Zn150  1  0.68929635  0.93594784  0.43887741  1
  Zn  Zn151  1  0.68905270  0.93633999  0.93993143  1
  Zn  Zn152  1  0.31159487  0.06431188  0.06071838  1
  Zn  Zn153  1  0.31053335  0.06484417  0.56368544  1
  Zn  Zn154  1  0.31271313  0.56368607  0.06240399  1
  Zn  Zn155  1  0.31338518  0.56348632  0.56401945  1
  Zn  Zn156  1  0.81168809  0.06060283  0.06357302  1
  Zn  Zn157  1  0.81051018  0.06148204  0.56234551  1
  Zn  Zn158  1  0.81118210  0.56114825  0.06104735  1
  Zn  Zn159  1  0.81513467  0.56039881  0.56341531  1
  Zn  Zn160  1  0.43699807  0.43796117  0.18787277  1
  Zn  Zn161  1  0.43579664  0.44021929  0.68783630  1
  Zn  Zn162  1  0.43923687  0.93756240  0.18778996  1
  Zn  Zn163  1  0.43920826  0.93889392  0.69079575  1
  Zn  Zn164  1  0.93685441  0.43564015  0.18585650  1
  Zn  Zn165  1  0.93616445  0.43747189  0.68520058  1
  Zn  Zn166  1  0.93933058  0.93708706  0.18633414  1
  Zn  Zn167  1  0.93975282  0.93887723  0.68708250  1
  Zn  Zn168  1  0.06213951  0.06371415  0.31251789  1
  Zn  Zn169  1  0.05942943  0.05856630  0.81692886  1
  Zn  Zn170  1  0.06288592  0.56286492  0.31403521  1
  Zn  Zn171  1  0.06235375  0.56353807  0.81270530  1
  Zn  Zn172  1  0.56236500  0.06214043  0.31084898  1
  Zn  Zn173  1  0.56091020  0.06286427  0.80950302  1
  Zn  Zn174  1  0.56301006  0.56313091  0.31325083  1
  Zn  Zn175  1  0.56469672  0.55729699  0.81004348  1
  Zn  Zn176  1  0.44099385  0.18533575  0.44061995  1
  Zn  Zn177  1  0.43695373  0.18907821  0.93778216  1
  Zn  Zn178  1  0.43799141  0.68957292  0.44069620  1
  Zn  Zn179  1  0.43587666  0.68748263  0.93831893  1
  Zn  Zn180  1  0.93757320  0.18661914  0.43346416  1
  Zn  Zn181  1  0.93785341  0.18753872  0.93409485  1
  Zn  Zn182  1  0.93891935  0.68814536  0.43693202  1
  Zn  Zn183  1  0.93633625  0.68889130  0.93821925  1
  Zn  Zn184  1  0.06245334  0.31161983  0.06056856  1
  Zn  Zn185  1  0.06115721  0.31123408  0.56464849  1
  Zn  Zn186  1  0.06025651  0.81148107  0.06669835  1
  Zn  Zn187  1  0.06285104  0.81268197  0.56431985  1
  Zn  Zn188  1  0.56291383  0.30996013  0.05808642  1
  Zn  Zn189  1  0.56451516  0.31135442  0.56077464  1
  Zn  Zn190  1  0.56050820  0.81375877  0.06122392  1
  Zn  Zn191  1  0.56222329  0.81254129  0.56423230  1
  O  O192  1  0.12651903  0.12080944  0.11474696  1
  O  O193  1  0.12448478  0.12615935  0.61073925  1
  O  O194  1  0.11958557  0.61952336  0.12085054  1
  O  O195  1  0.12352874  0.62420945  0.61150649  1
  O  O196  1  0.61834387  0.11714695  0.12475296  1
  O  O197  1  0.62936409  0.11171754  0.62577270  1
  O  O198  1  0.61896433  0.61906983  0.12192203  1
  O  O199  1  0.61680327  0.62329636  0.61872374  1
  O  O200  1  0.38086424  0.38121572  0.37907448  1
  O  O201  1  0.38239229  0.37858999  0.88242551  1
  O  O202  1  0.37524557  0.88450629  0.38458354  1
  O  O203  1  0.37342023  0.88312155  0.88163681  1
  O  O204  1  0.88051139  0.37983181  0.37745936  1
  O  O205  1  0.87984912  0.37944854  0.87920010  1
  O  O206  1  0.87974805  0.87970211  0.38148908  1
  O  O207  1  0.87268930  0.87174125  0.88933514  1
  O  O208  1  0.26184038  0.00235395  0.36844795  1
  O  O209  1  0.25543439  0.00799656  0.86805080  1
  O  O210  1  0.25655442  0.50629731  0.36935788  1
  O  O211  1  0.24873729  0.50718091  0.86645869  1
  O  O212  1  0.75496637  0.00296980  0.36990877  1
  O  O213  1  0.75259264  0.00716077  0.87013320  1
  O  O214  1  0.75496611  0.50343254  0.36951746  1
  O  O215  1  0.75725615  0.50468692  0.87527853  1
  O  O216  1  0.24428068  0.49683032  0.13134471  1
  O  O217  1  0.24805897  0.49580142  0.63351234  1
  O  O218  1  0.24567223  0.99495805  0.13057420  1
  O  O219  1  0.24658234  0.99526922  0.63179276  1
  O  O220  1  0.74375606  0.49314539  0.12999287  1
  O  O221  1  0.75016073  0.48723315  0.62276335  1
  O  O222  1  0.74367927  0.99260085  0.13199990  1
  O  O223  1  0.74320523  0.99156902  0.63119781  1
  O  O224  1  0.00665454  0.37094882  0.25394699  1
  O  O225  1  0.00636414  0.37619563  0.75602817  1
  O  O226  1  0.00702286  0.87466050  0.25676636  1
  O  O227  1  0.00616935  0.86835910  0.75187597  1
  O  O228  1  0.50497709  0.37005809  0.25492895  1
  O  O229  1  0.49742620  0.37685427  0.76219153  1
  O  O230  1  0.50640663  0.86749591  0.25251891  1
  O  O231  1  0.50970448  0.87209597  0.75400689  1
  O  O232  1  0.49424668  0.13126618  0.24360092  1
  O  O233  1  0.49051381  0.12923966  0.74586395  1
  O  O234  1  0.49431866  0.63037226  0.24567083  1
  O  O235  1  0.49869271  0.62333411  0.73868121  1
  O  O236  1  0.99892467  0.13422442  0.24680795  1
  O  O237  1  0.98872870  0.12277446  0.75031658  1
  O  O238  1  0.99272410  0.62288263  0.24449492  1
  O  O239  1  0.99366580  0.63220377  0.74930400  1
  O  O240  1  0.37211704  0.25809287  0.00805404  1
  O  O241  1  0.36985047  0.25665485  0.50376265  1
  O  O242  1  0.36849747  0.75616067  0.00684621  1
  O  O243  1  0.36910648  0.76274851  0.50069229  1
  O  O244  1  0.86986913  0.25588515  0.00348557  1
  O  O245  1  0.86823946  0.25602023  0.49586085  1
  O  O246  1  0.87143949  0.75550613  0.00896572  1
  O  O247  1  0.87012892  0.75442432  0.50584915  1
  O  O248  1  0.12976939  0.24496101  0.49315350  1
  O  O249  1  0.12763007  0.24242277  0.99327854  1
  O  O250  1  0.13060539  0.74170236  0.49812578  1
  O  O251  1  0.12985193  0.74522888  0.99744082  1
  O  O252  1  0.63286645  0.24850439  0.49021774  1
  O  O253  1  0.63466086  0.24534746  0.99589507  1
  O  O254  1  0.63177464  0.74444716  0.49573355  1
  O  O255  1  0.62483003  0.74289634  0.99298450  1
  O  O256  1  0.49478380  0.24544317  0.13049486  1
  O  O257  1  0.49052979  0.25168510  0.62533035  1
  O  O258  1  0.49411012  0.74439294  0.13183918  1
  O  O259  1  0.49922289  0.73832799  0.62591867  1
  O  O260  1  0.99396388  0.25074708  0.12972089  1
  O  O261  1  0.99454223  0.24476194  0.62780403  1
  O  O262  1  0.99242401  0.74047955  0.12954669  1
  O  O263  1  0.99290580  0.74848578  0.63228572  1
  O  O264  1  0.00640294  0.25690446  0.36734092  1
  O  O265  1  0.00675205  0.25779459  0.87144864  1
  O  O266  1  0.00214217  0.75905431  0.37288810  1
  O  O267  1  0.00668881  0.75150112  0.86943651  1
  O  O268  1  0.50497198  0.25566148  0.36875027  1
  O  O269  1  0.49995130  0.26236294  0.87421992  1
  O  O270  1  0.50704155  0.75084492  0.36984345  1
  O  O271  1  0.51261923  0.74924117  0.87487816  1
  O  O272  1  0.24132063  0.13301981  0.49734876  1
  O  O273  1  0.23952128  0.12805690  0.99281345  1
  O  O274  1  0.24369611  0.63023358  0.49563575  1
  O  O275  1  0.24327569  0.63118287  0.99698427  1
  O  O276  1  0.74842077  0.13014002  0.49132944  1
  O  O277  1  0.75143983  0.12888596  0.99008489  1
  O  O278  1  0.74614941  0.62885018  0.49502469  1
  O  O279  1  0.74158786  0.62436333  0.99431534  1
  O  O280  1  0.25569397  0.37681610  0.00732365  1
  O  O281  1  0.25581592  0.37212143  0.50389738  1
  O  O282  1  0.25458374  0.86980604  0.00644754  1
  O  O283  1  0.25727101  0.87294342  0.50478120  1
  O  O284  1  0.75517560  0.36929808  0.00424567  1
  O  O285  1  0.75626853  0.36859163  0.50332377  1
  O  O286  1  0.75801453  0.87077532  0.00942874  1
  O  O287  1  0.75704164  0.86732742  0.50608706  1
  O  O288  1  0.13059269  0.49534709  0.24494925  1
  O  O289  1  0.13446324  0.49542771  0.74919584  1
  O  O290  1  0.13190094  0.99613155  0.24487802  1
  O  O291  1  0.13129180  0.99466820  0.74997031  1
  O  O292  1  0.62980106  0.49399320  0.24515303  1
  O  O293  1  0.63171618  0.49216376  0.74532969  1
  O  O294  1  0.63031754  0.99255577  0.24510372  1
  O  O295  1  0.63221627  0.99294594  0.74375535  1
  O  O296  1  0.37098866  0.00464337  0.25711218  1
  O  O297  1  0.36816076  0.00734679  0.75482615  1
  O  O298  1  0.37007968  0.50694296  0.25531216  1
  O  O299  1  0.35984012  0.50347460  0.75208531  1
  O  O300  1  0.86778778  -0.00148059  0.25592612  1
  O  O301  1  0.86848065  0.00588928  0.75160797  1
  O  O302  1  0.86862541  0.50299493  0.25453997  1
  O  O303  1  0.87412665  0.50663033  0.75708383  1
  O  O304  1  0.12032879  0.37122656  0.36832574  1
  O  O305  1  0.11951963  0.37083563  0.86984095  1
  O  O306  1  0.11964776  0.87648045  0.36903828  1
  O  O307  1  0.12579493  0.86806871  0.86910191  1
  O  O308  1  0.61966113  0.36908158  0.36813956  1
  O  O309  1  0.61206544  0.37403838  0.87618493  1
  O  O310  1  0.62487534  0.86760895  0.36990843  1
  O  O311  1  0.62637648  0.86449085  0.87125129  1
  O  O312  1  0.37960157  0.13088573  0.13049379  1
  O  O313  1  0.37372361  0.13376371  0.63102666  1
  O  O314  1  0.37966362  0.63172754  0.13162686  1
  O  O315  1  0.38640629  0.62815694  0.62462697  1
  O  O316  1  0.87757915  0.13278831  0.12530119  1
  O  O317  1  0.87322442  0.12393695  0.63629918  1
  O  O318  1  0.87866981  0.62652775  0.13057286  1
  O  O319  1  0.87631005  0.63158577  0.63159670  1
  O  O320  1  0.25718549  0.25919275  0.12479168  1
  O  O321  1  0.25642219  0.25850606  0.61778813  1
  O  O322  1  0.25533199  0.75575633  0.12036715  1
  O  O323  1  0.25186255  0.75915460  0.61785604  1
  O  O324  1  0.75522588  0.25490220  0.11905686  1
  O  O325  1  0.75313678  0.25772837  0.61550250  1
  O  O326  1  0.75538953  0.75459366  0.12612717  1
  O  O327  1  0.75547713  0.75383333  0.62046748  1
  O  O328  1  0.24377086  0.25099164  0.38056644  1
  O  O329  1  0.24285425  0.24529568  0.87615164  1
  O  O330  1  0.24895253  0.74417241  0.38234917  1
  O  O331  1  0.24311435  0.74549221  0.88202175  1
  O  O332  1  0.74476767  0.24423299  0.37689760  1
  O  O333  1  0.75119599  0.23952662  0.88051662  1
  O  O334  1  0.74547173  0.74268912  0.38156817  1
  O  O335  1  0.73737861  0.74116091  0.87830599  1
  O  O336  1  0.01398158  0.12503569  -0.00011658  1
  O  O337  1  0.00917659  0.11986333  0.49674965  1
  O  O338  1  0.00462059  0.61917973  0.00628325  1
  O  O339  1  0.00918183  0.61919216  0.49845115  1
  O  O340  1  0.50149008  0.12312474  0.00788330  1
  O  O341  1  0.50615882  0.11991232  0.50624674  1
  O  O342  1  0.50404744  0.61988326  0.00773250  1
  O  O343  1  0.50516580  0.62046183  0.50698717  1
  O  O344  1  0.49462818  0.38052522  0.49294413  1
  O  O345  1  0.49436636  0.38051999  0.99403761  1
  O  O346  1  0.48829810  0.87832408  0.49975624  1
  O  O347  1  0.48985622  0.87797561  0.99740357  1
  O  O348  1  0.99589079  0.37933746  0.49199301  1
  O  O349  1  0.99458724  0.38083043  0.99333740  1
  O  O350  1  0.99521990  0.88088382  0.49502269  1
  O  O351  1  0.98712750  0.87253262  1.00215091  1
  O  O352  1  0.49459978  0.49513005  0.37919855  1
  O  O353  1  0.49781868  0.49241315  0.88282738  1
  O  O354  1  0.48799972  0.99767311  0.37559046  1
  O  O355  1  0.49058897  0.99929665  0.87604405  1
  O  O356  1  0.99452036  0.49337905  0.37871239  1
  O  O357  1  0.99447041  0.49503419  0.88106753  1
  O  O358  1  0.99380638  0.99444867  0.37998213  1
  O  O359  1  0.99472470  0.99291771  0.88339913  1
  O  O360  1  0.00979419  0.00279216  0.12169145  1
  O  O361  1  0.00304073  0.00427899  0.61477193  1
  O  O362  1  0.00513218  0.50391242  0.11900664  1
  O  O363  1  0.00231274  0.50246465  0.61488432  1
  O  O364  1  0.50597004  0.00661873  0.12509143  1
  O  O365  1  0.51425946  0.00044516  0.62652004  1
  O  O366  1  0.50513658  0.50572193  0.12181550  1
  O  O367  1  0.50003643  0.50840622  0.61741198  1
  O  O368  1  0.24544179  0.38258067  0.24476775  1
  O  O369  1  0.24483070  0.38471816  0.74571072  1
  O  O370  1  0.24582156  0.88151367  0.24455642  1
  O  O371  1  0.24419403  0.88177375  0.74488526  1
  O  O372  1  0.74411518  0.37916429  0.24347572  1
  O  O373  1  0.75408691  0.37393520  0.73582899  1
  O  O374  1  0.74394218  0.87887995  0.24655617  1
  O  O375  1  0.74497812  0.87782889  0.74575962  1
  O  O376  1  0.25760900  0.11924744  0.25119203  1
  O  O377  1  0.25487376  0.12130696  0.75415821  1
  O  O378  1  0.25552697  0.62095442  0.25526397  1
  O  O379  1  0.24688505  0.61783932  0.75538933  1
  O  O380  1  0.75219193  0.11652844  0.25566930  1
  O  O381  1  0.75824526  0.11876844  0.75807693  1
  O  O382  1  0.75444989  0.61699574  0.25632175  1
  O  O383  1  0.75745870  0.62299769  0.75734752  1
  O  O384  1  0.37513802  0.11731237  0.36901261  1
  O  O385  1  0.36829543  0.12224162  0.86891124  1
  O  O386  1  0.37061042  0.62070316  0.37083819  1
  O  O387  1  0.36535208  0.62302084  0.87468437  1
  O  O388  1  0.86823938  0.11657271  0.37129294  1
  O  O389  1  0.86569288  0.12194003  0.86771247  1
  O  O390  1  0.86932041  0.61805134  0.37057188  1
  O  O391  1  0.86925520  0.61977234  0.87124801  1
  O  O392  1  0.13020785  0.38154198  0.12951036  1
  O  O393  1  0.13237156  0.37697321  0.63064513  1
  O  O394  1  0.13131272  0.88082914  0.13014705  1
  O  O395  1  0.13148514  0.87755021  0.63228512  1
  O  O396  1  0.62930227  0.37966323  0.12949648  1
  O  O397  1  0.63846773  0.37610039  0.62131187  1
  O  O398  1  0.62953429  0.87810762  0.13182321  1
  O  O399  1  0.63187412  0.88003586  0.63149446  1
  O  O400  1  0.12145975  0.25714633  0.25361662  1
  O  O401  1  0.12466110  0.25763442  0.75581816  1
  O  O402  1  0.12321019  0.75921391  0.25289789  1
  O  O403  1  0.11988517  0.75592569  0.75591301  1
  O  O404  1  0.61947836  0.25535752  0.25353823  1
  O  O405  1  0.62213610  0.25606625  0.75384642  1
  O  O406  1  0.61996703  0.75352065  0.25675935  1
  O  O407  1  0.62422464  0.75433466  0.76045635  1
  O  O408  1  0.38104586  0.24599987  0.24500973  1
  O  O409  1  0.37399735  0.24561769  0.74158428  1
  O  O410  1  0.37934274  0.74604263  0.24583187  1
  O  O411  1  0.37799823  0.74765366  0.74679204  1
  O  O412  1  0.88227439  0.24984193  0.24149531  1
  O  O413  1  0.87732856  0.23529972  0.74829863  1
  O  O414  1  0.87536448  0.74049317  0.24530449  1
  O  O415  1  0.87955100  0.74463964  0.74622499  1
  O  O416  1  0.37998221  0.49489176  0.49363829  1
  O  O417  1  0.38154907  0.49446777  1.00144757  1
  O  O418  1  0.37318358  0.99333440  0.49244644  1
  O  O419  1  0.37317409  0.99480671  0.99270620  1
  O  O420  1  0.88097490  0.49368775  0.49166738  1
  O  O421  1  0.88036261  0.49365106  0.99449118  1
  O  O422  1  0.87934176  0.99343994  0.49398886  1
  O  O423  1  0.87508917  0.98534997  1.00285575  1
  O  O424  1  0.12745936  0.01002087  0.00582091  1
  O  O425  1  0.12040052  0.01095306  0.49833211  1
  O  O426  1  0.11912768  0.50622317  0.00559030  1
  O  O427  1  0.12020171  0.50964923  0.49907209  1
  O  O428  1  0.62338109  0.00120015  0.00921186  1
  O  O429  1  0.62622999  -0.00201112  0.51234650  1
  O  O430  1  0.61831033  0.50495151  0.00728300  1
  O  O431  1  0.61773906  0.50681488  0.49955305  1
  O  O432  1  0.37041839  0.37101717  0.12110823  1
  O  O433  1  0.36906517  0.37161111  0.61811461  1
  O  O434  1  0.36878802  0.87041358  0.12077443  1
  O  O435  1  0.36881475  0.87850649  0.61556646  1
  O  O436  1  0.86841380  0.36993367  0.11745745  1
  O  O437  1  0.86690225  0.37291574  0.61520802  1
  O  O438  1  0.86908633  0.86746037  0.12102952  1
  O  O439  1  0.86971925  0.86890024  0.62010277  1
  O  O440  1  0.12738782  0.13227668  0.38365486  1
  O  O441  1  0.12975508  0.13031699  0.88143190  1
  O  O442  1  0.13183313  0.62596305  0.38463459  1
  O  O443  1  0.12940063  0.63176490  0.88268717  1
  O  O444  1  0.63181845  0.13053516  0.37365149  1
  O  O445  1  0.63888918  0.12391424  0.87398329  1
  O  O446  1  0.63122879  0.62985284  0.38070608  1
  O  O447  1  0.62827059  0.63005010  0.88065922  1
