# generated using pymatgen
data_V3Zn3O8
_symmetry_space_group_name_H-M   'P 1'
_cell_length_a   17.08718635
_cell_length_b   17.08751872
_cell_length_c   17.08671641
_cell_angle_alpha   90.00125291
_cell_angle_beta   90.01155689
_cell_angle_gamma   89.98440589
_symmetry_Int_Tables_number   1
_chemical_formula_structural   V3Zn3O8
_chemical_formula_sum   'V96 Zn96 O256'
_cell_volume   4988.93844862
_cell_formula_units_Z   32
loop_
 _symmetry_equiv_pos_site_id
 _symmetry_equiv_pos_as_xyz
  1  'x, y, z'
loop_
 _atom_site_type_symbol
 _atom_site_label
 _atom_site_symmetry_multiplicity
 _atom_site_fract_x
 _atom_site_fract_y
 _atom_site_fract_z
 _atom_site_occupancy
  V  V0  1  0.37292121  0.75040792  0.62588750  1
  V  V1  1  0.87641146  0.87473632  0.49874411  1
  V  V2  1  0.50001494  0.50081040  0.00051865  1
  V  V3  1  -0.00094098  0.37360237  0.87421170  1
  V  V4  1  0.12614979  0.24932144  0.37499053  1
  V  V5  1  0.12472173  0.49932530  0.62464196  1
  V  V6  1  0.75073926  -0.00024457  0.75164305  1
  V  V7  1  0.74986197  0.37516512  0.12518236  1
  V  V8  1  0.74919370  0.87486289  0.12620519  1
  V  V9  1  -0.00005386  -0.00037490  -0.00003779  1
  V  V10  1  0.24977499  0.12495387  0.87567552  1
  V  V11  1  0.37538935  0.37446686  0.50013222  1
  V  V12  1  0.24908712  -0.00051308  0.75035499  1
  V  V13  1  0.00098457  0.75141662  0.24951200  1
  V  V14  1  0.87485274  0.37543035  0.49999322  1
  V  V15  1  0.37508796  0.75038227  0.12607321  1
  V  V16  1  0.62493236  0.37672544  0.25049742  1
  V  V17  1  0.62547273  0.12577607  0.50033205  1
  V  V18  1  0.37560487  0.12490116  0.25044402  1
  V  V19  1  0.49921006  0.62386478  0.62571295  1
  V  V20  1  0.00022429  -0.00112710  0.49890453  1
  V  V21  1  0.74939311  0.75038998  0.00140726  1
  V  V22  1  0.87449657  0.62488533  0.24941543  1
  V  V23  1  0.12535794  0.00090361  0.12468466  1
  V  V24  1  0.24882315  0.62636024  0.37513269  1
  V  V25  1  0.50029754  0.50052894  0.50099788  1
  V  V26  1  -0.00082387  0.74910241  0.74898410  1
  V  V27  1  0.12553118  -0.00051963  0.62490507  1
  V  V28  1  -0.00002938  0.62437247  0.12357431  1
  V  V29  1  0.37439326  0.50054636  0.37569725  1
  V  V30  1  0.62399127  0.62499326  0.00038239  1
  V  V31  1  0.62607066  0.37463925  0.74939255  1
  V  V32  1  -0.00024461  0.37475872  0.37379347  1
  V  V33  1  0.00073360  0.24953481  0.24886659  1
  V  V34  1  0.24993192  0.24975039  0.49933851  1
  V  V35  1  0.87361119  0.75070179  0.12487715  1
  V  V36  1  0.50018701  0.00047536  0.00026667  1
  V  V37  1  0.37522379  0.37551225  -0.00086455  1
  V  V38  1  0.87578042  0.12404432  0.75029349  1
  V  V39  1  0.75067257  0.74992758  0.50119545  1
  V  V40  1  0.37448486  0.87524908  -0.00000013  1
  V  V41  1  0.12441005  0.62616123  0.49988141  1
  V  V42  1  0.24942935  0.87498871  0.62631290  1
  V  V43  1  0.87637521  0.25010801  0.62409727  1
  V  V44  1  0.24939871  0.37531635  0.62480287  1
  V  V45  1  0.37608949  0.12612575  0.74861229  1
  V  V46  1  0.24933744  0.74914895  0.00023120  1
  V  V47  1  0.87534707  0.12460027  0.25053488  1
  V  V48  1  0.50093267  0.37614576  0.37472733  1
  V  V49  1  0.87384777  0.62392645  0.75075858  1
  V  V50  1  0.37601981  0.25117579  0.12456268  1
  V  V51  1  0.12438615  0.74844993  0.87625676  1
  V  V52  1  0.00081055  0.12434343  0.12427666  1
  V  V53  1  0.87476920  0.50033184  0.37347234  1
  V  V54  1  0.75001689  -0.00001649  0.24954609  1
  V  V55  1  0.50041970  0.37419135  0.87399666  1
  V  V56  1  0.62591466  -0.00008733  0.12552572  1
  V  V57  1  0.12564632  0.37478443  0.24874894  1
  V  V58  1  0.00007969  0.50035187  0.49951649  1
  V  V59  1  0.12525919  0.24959395  0.87442392  1
  V  V60  1  0.12569136  0.12526052  0.49943088  1
  V  V61  1  0.62413914  0.74967170  0.87541121  1
  V  V62  1  0.25005865  0.37602246  0.12493435  1
  V  V63  1  0.49943480  0.75101197  0.25147643  1
  V  V64  1  0.24911050  0.62480833  0.87599545  1
  V  V65  1  0.87491423  0.25013734  0.12404302  1
  V  V66  1  0.62519196  0.87534580  0.74997231  1
  V  V67  1  0.49944214  0.74920265  0.75086885  1
  V  V68  1  0.74963014  0.24990679  0.00083513  1
  V  V69  1  0.62570415  0.24977507  0.87541958  1
  V  V70  1  0.24847763  0.49905144  0.74981823  1
  V  V71  1  0.25025435  0.87535177  0.12512717  1
  V  V72  1  -0.00065447  0.49972268  -0.00033874  1
  V  V73  1  0.24961301  0.49948922  0.24980105  1
  V  V74  1  0.62360770  0.00049019  0.62440502  1
  V  V75  1  0.37560640  0.24890847  0.62517123  1
  V  V76  1  0.12521977  0.87484119  0.25038501  1
  V  V77  1  0.37588822  0.87761801  0.49982787  1
  V  V78  1  0.75034954  0.37613377  0.62507035  1
  V  V79  1  0.50109984  0.25200388  0.25021206  1
  V  V80  1  0.75005721  0.50060538  0.24926833  1
  V  V81  1  0.50080276  0.12600206  0.12527416  1
  V  V82  1  0.62551479  0.12574690  -0.00071251  1
  V  V83  1  0.75098015  0.12521435  0.37569176  1
  V  V84  1  0.25061554  0.24991208  -0.00080129  1
  V  V85  1  0.49924012  0.87483982  0.87526585  1
  V  V86  1  0.49955304  0.62567596  0.12496074  1
  V  V87  1  -0.00210396  0.87543603  0.87624321  1
  V  V88  1  0.62326863  0.75193151  0.37622303  1
  V  V89  1  0.37400847  0.49913225  0.87469402  1
  V  V90  1  0.74966243  0.62442874  0.87497783  1
  V  V91  1  0.37421277  0.00037714  0.87468798  1
  V  V92  1  0.37425118  0.62433466  0.75013962  1
  V  V93  1  0.62394494  0.62557848  0.50202244  1
  V  V94  1  0.25262064  0.00150305  0.25018580  1
  V  V95  1  -0.00009336  0.12474005  0.62433249  1
  Zn  Zn96  1  0.62547273  0.50006804  0.62573837  1
  Zn  Zn97  1  0.12408690  0.87467369  0.74917351  1
  Zn  Zn98  1  0.87475173  0.00027375  0.87702241  1
  Zn  Zn99  1  0.25321006  0.12463702  0.37488107  1
  Zn  Zn100  1  0.37776414  0.00207310  0.37542048  1
  Zn  Zn101  1  0.75030918  0.62466170  0.37510037  1
  Zn  Zn102  1  0.87267474  0.87667025  0.00046154  1
  Zn  Zn103  1  0.75059929  0.50050611  0.75172794  1
  Zn  Zn104  1  0.37376791  0.62564076  0.25087336  1
  Zn  Zn105  1  0.12439975  0.75297978  0.37528213  1
  Zn  Zn106  1  0.75131161  0.87375322  0.62584541  1
  Zn  Zn107  1  0.87813799  -0.00072804  0.37373750  1
  Zn  Zn108  1  0.12537099  0.12451750  -0.00032663  1
  Zn  Zn109  1  0.49970772  0.12663884  0.62414266  1
  Zn  Zn110  1  0.87322142  0.37417252  -0.00119538  1
  Zn  Zn111  1  0.00148979  0.25018198  0.74984035  1
  Zn  Zn112  1  0.50091689  0.24811141  0.74785539  1
  Zn  Zn113  1  0.87557190  0.74845081  0.62308814  1
  Zn  Zn114  1  0.62551597  0.25125377  0.37597556  1
  Zn  Zn115  1  0.00302052  0.87551424  0.37397230  1
  Zn  Zn116  1  0.49755139  0.87689124  0.37602460  1
  Zn  Zn117  1  0.62517172  0.50127813  0.12552534  1
  Zn  Zn118  1  0.12339552  0.37361181  0.74820351  1
  Zn  Zn119  1  0.12522173  0.62385194  0.00179494  1
  Zn  Zn120  1  -0.00172676  0.62420271  0.62475937  1
  Zn  Zn121  1  0.50081082  0.00031672  0.49594763  1
  Zn  Zn122  1  0.87262231  0.49683396  0.87492555  1
  Zn  Zn123  1  0.75041786  0.25131397  0.49822416  1
  Zn  Zn124  1  0.12519794  0.50058507  0.12448635  1
  Zn  Zn125  1  0.62447871  0.87721724  0.25249456  1
  Zn  Zn126  1  0.24849915  0.75222371  0.50018178  1
  Zn  Zn127  1  0.75121390  0.12516913  0.87658011  1
  Zn  Zn128  1  0.18845168  0.18716053  0.18679708  1
  Zn  Zn129  1  0.18763967  0.18775111  0.68834935  1
  Zn  Zn130  1  0.18503162  0.68676119  0.18686748  1
  Zn  Zn131  1  0.18622004  0.68724692  0.68787566  1
  Zn  Zn132  1  0.68706364  0.18861800  0.18824484  1
  Zn  Zn133  1  0.69026020  0.18875744  0.68682303  1
  Zn  Zn134  1  0.68628308  0.68700638  0.18828537  1
  Zn  Zn135  1  0.68724625  0.68764724  0.68684841  1
  Zn  Zn136  1  0.31338468  0.31217682  0.31266619  1
  Zn  Zn137  1  0.31160452  0.31192633  0.81067814  1
  Zn  Zn138  1  0.31115986  0.81316856  0.31384001  1
  Zn  Zn139  1  0.31121838  0.81248785  0.81248121  1
  Zn  Zn140  1  0.81207780  0.31188978  0.31125583  1
  Zn  Zn141  1  0.81286669  0.30993505  0.81274036  1
  Zn  Zn142  1  0.81280214  0.81256748  0.31323733  1
  Zn  Zn143  1  0.81251307  0.81123876  0.81358445  1
  Zn  Zn144  1  0.18697840  0.43770247  0.43683381  1
  Zn  Zn145  1  0.18455652  0.43668574  0.93748435  1
  Zn  Zn146  1  0.19058321  0.93943795  0.43551853  1
  Zn  Zn147  1  0.18474387  0.93627706  0.93739700  1
  Zn  Zn148  1  0.68745140  0.43951367  0.43703994  1
  Zn  Zn149  1  0.68765433  0.43817253  0.93765261  1
  Zn  Zn150  1  0.68978358  0.93748910  0.43713990  1
  Zn  Zn151  1  0.68717054  0.93706369  0.93810345  1
  Zn  Zn152  1  0.31285917  0.06367582  0.06305191  1
  Zn  Zn153  1  0.31154550  0.06256808  0.56309158  1
  Zn  Zn154  1  0.31367022  0.56336402  0.06330706  1
  Zn  Zn155  1  0.31169607  0.56200368  0.56239129  1
  Zn  Zn156  1  0.81380709  0.06222630  0.06218190  1
  Zn  Zn157  1  0.81225010  0.06031022  0.56302458  1
  Zn  Zn158  1  0.81342118  0.56173544  0.06213390  1
  Zn  Zn159  1  0.81267853  0.56274277  0.56368625  1
  Zn  Zn160  1  0.43678909  0.43976447  0.18816162  1
  Zn  Zn161  1  0.43767732  0.43617404  0.68733132  1
  Zn  Zn162  1  0.43811565  0.93750259  0.18789677  1
  Zn  Zn163  1  0.43766620  0.93861366  0.68668308  1
  Zn  Zn164  1  0.93673057  0.43703039  0.18570197  1
  Zn  Zn165  1  0.93852478  0.43907675  0.68818111  1
  Zn  Zn166  1  0.93694698  0.93704678  0.18700410  1
  Zn  Zn167  1  0.93726508  0.93572917  0.68457658  1
  Zn  Zn168  1  0.06429444  0.06124278  0.31330805  1
  Zn  Zn169  1  0.06328483  0.06211196  0.81231101  1
  Zn  Zn170  1  0.06229843  0.56234095  0.31054837  1
  Zn  Zn171  1  0.06280864  0.56154495  0.81405832  1
  Zn  Zn172  1  0.56157088  0.06158688  0.31384643  1
  Zn  Zn173  1  0.56149631  0.06444172  0.81230782  1
  Zn  Zn174  1  0.56338381  0.56434913  0.31370570  1
  Zn  Zn175  1  0.56286932  0.56051328  0.81289322  1
  Zn  Zn176  1  0.43946466  0.18769238  0.43638875  1
  Zn  Zn177  1  0.43834559  0.18814831  0.93586166  1
  Zn  Zn178  1  0.43537477  0.68901771  0.43990698  1
  Zn  Zn179  1  0.43587753  0.68704681  0.93808150  1
  Zn  Zn180  1  0.93774641  0.18804847  0.43796833  1
  Zn  Zn181  1  0.93758411  0.18681676  0.93810093  1
  Zn  Zn182  1  0.93885512  0.68832844  0.43297279  1
  Zn  Zn183  1  0.93540354  0.68694884  0.93794775  1
  Zn  Zn184  1  0.06363208  0.31254929  0.06081327  1
  Zn  Zn185  1  0.06213280  0.31202076  0.56201080  1
  Zn  Zn186  1  0.06252610  0.81247001  0.06277420  1
  Zn  Zn187  1  0.06248989  0.81248928  0.56308562  1
  Zn  Zn188  1  0.56397676  0.31446253  0.06310412  1
  Zn  Zn189  1  0.56235116  0.31041348  0.56232088  1
  Zn  Zn190  1  0.56326308  0.81341613  0.06390880  1
  Zn  Zn191  1  0.56072902  0.81327627  0.56461176  1
  O  O192  1  0.11851710  0.11890527  0.12371957  1
  O  O193  1  0.11981341  0.11982814  0.61915174  1
  O  O194  1  0.11619028  0.62125521  0.12200709  1
  O  O195  1  0.12504249  0.61868373  0.61444861  1
  O  O196  1  0.61960928  0.12013934  0.11927700  1
  O  O197  1  0.62814356  0.11767189  0.61700425  1
  O  O198  1  0.61739517  0.62482405  0.11782992  1
  O  O199  1  0.61709229  0.62338477  0.62050524  1
  O  O200  1  0.38061687  0.38079287  0.38098884  1
  O  O201  1  0.37978379  0.37986623  0.87963309  1
  O  O202  1  0.37373975  0.87495672  0.38858510  1
  O  O203  1  0.37993966  0.88041142  0.88022013  1
  O  O204  1  0.88045978  0.37976848  0.37934491  1
  O  O205  1  0.88574933  0.37439590  0.87666373  1
  O  O206  1  0.87652271  0.87684800  0.38738381  1
  O  O207  1  0.88685795  0.87588228  0.87645366  1
  O  O208  1  0.25506588  0.00426007  0.36505143  1
  O  O209  1  0.25510882  0.00416656  0.87104916  1
  O  O210  1  0.25467245  0.50698424  0.37037433  1
  O  O211  1  0.25495854  0.50422139  0.87058524  1
  O  O212  1  0.75168340  0.01054264  0.36927522  1
  O  O213  1  0.75081474  0.00111620  0.86275321  1
  O  O214  1  0.75732530  0.50197415  0.36806792  1
  O  O215  1  0.75242564  0.50837784  0.87295460  1
  O  O216  1  0.25016144  0.49350096  0.13081278  1
  O  O217  1  0.24520781  0.49464995  0.63010921  1
  O  O218  1  0.24582988  0.99431108  0.12894499  1
  O  O219  1  0.24442006  0.99489087  0.63160732  1
  O  O220  1  0.74920781  0.49351804  0.13127455  1
  O  O221  1  0.74864703  0.48724730  0.62770744  1
  O  O222  1  0.74473827  0.99534171  0.12989621  1
  O  O223  1  0.74048150  0.99827464  0.63526736  1
  O  O224  1  0.00493491  0.36895540  0.25438111  1
  O  O225  1  0.00096315  0.37357245  0.76112115  1
  O  O226  1  0.00702313  0.86953834  0.24910554  1
  O  O227  1  -0.00111529  0.86560833  0.75765642  1
  O  O228  1  0.50453829  0.37205839  0.25514329  1
  O  O229  1  0.50941067  0.37347331  0.75512659  1
  O  O230  1  0.50208786  0.86176719  0.25051445  1
  O  O231  1  0.50445869  0.86942825  0.75596749  1
  O  O232  1  0.49647995  0.13185594  0.24333890  1
  O  O233  1  0.49191239  0.12749123  0.74720953  1
  O  O234  1  0.49855021  0.63608117  0.24573894  1
  O  O235  1  0.49395037  0.62945564  0.74649568  1
  O  O236  1  0.99545969  0.13027541  0.24468136  1
  O  O237  1  0.99001193  0.12296478  0.74315859  1
  O  O238  1  0.99423641  0.62975747  0.24359562  1
  O  O239  1  0.99156415  0.63385578  0.75271955  1
  O  O240  1  0.37079567  0.25620778  0.00471522  1
  O  O241  1  0.36990497  0.25556132  0.50449949  1
  O  O242  1  0.36967149  0.75636349  0.00512880  1
  O  O243  1  0.37192731  0.75862335  0.50846862  1
  O  O244  1  0.86772340  0.24932130  0.00710194  1
  O  O245  1  0.87392472  0.25777048  0.50596842  1
  O  O246  1  0.86672386  0.75082458  0.00709309  1
  O  O247  1  0.86717635  0.75539290  0.49866956  1
  O  O248  1  0.12999806  0.24515952  0.49456195  1
  O  O249  1  0.13325121  0.24814545  0.99275203  1
  O  O250  1  0.12630764  0.73808320  0.49883592  1
  O  O251  1  0.13212328  0.74868138  0.99413875  1
  O  O252  1  0.62935999  0.23854942  0.49854978  1
  O  O253  1  0.62981408  0.24489154  0.99568344  1
  O  O254  1  0.63055229  0.74655544  0.49493079  1
  O  O255  1  0.62882647  0.74480027  0.99438566  1
  O  O256  1  0.49490431  0.24603427  0.12943235  1
  O  O257  1  0.49121500  0.24790683  0.62683498  1
  O  O258  1  0.49539877  0.74595300  0.13234680  1
  O  O259  1  0.49372830  0.74371379  0.63256350  1
  O  O260  1  0.99570167  0.24474895  0.12974641  1
  O  O261  1  0.99425178  0.24310856  0.62632275  1
  O  O262  1  0.99354795  0.74478378  0.12913995  1
  O  O263  1  0.99952748  0.74745566  0.63815269  1
  O  O264  1  0.00554503  0.25540103  0.36881306  1
  O  O265  1  0.00614116  0.25803409  0.87563402  1
  O  O266  1  0.00399023  0.75303222  0.36452627  1
  O  O267  1  0.00335680  0.75648310  0.86861040  1
  O  O268  1  0.50188835  0.25872027  0.36793254  1
  O  O269  1  0.50717100  0.25757636  0.87336556  1
  O  O270  1  0.50640317  0.75031671  0.36845418  1
  O  O271  1  0.50407511  0.75517161  0.87045400  1
  O  O272  1  0.24318227  0.13211249  0.49923527  1
  O  O273  1  0.25079697  0.13196079  0.99335917  1
  O  O274  1  0.24070167  0.62317326  0.49176076  1
  O  O275  1  0.25029560  0.63136361  0.99361430  1
  O  O276  1  0.74373396  0.12475653  0.49224419  1
  O  O277  1  0.74287056  0.13077767  0.99964401  1
  O  O278  1  0.74447600  0.63411212  0.49916439  1
  O  O279  1  0.74379494  0.63080291  0.99561349  1
  O  O280  1  0.25619580  0.37036678  0.00428872  1
  O  O281  1  0.25575795  0.37044383  0.50484110  1
  O  O282  1  0.25551091  0.86955682  0.00499304  1
  O  O283  1  0.25818938  0.87454036  0.50795992  1
  O  O284  1  0.75018581  0.36826773  0.00664329  1
  O  O285  1  0.75580546  0.37509495  0.50828142  1
  O  O286  1  0.74957419  0.86804653  0.00655538  1
  O  O287  1  0.75806149  0.86624696  0.50054872  1
  O  O288  1  0.13141762  0.49174967  0.24879146  1
  O  O289  1  0.13111644  0.49961985  0.74288087  1
  O  O290  1  0.13168792  0.99537060  0.24305811  1
  O  O291  1  0.13141214  0.99876858  0.74285674  1
  O  O292  1  0.63129321  0.49530964  0.24939254  1
  O  O293  1  0.62706269  0.48679059  0.74851939  1
  O  O294  1  0.63161052  0.99964766  0.24297548  1
  O  O295  1  0.63234593  0.99667152  0.74424454  1
  O  O296  1  0.36978580  0.00720923  0.24764929  1
  O  O297  1  0.36942174  0.00486091  0.75578138  1
  O  O298  1  0.36820377  0.50269551  0.25809569  1
  O  O299  1  0.36917578  0.50500312  0.75531573  1
  O  O300  1  0.86847563  0.00744997  0.25088567  1
  O  O301  1  0.86638728  0.00698809  0.74720108  1
  O  O302  1  0.87043701  0.50484119  0.25442162  1
  O  O303  1  0.87487314  0.51271503  0.75276932  1
  O  O304  1  0.11911368  0.36929608  0.36950549  1
  O  O305  1  0.11563978  0.36815455  0.87322720  1
  O  O306  1  0.12565760  0.87327740  0.36628981  1
  O  O307  1  0.11362663  0.86812599  0.87254668  1
  O  O308  1  0.61873073  0.37432680  0.36929967  1
  O  O309  1  0.62086796  0.36995208  0.86749098  1
  O  O310  1  0.62287149  0.86215553  0.37628164  1
  O  O311  1  0.61830997  0.86964841  0.86997262  1
  O  O312  1  0.38210643  0.13193855  0.12910677  1
  O  O313  1  0.37522487  0.13099667  0.63084479  1
  O  O314  1  0.38129794  0.63314195  0.12721042  1
  O  O315  1  0.37898066  0.62972922  0.63088694  1
  O  O316  1  0.88076481  0.13058356  0.13159037  1
  O  O317  1  0.87934669  0.12899356  0.63130590  1
  O  O318  1  0.88002173  0.63136387  0.13048214  1
  O  O319  1  0.87718869  0.62759120  0.63614955  1
  O  O320  1  0.25674947  0.25603122  0.11936484  1
  O  O321  1  0.25479949  0.25591895  0.61850474  1
  O  O322  1  0.25555780  0.75544636  0.12061833  1
  O  O323  1  0.25580020  0.75618756  0.62583024  1
  O  O324  1  0.75505831  0.25501834  0.12073569  1
  O  O325  1  0.75716084  0.26137664  0.62333207  1
  O  O326  1  0.75343555  0.75485529  0.12076748  1
  O  O327  1  0.74979939  0.75223128  0.61206504  1
  O  O328  1  0.24354435  0.25011614  0.38159243  1
  O  O329  1  0.24577180  0.24506676  0.88014401  1
  O  O330  1  0.24750788  0.73729774  0.37689057  1
  O  O331  1  0.24528100  0.74484916  0.88017247  1
  O  O332  1  0.74843492  0.23752428  0.37543435  1
  O  O333  1  0.74322137  0.24811753  0.88227029  1
  O  O334  1  0.74102461  0.74861012  0.38469963  1
  O  O335  1  0.74272271  0.74531110  0.88084367  1
  O  O336  1  0.00187236  0.11808149  0.00670910  1
  O  O337  1  0.00528997  0.11969325  0.50544037  1
  O  O338  1  -0.00019949  0.61609421  0.00401579  1
  O  O339  1  0.00933840  0.61951445  0.49896002  1
  O  O340  1  0.50466475  0.11981751  0.00551975  1
  O  O341  1  0.51380038  0.12270621  0.50085285  1
  O  O342  1  0.50408520  0.62089884  0.00449287  1
  O  O343  1  0.50358602  0.62078279  0.50646136  1
  O  O344  1  0.49519000  0.38039994  0.49483884  1
  O  O345  1  0.49476824  0.38069413  0.99431256  1
  O  O346  1  0.48775677  0.87565590  0.50155370  1
  O  O347  1  0.49453681  0.88035291  0.99506980  1
  O  O348  1  0.99480515  0.38046653  0.49333738  1
  O  O349  1  0.99864981  0.38187503  0.99160887  1
  O  O350  1  0.99206032  0.87910221  0.49926429  1
  O  O351  1  0.99860830  0.87963827  0.99107361  1
  O  O352  1  0.49408920  0.49635997  0.38105267  1
  O  O353  1  0.49330010  0.49434863  0.88026302  1
  O  O354  1  0.49667873  0.99381370  0.37756421  1
  O  O355  1  0.49443423  0.99423463  0.88043705  1
  O  O356  1  0.99457697  0.49345886  0.37892575  1
  O  O357  1  0.99967033  0.49071445  0.88270445  1
  O  O358  1  0.99810993  0.99759285  0.38340124  1
  O  O359  1  1.00057474  0.98993641  0.87953184  1
  O  O360  1  0.00568939  0.00481539  0.12001415  1
  O  O361  1  0.00597434  0.00490903  0.61890852  1
  O  O362  1  -0.00027653  0.50459996  0.11581926  1
  O  O363  1  0.00621718  0.50171807  0.61734405  1
  O  O364  1  0.50544272  0.00571609  0.11922795  1
  O  O365  1  0.51453708  0.00281564  0.62515186  1
  O  O366  1  0.49972895  0.50751048  0.11820787  1
  O  O367  1  0.50018894  0.50613621  0.61862754  1
  O  O368  1  0.24565235  0.37949484  0.24468834  1
  O  O369  1  0.24865771  0.38215903  0.74286531  1
  O  O370  1  0.24639958  0.88034502  0.24291091  1
  O  O371  1  0.24831229  0.88174421  0.74492043  1
  O  O372  1  0.74504025  0.38051253  0.24518210  1
  O  O373  1  0.74367727  0.37521049  0.74232249  1
  O  O374  1  0.74785744  0.88144077  0.24492495  1
  O  O375  1  0.74476243  0.88264467  0.74931631  1
  O  O376  1  0.25821116  0.11984765  0.24858913  1
  O  O377  1  0.25599308  0.11873335  0.75605462  1
  O  O378  1  0.24917614  0.61933642  0.26000995  1
  O  O379  1  0.25535619  0.61915458  0.75578539  1
  O  O380  1  0.75470708  0.12060615  0.25711706  1
  O  O381  1  0.75882556  0.11643828  0.74967982  1
  O  O382  1  0.75671322  0.61931168  0.25099078  1
  O  O383  1  0.75776739  0.62624145  0.75539414  1
  O  O384  1  0.37418715  0.12473708  0.36573226  1
  O  O385  1  0.36973954  0.11923693  0.87012315  1
  O  O386  1  0.36410749  0.61958482  0.37721914  1
  O  O387  1  0.36947242  0.61923901  0.86942324  1
  O  O388  1  0.86638435  0.12458925  0.36996371  1
  O  O389  1  0.87412533  0.12233381  0.86237196  1
  O  O390  1  0.87418104  0.61769558  0.36721690  1
  O  O391  1  0.86789402  0.62589686  0.86551742  1
  O  O392  1  0.13255993  0.37503204  0.13135616  1
  O  O393  1  0.13136587  0.38132900  0.62437505  1
  O  O394  1  0.13150268  0.88082898  0.12997271  1
  O  O395  1  0.13102030  0.88148317  0.62650445  1
  O  O396  1  0.63143929  0.37814910  0.13236707  1
  O  O397  1  0.63343115  0.37391578  0.63214686  1
  O  O398  1  0.63112781  0.88226046  0.12691921  1
  O  O399  1  0.62657544  0.88396240  0.63156736  1
  O  O400  1  0.12007226  0.25518034  0.25473344  1
  O  O401  1  0.12247866  0.25185274  0.75853288  1
  O  O402  1  0.11882145  0.75746352  0.24915166  1
  O  O403  1  0.11425821  0.74963643  0.75670845  1
  O  O404  1  0.61800826  0.25769460  0.25121065  1
  O  O405  1  0.62608216  0.25988870  0.75495778  1
  O  O406  1  0.61719271  0.75008752  0.25997357  1
  O  O407  1  0.61895643  0.75524610  0.75558490  1
  O  O408  1  0.38141116  0.24668213  0.24310058  1
  O  O409  1  0.37482293  0.24363519  0.74308410  1
  O  O410  1  0.38345066  0.74921491  0.24533739  1
  O  O411  1  0.38023007  0.74402109  0.74650304  1
  O  O412  1  0.88161654  0.24429542  0.24431126  1
  O  O413  1  0.87591058  0.23823429  0.74339219  1
  O  O414  1  0.87976310  0.74473457  0.24446471  1
  O  O415  1  0.88267157  0.74192104  0.74950834  1
  O  O416  1  0.38015651  0.49405827  0.49527379  1
  O  O417  1  0.38003291  0.49460095  0.99367820  1
  O  O418  1  0.37710126  0.98954911  0.50230421  1
  O  O419  1  0.38059433  0.99476707  0.99475274  1
  O  O420  1  0.88041721  0.49531596  0.49414131  1
  O  O421  1  0.88685764  0.49728466  0.99708966  1
  O  O422  1  0.88039589  0.99055178  0.50013882  1
  O  O423  1  0.88286802  0.99712356  0.99690302  1
  O  O424  1  0.11874271  0.00114546  0.00708896  1
  O  O425  1  0.12090672  0.00563812  0.50575834  1
  O  O426  1  0.11228779  0.50090839  0.00191862  1
  O  O427  1  0.11978590  0.50736234  0.50386255  1
  O  O428  1  0.61907452  0.00545987  0.00485184  1
  O  O429  1  0.62825814  0.00713806  0.50949099  1
  O  O430  1  0.61718876  0.50732840  0.00078925  1
  O  O431  1  0.61799090  0.50752413  0.50121927  1
  O  O432  1  0.37038758  0.37029020  0.11886203  1
  O  O433  1  0.36909568  0.37010486  0.61896097  1
  O  O434  1  0.37003225  0.87001455  0.11863878  1
  O  O435  1  0.36975587  0.87028852  0.61992603  1
  O  O436  1  0.86818516  0.36669434  0.12403409  1
  O  O437  1  0.86892235  0.37115042  0.62081644  1
  O  O438  1  0.86692476  0.86797540  0.12401554  1
  O  O439  1  0.87277723  0.87084699  0.61208467  1
  O  O440  1  0.12682009  0.13251750  0.38153343  1
  O  O441  1  0.13186200  0.13096870  0.87670938  1
  O  O442  1  0.13325624  0.62250543  0.38384205  1
  O  O443  1  0.13211647  0.63071608  0.87750986  1
  O  O444  1  0.63461367  0.12482516  0.38359544  1
  O  O445  1  0.62601752  0.13132099  0.88166094  1
  O  O446  1  0.62558100  0.63706389  0.38291324  1
  O  O447  1  0.62856940  0.63120463  0.87978659  1
