# generated using pymatgen
data_V3Zn3O8
_symmetry_space_group_name_H-M   'P 1'
_cell_length_a   17.08984132
_cell_length_b   17.08869070
_cell_length_c   17.08901517
_cell_angle_alpha   90.01325805
_cell_angle_beta   89.99193656
_cell_angle_gamma   90.00210577
_symmetry_Int_Tables_number   1
_chemical_formula_structural   V3Zn3O8
_chemical_formula_sum   'V96 Zn96 O256'
_cell_volume   4990.72728310
_cell_formula_units_Z   32
loop_
 _symmetry_equiv_pos_site_id
 _symmetry_equiv_pos_as_xyz
  1  'x, y, z'
loop_
 _atom_site_type_symbol
 _atom_site_label
 _atom_site_symmetry_multiplicity
 _atom_site_fract_x
 _atom_site_fract_y
 _atom_site_fract_z
 _atom_site_occupancy
  V  V0  1  0.49970850  0.75082050  0.25094227  1
  V  V1  1  0.75062452  0.75073031  0.00028541  1
  V  V2  1  0.24924120  0.75067962  0.50166323  1
  V  V3  1  -0.00008433  0.24933092  0.24880208  1
  V  V4  1  -0.00019215  0.24965491  0.74897504  1
  V  V5  1  0.24768386  0.74712449  -0.00051913  1
  V  V6  1  0.37456910  0.25075928  0.62501806  1
  V  V7  1  0.37521537  0.37375132  0.50065597  1
  V  V8  1  0.62433742  0.37347853  0.75060801  1
  V  V9  1  0.87575222  0.25005125  0.12488450  1
  V  V10  1  0.12497453  0.50148887  0.12381631  1
  V  V11  1  0.37470901  0.12392251  0.75106175  1
  V  V12  1  0.62552805  0.74964265  0.87612786  1
  V  V13  1  0.37492510  0.25049611  0.12357586  1
  V  V14  1  0.37464657  0.62488957  0.25197183  1
  V  V15  1  0.49973223  0.74907161  0.75049512  1
  V  V16  1  0.87309676  0.00170099  0.37302702  1
  V  V17  1  0.74900076  0.62561553  0.87521352  1
  V  V18  1  0.12521921  0.37421934  0.24941148  1
  V  V19  1  0.12515147  0.37554066  0.74831663  1
  V  V20  1  0.74924102  0.50033130  0.74887381  1
  V  V21  1  0.12539382  0.12512120  -0.00081759  1
  V  V22  1  0.37520267  0.87462885  0.00078914  1
  V  V23  1  0.62542028  0.87557517  0.74953388  1
  V  V24  1  0.87546995  0.50005163  0.37418268  1
  V  V25  1  0.12495946  0.49891955  0.62449402  1
  V  V26  1  0.62559565  -0.00030281  0.12631900  1
  V  V27  1  0.00133203  -0.00058874  0.00010267  1
  V  V28  1  0.62501616  0.49934385  0.62515913  1
  V  V29  1  0.49908312  0.62456445  0.62554786  1
  V  V30  1  0.50084327  0.37442095  0.37414790  1
  V  V31  1  0.24977281  0.37531986  0.12523494  1
  V  V32  1  0.62447355  0.62497064  0.49919064  1
  V  V33  1  0.62575634  0.12569050  -0.00071806  1
  V  V34  1  0.87478436  0.49930105  0.87366179  1
  V  V35  1  -0.00083913  0.50018261  0.49793448  1
  V  V36  1  0.74993737  0.24956341  -0.00079911  1
  V  V37  1  0.62543540  0.87661460  0.24986392  1
  V  V38  1  0.49955572  0.00013942  0.50000286  1
  V  V39  1  -0.00021283  -0.00045405  0.50118282  1
  V  V40  1  0.00010875  0.12608525  0.12449823  1
  V  V41  1  0.49969217  0.50110057  0.00086122  1
  V  V42  1  0.50070269  -0.00025947  0.00002397  1
  V  V43  1  0.50038433  0.87412447  0.87471853  1
  V  V44  1  0.62488246  0.75011044  0.37553080  1
  V  V45  1  0.75058504  0.37550223  0.12392113  1
  V  V46  1  0.74985512  0.24930358  0.49779798  1
  V  V47  1  0.87504237  0.37514908  0.49840476  1
  V  V48  1  0.12529577  0.12580638  0.49998199  1
  V  V49  1  0.87494531  0.75019435  0.12477342  1
  V  V50  1  0.12552056  0.24987165  0.87410398  1
  V  V51  1  0.00089983  0.12508413  0.62552877  1
  V  V52  1  0.62492193  0.37488936  0.24946342  1
  V  V53  1  0.74975017  0.87464662  0.62610723  1
  V  V54  1  0.62519059  0.24969417  0.87490435  1
  V  V55  1  -0.00113430  0.37538979  0.87363885  1
  V  V56  1  0.50002521  0.49934234  0.49979784  1
  V  V57  1  0.62492076  0.50149766  0.12357205  1
  V  V58  1  0.00115917  0.62456040  0.12417467  1
  V  V59  1  0.50062148  0.25094237  0.24944430  1
  V  V60  1  0.37265981  0.62408475  0.75069509  1
  V  V61  1  0.37440207  0.87539992  0.50168930  1
  V  V62  1  0.74906490  0.62602926  0.37442116  1
  V  V63  1  0.24995008  0.24909629  -0.00158264  1
  V  V64  1  0.62528473  0.12484791  0.49846344  1
  V  V65  1  0.50036057  0.62547702  0.12546568  1
  V  V66  1  0.25038764  0.87569086  0.12732731  1
  V  V67  1  0.25040689  0.12491227  0.37438947  1
  V  V68  1  0.87426195  0.87433603  0.50165749  1
  V  V69  1  0.87564586  0.37555600  -0.00160387  1
  V  V70  1  0.37367314  0.49990583  0.87505627  1
  V  V71  1  0.87403122  0.62544527  0.74890302  1
  V  V72  1  0.00001321  0.74963786  0.75173544  1
  V  V73  1  0.37543182  0.75054334  0.12672919  1
  V  V74  1  0.87340236  0.75042315  0.62580192  1
  V  V75  1  0.25053076  0.62379216  0.37592649  1
  V  V76  1  0.75031734  0.50052735  0.24846289  1
  V  V77  1  -0.00007419  0.87441345  0.37589527  1
  V  V78  1  0.49952480  0.87564684  0.37634148  1
  V  V79  1  0.75089117  0.00036692  0.75061727  1
  V  V80  1  0.12610216  0.87653149  0.25109754  1
  V  V81  1  0.37420358  0.12482978  0.25002326  1
  V  V82  1  0.87601219  0.87577723  0.00019796  1
  V  V83  1  0.87535572  0.25023460  0.62352823  1
  V  V84  1  0.12552642  -0.00029480  0.62670716  1
  V  V85  1  0.37515630  0.49968029  0.37524426  1
  V  V86  1  0.12398786  0.25021043  0.37407479  1
  V  V87  1  0.37560867  0.37570273  -0.00014465  1
  V  V88  1  0.49974089  0.12482107  0.62412862  1
  V  V89  1  0.12410490  0.62447457  0.49929885  1
  V  V90  1  0.49987393  0.12576944  0.12472349  1
  V  V91  1  0.12593947  0.87402006  0.75091052  1
  V  V92  1  0.87411767  0.12416491  0.75091091  1
  V  V93  1  0.87512353  0.62547781  0.24932606  1
  V  V94  1  -0.00005758  0.75038581  0.25118174  1
  V  V95  1  0.37508906  -0.00044853  0.87403057  1
  Zn  Zn96  1  0.74993569  0.37571822  0.62307003  1
  Zn  Zn97  1  0.12534670  0.74655913  0.87517012  1
  Zn  Zn98  1  0.00218258  0.87420771  0.87735642  1
  Zn  Zn99  1  0.37439032  0.75003218  0.62686729  1
  Zn  Zn100  1  0.62483124  0.62631926  0.00046418  1
  Zn  Zn101  1  0.00054284  0.37484385  0.37317440  1
  Zn  Zn102  1  0.25032269  -0.00275617  0.75046624  1
  Zn  Zn103  1  0.25058927  0.49971995  0.25088757  1
  Zn  Zn104  1  0.74931140  0.75024717  0.50072463  1
  Zn  Zn105  1  0.87447747  0.00147501  0.87594159  1
  Zn  Zn106  1  0.74949246  0.12417460  0.37204483  1
  Zn  Zn107  1  -0.00206179  0.62497371  0.62342303  1
  Zn  Zn108  1  0.24832128  0.49935847  0.75026137  1
  Zn  Zn109  1  0.74983603  0.00167332  0.24894108  1
  Zn  Zn110  1  0.49955531  0.37387956  0.87586979  1
  Zn  Zn111  1  0.12281805  0.62489073  -0.00363898  1
  Zn  Zn112  1  0.24844325  0.25180828  0.50078944  1
  Zn  Zn113  1  0.74965491  0.87675607  0.12659362  1
  Zn  Zn114  1  0.87237519  0.12550840  0.24978039  1
  Zn  Zn115  1  0.24597745  0.62394425  0.87510147  1
  Zn  Zn116  1  0.25111769  0.37516534  0.62513370  1
  Zn  Zn117  1  0.37409443  0.00102564  0.37428497  1
  Zn  Zn118  1  0.12794976  0.00182506  0.12534805  1
  Zn  Zn119  1  0.62598371  0.24934625  0.37280586  1
  Zn  Zn120  1  0.12350229  0.74942741  0.37687879  1
  Zn  Zn121  1  0.00081036  0.50179321  -0.00251331  1
  Zn  Zn122  1  0.25070094  0.87639670  0.62593681  1
  Zn  Zn123  1  0.62541447  -0.00080724  0.62502096  1
  Zn  Zn124  1  0.24956809  0.12210175  0.87495635  1
  Zn  Zn125  1  0.75107928  0.12389103  0.87487087  1
  Zn  Zn126  1  0.50023994  0.24997002  0.75252996  1
  Zn  Zn127  1  0.25144578  0.00013236  0.24904409  1
  Zn  Zn128  1  0.18694276  0.18776319  0.18653283  1
  Zn  Zn129  1  0.19010436  0.18706159  0.68829926  1
  Zn  Zn130  1  0.18786879  0.68820429  0.18885717  1
  Zn  Zn131  1  0.18676375  0.68595702  0.68524788  1
  Zn  Zn132  1  0.68939811  0.18603468  0.18796831  1
  Zn  Zn133  1  0.68890770  0.18705588  0.68555466  1
  Zn  Zn134  1  0.68747480  0.68945211  0.18693470  1
  Zn  Zn135  1  0.68665817  0.68782836  0.68751424  1
  Zn  Zn136  1  0.31192564  0.31188730  0.31165245  1
  Zn  Zn137  1  0.30997662  0.31362277  0.81149396  1
  Zn  Zn138  1  0.31188402  0.81152822  0.31608594  1
  Zn  Zn139  1  0.31172371  0.81170723  0.81411624  1
  Zn  Zn140  1  0.81329611  0.31292629  0.31200630  1
  Zn  Zn141  1  0.81040291  0.31151359  0.81221216  1
  Zn  Zn142  1  0.81064963  0.81453468  0.31234415  1
  Zn  Zn143  1  0.81318200  0.81402889  0.81458118  1
  Zn  Zn144  1  0.18906665  0.43578144  0.43809891  1
  Zn  Zn145  1  0.18769285  0.43622909  0.93728065  1
  Zn  Zn146  1  0.18724661  0.93928127  0.43740586  1
  Zn  Zn147  1  0.18844020  0.93597249  0.93591050  1
  Zn  Zn148  1  0.68802133  0.43716989  0.43600648  1
  Zn  Zn149  1  0.68761970  0.43799786  0.93695408  1
  Zn  Zn150  1  0.68813899  0.93694239  0.43849531  1
  Zn  Zn151  1  0.68930135  0.93835167  0.93691819  1
  Zn  Zn152  1  0.31148383  0.06166799  0.06235048  1
  Zn  Zn153  1  0.31034490  0.06177377  0.56295509  1
  Zn  Zn154  1  0.31233076  0.56313626  0.06445106  1
  Zn  Zn155  1  0.31122692  0.56154030  0.56298031  1
  Zn  Zn156  1  0.81171702  0.06287062  0.06434862  1
  Zn  Zn157  1  0.81202479  0.06213571  0.56387814  1
  Zn  Zn158  1  0.81351158  0.56322200  0.06036291  1
  Zn  Zn159  1  0.81096326  0.56304056  0.56190870  1
  Zn  Zn160  1  0.43747483  0.43852475  0.18789371  1
  Zn  Zn161  1  0.43948426  0.43726978  0.68827729  1
  Zn  Zn162  1  0.43775289  0.93934151  0.18871788  1
  Zn  Zn163  1  0.43913924  0.93839953  0.68588718  1
  Zn  Zn164  1  0.93927996  0.43675209  0.18673493  1
  Zn  Zn165  1  0.93771474  0.43687923  0.68498885  1
  Zn  Zn166  1  0.93947521  0.93816634  0.18690302  1
  Zn  Zn167  1  0.93769102  0.93715074  0.68848267  1
  Zn  Zn168  1  0.06090687  0.06267378  0.31223483  1
  Zn  Zn169  1  0.06171949  0.06173017  0.81410601  1
  Zn  Zn170  1  0.06336475  0.56230090  0.31190529  1
  Zn  Zn171  1  0.06183073  0.56398107  0.81204791  1
  Zn  Zn172  1  0.56089543  0.06185530  0.31337106  1
  Zn  Zn173  1  0.56304246  0.06224193  0.81257897  1
  Zn  Zn174  1  0.56226478  0.56217112  0.31220406  1
  Zn  Zn175  1  0.56137711  0.56212324  0.81388729  1
  Zn  Zn176  1  0.43775852  0.18897758  0.43677281  1
  Zn  Zn177  1  0.43955859  0.18795856  0.93586880  1
  Zn  Zn178  1  0.43696073  0.68824339  0.43854960  1
  Zn  Zn179  1  0.43651589  0.68675648  0.93816102  1
  Zn  Zn180  1  0.93922447  0.18675894  0.43631668  1
  Zn  Zn181  1  0.93754680  0.18721977  0.93612640  1
  Zn  Zn182  1  0.93655694  0.68800468  0.43796682  1
  Zn  Zn183  1  0.93778658  0.68615360  0.93737565  1
  Zn  Zn184  1  0.06207883  0.31333043  0.06071504  1
  Zn  Zn185  1  0.06149350  0.31353292  0.56014032  1
  Zn  Zn186  1  0.06401437  0.81244290  0.06590723  1
  Zn  Zn187  1  0.06156506  0.81235299  0.56536129  1
  Zn  Zn188  1  0.56278816  0.31390939  0.06172825  1
  Zn  Zn189  1  0.56196599  0.31140289  0.56342477  1
  Zn  Zn190  1  0.56336047  0.81303913  0.06309629  1
  Zn  Zn191  1  0.56212991  0.81101802  0.56390016  1
  O  O192  1  0.11834924  0.12441255  0.11702070  1
  O  O193  1  0.12001608  0.12063557  0.62069979  1
  O  O194  1  0.12023511  0.61599259  0.12619617  1
  O  O195  1  0.12272555  0.61461572  0.61832296  1
  O  O196  1  0.61818266  0.12070003  0.11891584  1
  O  O197  1  0.61899297  0.12557922  0.61345363  1
  O  O198  1  0.61835563  0.61941257  0.12458981  1
  O  O199  1  0.61886122  0.61914792  0.62012962  1
  O  O200  1  0.38127233  0.37957899  0.37947680  1
  O  O201  1  0.37603811  0.38416836  0.87998000  1
  O  O202  1  0.38026314  0.87538720  0.38660325  1
  O  O203  1  0.38179073  0.87904287  0.88056637  1
  O  O204  1  0.87606465  0.38292852  0.38010967  1
  O  O205  1  0.87913592  0.37966656  0.87819739  1
  O  O206  1  0.88034181  0.88199848  0.38109921  1
  O  O207  1  0.87895923  0.87580580  0.88950076  1
  O  O208  1  0.25053765  0.01391193  0.37347486  1
  O  O209  1  0.25975799  0.00123032  0.87227867  1
  O  O210  1  0.25775407  0.50608324  0.37455362  1
  O  O211  1  0.26265095  0.50154961  0.87474911  1
  O  O212  1  0.76283139  -0.00003206  0.37559885  1
  O  O213  1  0.75289935  0.00265459  0.86603212  1
  O  O214  1  0.75489522  0.50610357  0.36774261  1
  O  O215  1  0.75513720  0.50549619  0.86845704  1
  O  O216  1  0.24165080  0.49430799  0.12677029  1
  O  O217  1  0.23663212  0.49822448  0.62558228  1
  O  O218  1  0.24804129  0.99141367  0.12772655  1
  O  O219  1  0.24076483  0.99718209  0.62830541  1
  O  O220  1  0.74563694  0.49546735  0.12936619  1
  O  O221  1  0.74237030  0.49887895  0.63098575  1
  O  O222  1  0.74077077  0.99763536  0.12690419  1
  O  O223  1  0.74863386  0.99268555  0.63273822  1
  O  O224  1  0.00711402  0.36747432  0.25014195  1
  O  O225  1  0.00461323  0.36840979  0.75402356  1
  O  O226  1  0.00769620  0.86972059  0.25476747  1
  O  O227  1  0.00752751  0.86617040  0.75150875  1
  O  O228  1  0.50528683  0.37046951  0.25380294  1
  O  O229  1  0.51375548  0.37452451  0.75202087  1
  O  O230  1  0.50390389  0.86921785  0.25658962  1
  O  O231  1  0.50466509  0.86918410  0.75518307  1
  O  O232  1  0.49484416  0.13142722  0.24428424  1
  O  O233  1  0.49017614  0.12560517  0.74373365  1
  O  O234  1  0.49452315  0.63129777  0.24580630  1
  O  O235  1  0.49177295  0.62876244  0.74588564  1
  O  O236  1  0.99882389  0.13149767  0.24210759  1
  O  O237  1  0.99531721  0.13052119  0.74434388  1
  O  O238  1  0.99415846  0.63066256  0.24512274  1
  O  O239  1  0.99258815  0.63418471  0.74742108  1
  O  O240  1  0.37078941  0.25552115  0.00447378  1
  O  O241  1  0.37562140  0.25484787  0.51005221  1
  O  O242  1  0.36869193  0.75563690  0.00670369  1
  O  O243  1  0.36742069  0.75785569  0.50190320  1
  O  O244  1  0.87001089  0.25627176  0.00464250  1
  O  O245  1  0.86859633  0.25350598  0.50346507  1
  O  O246  1  0.87178547  0.75750458  0.00509991  1
  O  O247  1  0.87350875  0.75660777  0.50727306  1
  O  O248  1  0.12530287  0.24314139  0.49342373  1
  O  O249  1  0.12990743  0.24564022  0.99351282  1
  O  O250  1  0.13270796  0.74497270  0.50014458  1
  O  O251  1  0.13638263  0.74986542  1.00112736  1
  O  O252  1  0.63290306  0.24284775  0.49918516  1
  O  O253  1  0.63039827  0.24600470  0.99566173  1
  O  O254  1  0.62481588  0.74271214  0.49314996  1
  O  O255  1  0.63152108  0.74984028  0.99362790  1
  O  O256  1  0.49434422  0.24547009  0.12918289  1
  O  O257  1  0.48956724  0.24371735  0.62686180  1
  O  O258  1  0.49458136  0.74567820  0.13117549  1
  O  O259  1  0.49810406  0.74194127  0.63268948  1
  O  O260  1  0.99496778  0.24573354  0.12851434  1
  O  O261  1  0.99503732  0.24430447  0.62950665  1
  O  O262  1  0.99440597  0.74440578  0.13171855  1
  O  O263  1  0.99267012  0.74868988  0.63605908  1
  O  O264  1  0.00669894  0.25074800  0.36754334  1
  O  O265  1  0.00562234  0.25575030  0.86796798  1
  O  O266  1  0.00000320  0.75683015  0.36884943  1
  O  O267  1  0.00058857  0.75073593  0.86225026  1
  O  O268  1  0.50141248  0.25709502  0.36730166  1
  O  O269  1  0.50888175  0.25426385  0.87264795  1
  O  O270  1  0.50506322  0.75535674  0.37020436  1
  O  O271  1  0.50491864  0.75491474  0.87057669  1
  O  O272  1  0.24399401  0.12712691  0.49071926  1
  O  O273  1  0.24403143  0.13181139  0.99861582  1
  O  O274  1  0.24578980  0.63235156  0.49579124  1
  O  O275  1  0.25022687  0.63748596  1.00156765  1
  O  O276  1  0.74213681  0.13229168  0.49937813  1
  O  O277  1  0.74305410  0.13215913  0.99956975  1
  O  O278  1  0.74213690  0.62611363  0.49214556  1
  O  O279  1  0.74963459  0.63241681  0.99253750  1
  O  O280  1  0.25612292  0.36884679  0.00554666  1
  O  O281  1  0.25947611  0.37119883  0.50323414  1
  O  O282  1  0.25581935  0.86671975  0.00639752  1
  O  O283  1  0.25706070  0.86751802  0.49914028  1
  O  O284  1  0.75562589  0.37004350  0.00496140  1
  O  O285  1  0.75488793  0.36591008  0.50033883  1
  O  O286  1  0.76019459  0.86973177  0.00161001  1
  O  O287  1  0.75605738  0.87307161  0.50786701  1
  O  O288  1  0.12662500  0.49413460  0.23945194  1
  O  O289  1  0.12333872  0.49498459  0.73982024  1
  O  O290  1  0.12508554  0.98750725  0.24884448  1
  O  O291  1  0.12369095  0.99022611  0.74592147  1
  O  O292  1  0.63065336  0.49516478  0.24372757  1
  O  O293  1  0.62919736  0.49285745  0.74590207  1
  O  O294  1  0.62267392  0.99377608  0.24418572  1
  O  O295  1  0.63149981  0.99328837  0.74822770  1
  O  O296  1  0.37306123  0.00881762  0.25366349  1
  O  O297  1  0.37592530  0.00783893  0.75480565  1
  O  O298  1  0.37447110  0.50684437  0.25717062  1
  O  O299  1  0.37596162  0.50720665  0.75818317  1
  O  O300  1  0.87641244  -0.00040415  0.26189520  1
  O  O301  1  0.86962708  0.00542383  0.75168984  1
  O  O302  1  0.86960595  0.50556075  0.25319271  1
  O  O303  1  0.86906122  0.50451730  0.75352228  1
  O  O304  1  0.12499482  0.36844832  0.36778267  1
  O  O305  1  0.11895290  0.37010648  0.86889872  1
  O  O306  1  0.11880279  0.87431204  0.36763875  1
  O  O307  1  0.12289965  0.87061776  0.86330115  1
  O  O308  1  0.61861088  0.37446556  0.36726727  1
  O  O309  1  0.62489842  0.37025871  0.86549993  1
  O  O310  1  0.61860043  0.86991482  0.37113112  1
  O  O311  1  0.61946725  0.86945382  0.86951861  1
  O  O312  1  0.38047826  0.13125670  0.12893985  1
  O  O313  1  0.37945342  0.13131225  0.63134372  1
  O  O314  1  0.38076323  0.63079691  0.13235314  1
  O  O315  1  0.38078525  0.62313612  0.63499241  1
  O  O316  1  0.88258273  0.13275878  0.12478709  1
  O  O317  1  0.88199963  0.13044375  0.62979659  1
  O  O318  1  0.88044969  0.62975247  0.13074699  1
  O  O319  1  0.87441280  0.63139639  0.63176033  1
  O  O320  1  0.25560188  0.25547171  0.11827477  1
  O  O321  1  0.26361996  0.25038702  0.62345264  1
  O  O322  1  0.25659597  0.75548637  0.11917184  1
  O  O323  1  0.25214969  0.75104650  0.61182694  1
  O  O324  1  0.75540695  0.25689459  0.11915207  1
  O  O325  1  0.75627343  0.25067823  0.61243672  1
  O  O326  1  0.75754192  0.75160744  0.11861887  1
  O  O327  1  0.75585967  0.75672401  0.62511240  1
  O  O328  1  0.24389719  0.23933042  0.37520634  1
  O  O329  1  0.24342510  0.24870464  0.88144552  1
  O  O330  1  0.24905741  0.74332261  0.38770511  1
  O  O331  1  0.25040886  0.74820309  0.88877163  1
  O  O332  1  0.74922638  0.24801014  0.38683309  1
  O  O333  1  0.74297729  0.24824549  0.88208840  1
  O  O334  1  0.74283498  0.74344569  0.37579184  1
  O  O335  1  0.74504933  0.74520103  0.88008693  1
  O  O336  1  0.00506244  0.11835454  0.00451527  1
  O  O337  1  0.00585116  0.11944331  0.50642981  1
  O  O338  1  0.00172152  0.62276979  0.00854783  1
  O  O339  1  0.00574336  0.61876679  0.50115847  1
  O  O340  1  0.50515984  0.11949652  0.00569562  1
  O  O341  1  0.50680386  0.12121285  0.50375553  1
  O  O342  1  0.50038052  0.61945843  0.00802437  1
  O  O343  1  0.50453545  0.61876369  0.50492613  1
  O  O344  1  0.49565841  0.38020212  0.49449219  1
  O  O345  1  0.49276556  0.38319237  0.99990320  1
  O  O346  1  0.49257607  0.87865263  0.49640561  1
  O  O347  1  0.49463228  0.87955116  0.99463979  1
  O  O348  1  0.99262804  0.38188667  0.49604079  1
  O  O349  1  0.99310129  0.37605510  0.99133545  1
  O  O350  1  0.99471645  0.88026894  0.49634270  1
  O  O351  1  0.99398188  0.88193561  1.00179024  1
  O  O352  1  0.49500136  0.49451675  0.38051795  1
  O  O353  1  0.48894150  0.49967843  0.88139410  1
  O  O354  1  0.49693749  0.99302406  0.38285328  1
  O  O355  1  0.49543654  0.99312007  0.88088076  1
  O  O356  1  0.99263911  0.49914217  0.37959659  1
  O  O357  1  0.99226574  0.49309658  0.87393876  1
  O  O358  1  0.99251784  0.99446581  0.38172020  1
  O  O359  1  0.99755540  0.99823379  0.88927875  1
  O  O360  1  0.00207765  0.00584943  0.11412969  1
  O  O361  1  0.00510711  0.00592773  0.62023965  1
  O  O362  1  0.00934082  0.50532897  0.12388954  1
  O  O363  1  0.00911305  0.50129924  0.61777868  1
  O  O364  1  0.50465620  0.00630005  0.11872641  1
  O  O365  1  0.50288668  0.00714793  0.61726939  1
  O  O366  1  0.50499485  0.50609533  0.12068717  1
  O  O367  1  0.50567817  0.50516140  0.61913469  1
  O  O368  1  0.24375699  0.37567160  0.24233195  1
  O  O369  1  0.24097919  0.37876519  0.74591173  1
  O  O370  1  0.24200560  0.87440305  0.24785620  1
  O  O371  1  0.23931134  0.87296916  0.74693582  1
  O  O372  1  0.74515225  0.38097411  0.24360022  1
  O  O373  1  0.73945417  0.38054081  0.74746184  1
  O  O374  1  0.74079758  0.87831061  0.24740847  1
  O  O375  1  0.74537751  0.88018165  0.74603895  1
  O  O376  1  0.25454761  0.12517478  0.25811800  1
  O  O377  1  0.26379652  0.12247977  0.75189514  1
  O  O378  1  0.25756852  0.62530474  0.25782313  1
  O  O379  1  0.26191544  0.62341213  0.75068896  1
  O  O380  1  0.75402962  0.12086121  0.25508458  1
  O  O381  1  0.75634244  0.11799817  0.74861102  1
  O  O382  1  0.75530156  0.61989043  0.25423399  1
  O  O383  1  0.75428570  0.62004950  0.75571653  1
  O  O384  1  0.36578874  0.12667371  0.36967995  1
  O  O385  1  0.37656204  0.11919631  0.86599343  1
  O  O386  1  0.37113475  0.61934199  0.37157497  1
  O  O387  1  0.37465261  0.61671653  0.86650843  1
  O  O388  1  0.87575309  0.11210718  0.37516003  1
  O  O389  1  0.87283649  0.12394042  0.86620146  1
  O  O390  1  0.86888958  0.62022156  0.36841270  1
  O  O391  1  0.86880538  0.61960798  0.86827943  1
  O  O392  1  0.12985726  0.38209515  0.12873611  1
  O  O393  1  0.12412147  0.38361102  0.62904882  1
  O  O394  1  0.13114520  0.87563319  0.13677447  1
  O  O395  1  0.12433076  0.88110050  0.63530356  1
  O  O396  1  0.63103315  0.38165277  0.12980248  1
  O  O397  1  0.62553629  0.38023706  0.63382462  1
  O  O398  1  0.62397986  0.88179160  0.13201855  1
  O  O399  1  0.63069083  0.87495585  0.63232428  1
  O  O400  1  0.11930885  0.25512894  0.25374738  1
  O  O401  1  0.11929276  0.25448780  0.75368500  1
  O  O402  1  0.11940429  0.76023103  0.25282874  1
  O  O403  1  0.11644104  0.75658716  0.74736608  1
  O  O404  1  0.61884173  0.25709765  0.24965206  1
  O  O405  1  0.62592829  0.25838717  0.75393266  1
  O  O406  1  0.61841509  0.75545599  0.25572339  1
  O  O407  1  0.61939377  0.75513936  0.75668064  1
  O  O408  1  0.38089173  0.24535863  0.24252216  1
  O  O409  1  0.37689564  0.24252284  0.74297862  1
  O  O410  1  0.38056867  0.74551123  0.24657046  1
  O  O411  1  0.38070154  0.74038934  0.75008118  1
  O  O412  1  0.88164574  0.25039197  0.24251226  1
  O  O413  1  0.87985608  0.24569357  0.74331644  1
  O  O414  1  0.88000172  0.74538290  0.24506047  1
  O  O415  1  0.88175632  0.74655415  0.74626368  1
  O  O416  1  0.38149398  0.49466333  0.49556303  1
  O  O417  1  0.37892478  0.49597401  0.99372725  1
  O  O418  1  0.37963999  0.99079951  0.49904146  1
  O  O419  1  0.38163024  0.99411972  0.99525288  1
  O  O420  1  0.87858783  0.49563756  0.49399289  1
  O  O421  1  0.87579098  0.49320249  0.99183923  1
  O  O422  1  0.88088164  0.99433321  0.49423940  1
  O  O423  1  0.88348496  0.99201645  1.00163153  1
  O  O424  1  0.11661105  0.00428243  0.00064390  1
  O  O425  1  0.11850478  0.00542100  0.50569586  1
  O  O426  1  0.12399255  0.50005254  0.01255372  1
  O  O427  1  0.11959746  0.50359338  0.50607902  1
  O  O428  1  0.61896727  0.00488050  0.00471772  1
  O  O429  1  0.61967769  0.00918875  0.50157867  1
  O  O430  1  0.61893672  0.50204317  0.00616751  1
  O  O431  1  0.61942918  0.50465101  0.50460416  1
  O  O432  1  0.36974969  0.37035292  0.11999419  1
  O  O433  1  0.37701367  0.36627380  0.62091679  1
  O  O434  1  0.37135538  0.86944655  0.12080300  1
  O  O435  1  0.37395589  0.87252086  0.61346787  1
  O  O436  1  0.86966872  0.37054123  0.11874911  1
  O  O437  1  0.87294382  0.36788521  0.61717706  1
  O  O438  1  0.87584717  0.86923858  0.11508625  1
  O  O439  1  0.86981538  0.86997058  0.62087706  1
  O  O440  1  0.13136498  0.12975188  0.37949957  1
  O  O441  1  0.12617890  0.13222038  0.88055072  1
  O  O442  1  0.13197033  0.62614946  0.38134179  1
  O  O443  1  0.12923674  0.62768405  0.87829115  1
  O  O444  1  0.62487136  0.12714985  0.38773717  1
  O  O445  1  0.62575159  0.13157068  0.88191914  1
  O  O446  1  0.62908268  0.62982423  0.37926381  1
  O  O447  1  0.63098906  0.63148300  0.87592893  1
