# generated using pymatgen
data_V3Zn3O8
_symmetry_space_group_name_H-M   'P 1'
_cell_length_a   17.08520515
_cell_length_b   17.08672191
_cell_length_c   17.08671906
_cell_angle_alpha   90.00432124
_cell_angle_beta   89.99241997
_cell_angle_gamma   89.98178061
_symmetry_Int_Tables_number   1
_chemical_formula_structural   V3Zn3O8
_chemical_formula_sum   'V96 Zn96 O256'
_cell_volume   4988.12813426
_cell_formula_units_Z   32
loop_
 _symmetry_equiv_pos_site_id
 _symmetry_equiv_pos_as_xyz
  1  'x, y, z'
loop_
 _atom_site_type_symbol
 _atom_site_label
 _atom_site_symmetry_multiplicity
 _atom_site_fract_x
 _atom_site_fract_y
 _atom_site_fract_z
 _atom_site_occupancy
  V  V0  1  0.74888742  0.12412416  0.37370543  1
  V  V1  1  0.87320656  0.12459479  0.24930745  1
  V  V2  1  0.00130846  0.87725229  0.87443198  1
  V  V3  1  0.50123748  0.75046223  0.75039002  1
  V  V4  1  0.37373511  0.25049244  0.12582251  1
  V  V5  1  0.37383285  0.12503189  0.75091668  1
  V  V6  1  0.25112474  0.87519517  0.12472534  1
  V  V7  1  0.62520305  0.87379568  0.25000153  1
  V  V8  1  0.12444783  0.50170660  0.62518406  1
  V  V9  1  0.87443779  0.62591713  0.24912417  1
  V  V10  1  0.12377608  0.24909362  0.37544183  1
  V  V11  1  0.87465777  0.25070954  0.12393765  1
  V  V12  1  -0.00124863  0.62560620  0.12599227  1
  V  V13  1  0.49872471  0.12445461  0.62503954  1
  V  V14  1  0.37548375  0.74942781  0.62506783  1
  V  V15  1  0.74912041  0.37439969  0.12538201  1
  V  V16  1  0.12375959  0.12368479  0.50078110  1
  V  V17  1  0.87541215  0.49948224  0.87586315  1
  V  V18  1  0.62462466  0.37467334  0.24932197  1
  V  V19  1  0.37360302  0.50063404  0.37544514  1
  V  V20  1  0.24962231  0.12399452  0.37575005  1
  V  V21  1  0.75090375  0.62556393  0.87461089  1
  V  V22  1  0.75025317  0.12544736  0.87327956  1
  V  V23  1  -0.00035904  0.25015453  0.25083965  1
  V  V24  1  0.25001838  0.37591381  0.62598803  1
  V  V25  1  0.12485069  0.37595185  0.75225097  1
  V  V26  1  0.87467510  0.37600733  0.00077000  1
  V  V27  1  0.87392313  0.87404843  0.49865146  1
  V  V28  1  0.50060036  0.12430574  0.12541151  1
  V  V29  1  0.12500077  -0.00003622  0.12466169  1
  V  V30  1  0.12415044  0.87537061  0.24954424  1
  V  V31  1  0.37574822  -0.00195169  0.37572736  1
  V  V32  1  0.62481424  0.12441771  0.00043549  1
  V  V33  1  0.24900217  0.24958292  0.50059647  1
  V  V34  1  0.75094529  0.00134598  0.74948015  1
  V  V35  1  0.12500397  -0.00008201  0.62403651  1
  V  V36  1  -0.00079735  0.12527013  0.12454222  1
  V  V37  1  0.25020370  0.00005419  0.25035997  1
  V  V38  1  0.62519384  0.25030017  0.87396271  1
  V  V39  1  0.12579465  0.74972575  0.37514500  1
  V  V40  1  0.12593045  0.12689667  0.00004840  1
  V  V41  1  0.37712403  0.74842901  0.12512776  1
  V  V42  1  0.74945840  0.62375120  0.37483011  1
  V  V43  1  0.37577848  -0.00005139  0.87552653  1
  V  V44  1  0.87469521  0.37297568  0.50050533  1
  V  V45  1  0.37568215  0.49996498  0.87559653  1
  V  V46  1  0.00043781  -0.00001546  0.49895205  1
  V  V47  1  0.62593666  0.50018381  0.62499567  1
  V  V48  1  0.37444284  0.24993315  0.62568075  1
  V  V49  1  0.37497183  0.12500373  0.25080676  1
  V  V50  1  0.24840992  0.49943449  0.25040497  1
  V  V51  1  0.74894326  -0.00003019  0.24858189  1
  V  V52  1  0.00049667  0.74993186  0.74927035  1
  V  V53  1  0.12680103  0.62664511  -0.00120914  1
  V  V54  1  0.75074497  0.49946672  0.74918918  1
  V  V55  1  0.37482626  0.37516012  0.00124243  1
  V  V56  1  0.49864930  0.24958013  0.25123657  1
  V  V57  1  0.50019878  0.37482777  0.87600150  1
  V  V58  1  -0.00033532  0.87538065  0.37355511  1
  V  V59  1  0.62622492  0.75142264  0.87315000  1
  V  V60  1  -0.00006666  0.37338927  0.37565193  1
  V  V61  1  -0.00093692  0.50018580  0.00072740  1
  V  V62  1  0.74954439  0.24954414  0.50127542  1
  V  V63  1  0.00050454  0.25004974  0.74906564  1
  V  V64  1  0.74817506  0.49899374  0.24990759  1
  V  V65  1  0.00029125  0.50106998  0.50028933  1
  V  V66  1  0.25017444  0.25071189  0.00162175  1
  V  V67  1  0.37587544  0.62526085  0.24965640  1
  V  V68  1  0.12540830  0.49982079  0.12722891  1
  V  V69  1  0.50070186  0.87391632  0.37458487  1
  V  V70  1  0.50036202  0.50030775  0.50101322  1
  V  V71  1  0.75091602  0.87500007  0.62323075  1
  V  V72  1  0.49977014  0.25064610  0.75086867  1
  V  V73  1  0.62516916  0.74895873  0.37554063  1
  V  V74  1  0.75129358  0.75118668  -0.00100068  1
  V  V75  1  0.25099219  0.87468423  0.62491705  1
  V  V76  1  0.25034412  0.12688578  0.87608041  1
  V  V77  1  0.75075335  0.87444910  0.12316107  1
  V  V78  1  0.24905493  0.62593716  0.37585872  1
  V  V79  1  0.49919045  -0.00170709  0.49971023  1
  V  V80  1  0.37410662  0.37562248  0.50061703  1
  V  V81  1  0.87590695  0.00165292  0.87389949  1
  V  V82  1  0.37647495  0.87503839  -0.00040045  1
  V  V83  1  0.75006864  0.37397408  0.62509073  1
  V  V84  1  0.37566032  0.62463544  0.75143934  1
  V  V85  1  0.62563820  0.87496645  0.74983312  1
  V  V86  1  0.62383026  0.24960063  0.37554582  1
  V  V87  1  0.12481505  0.87569201  0.74973208  1
  V  V88  1  0.87671706  0.62576730  0.74953779  1
  V  V89  1  0.00037460  0.00059757  -0.00167342  1
  V  V90  1  0.62421606  0.12447399  0.49987693  1
  V  V91  1  0.62429486  -0.00039754  0.62504025  1
  V  V92  1  0.62662969  0.62389828  0.49959942  1
  V  V93  1  0.62309959  0.62336188  0.00158193  1
  V  V94  1  0.25060320  0.50099020  0.75108239  1
  V  V95  1  0.49887835  0.37444696  0.37543666  1
  Zn  Zn96  1  0.62156319  0.49807129  0.12419001  1
  Zn  Zn97  1  0.50081374  0.62162027  0.12685415  1
  Zn  Zn98  1  0.87702477  0.75005222  0.12177752  1
  Zn  Zn99  1  0.62542461  0.37594921  0.75094916  1
  Zn  Zn100  1  0.24889589  0.00170175  0.74960505  1
  Zn  Zn101  1  0.49924587  0.49967717  0.00152242  1
  Zn  Zn102  1  0.12507191  0.25266107  0.87654435  1
  Zn  Zn103  1  0.25068353  0.74922580  -0.00281788  1
  Zn  Zn104  1  0.87388788  -0.00050016  0.37297845  1
  Zn  Zn105  1  0.25008883  0.74780794  0.50075927  1
  Zn  Zn106  1  -0.00163059  0.75161464  0.24785837  1
  Zn  Zn107  1  0.75142056  0.74770128  0.50109479  1
  Zn  Zn108  1  0.24874494  0.37492626  0.12722874  1
  Zn  Zn109  1  0.50202798  0.62456491  0.62551454  1
  Zn  Zn110  1  0.75199818  0.25079372  -0.00222747  1
  Zn  Zn111  1  0.12813905  0.75164968  0.87602905  1
  Zn  Zn112  1  0.12513009  0.62633567  0.50141815  1
  Zn  Zn113  1  0.50125096  0.74780223  0.25049969  1
  Zn  Zn114  1  0.12510435  0.37453734  0.24995478  1
  Zn  Zn115  1  0.37535027  0.87239407  0.49872622  1
  Zn  Zn116  1  0.00110842  0.37465791  0.87625173  1
  Zn  Zn117  1  0.50181278  0.87649064  0.87562757  1
  Zn  Zn118  1  0.87466555  0.49876955  0.37544002  1
  Zn  Zn119  1  -0.00220345  0.12476025  0.62466937  1
  Zn  Zn120  1  0.87683054  0.87428425  -0.00077733  1
  Zn  Zn121  1  0.62270657  -0.00129851  0.12363246  1
  Zn  Zn122  1  0.50026194  0.00004706  0.00193111  1
  Zn  Zn123  1  0.87658011  0.12633133  0.74751974  1
  Zn  Zn124  1  0.87487711  0.74851545  0.62406404  1
  Zn  Zn125  1  0.87473856  0.24669063  0.62575767  1
  Zn  Zn126  1  0.25077631  0.62740706  0.87529074  1
  Zn  Zn127  1  -0.00008532  0.62659734  0.62341034  1
  Zn  Zn128  1  0.18681647  0.18762741  0.18804544  1
  Zn  Zn129  1  0.18580367  0.18726730  0.68846519  1
  Zn  Zn130  1  0.18930119  0.68732863  0.18704598  1
  Zn  Zn131  1  0.18661187  0.68628814  0.68862608  1
  Zn  Zn132  1  0.68749227  0.18929340  0.18610917  1
  Zn  Zn133  1  0.68635469  0.18754338  0.68815685  1
  Zn  Zn134  1  0.68835436  0.68884552  0.18687330  1
  Zn  Zn135  1  0.69001870  0.68778113  0.68525814  1
  Zn  Zn136  1  0.31009004  0.31371524  0.31292385  1
  Zn  Zn137  1  0.31223785  0.31337212  0.81471218  1
  Zn  Zn138  1  0.31255498  0.81208156  0.31098853  1
  Zn  Zn139  1  0.31043155  0.81086945  0.81249901  1
  Zn  Zn140  1  0.81277300  0.31198473  0.31354262  1
  Zn  Zn141  1  0.81395841  0.31269007  0.81257874  1
  Zn  Zn142  1  0.81042912  0.81038770  0.31276211  1
  Zn  Zn143  1  0.81451982  0.81468876  0.81231287  1
  Zn  Zn144  1  0.18552826  0.43704864  0.43700698  1
  Zn  Zn145  1  0.18860820  0.43808244  0.93802816  1
  Zn  Zn146  1  0.18807600  0.93544333  0.43904740  1
  Zn  Zn147  1  0.18887614  0.93840595  0.93756815  1
  Zn  Zn148  1  0.68809674  0.43747551  0.43718422  1
  Zn  Zn149  1  0.68841276  0.43752389  0.93729614  1
  Zn  Zn150  1  0.68765461  0.93743986  0.43605104  1
  Zn  Zn151  1  0.68919000  0.93930631  0.93643852  1
  Zn  Zn152  1  0.31266697  0.06326670  0.06254389  1
  Zn  Zn153  1  0.31244396  0.06097458  0.56189474  1
  Zn  Zn154  1  0.31153757  0.56091748  0.06279672  1
  Zn  Zn155  1  0.31101967  0.56456599  0.56278565  1
  Zn  Zn156  1  0.81206719  0.06114747  0.06053400  1
  Zn  Zn157  1  0.81432840  0.06246415  0.56302238  1
  Zn  Zn158  1  0.80967807  0.56142958  0.06422418  1
  Zn  Zn159  1  0.81474285  0.56177443  0.56365181  1
  Zn  Zn160  1  0.43769477  0.43890193  0.18567564  1
  Zn  Zn161  1  0.43892602  0.43769046  0.68859362  1
  Zn  Zn162  1  0.43995313  0.93764391  0.18819026  1
  Zn  Zn163  1  0.43800896  0.93659487  0.68949046  1
  Zn  Zn164  1  0.93732625  0.43855331  0.18797626  1
  Zn  Zn165  1  0.93702781  0.43533602  0.68648241  1
  Zn  Zn166  1  0.93619704  0.93842598  0.18671557  1
  Zn  Zn167  1  0.93732701  0.93824905  0.68605078  1
  Zn  Zn168  1  0.06109318  0.06212834  0.31267567  1
  Zn  Zn169  1  0.06416426  0.06472489  0.81156789  1
  Zn  Zn170  1  0.06111899  0.56282170  0.31299198  1
  Zn  Zn171  1  0.06179199  0.56231125  0.81443067  1
  Zn  Zn172  1  0.56341047  0.05995635  0.31131933  1
  Zn  Zn173  1  0.56167396  0.06275682  0.81272036  1
  Zn  Zn174  1  0.56145715  0.56199666  0.31207207  1
  Zn  Zn175  1  0.56208188  0.56269615  0.81270446  1
  Zn  Zn176  1  0.43619209  0.18641794  0.43854930  1
  Zn  Zn177  1  0.43814928  0.18882609  0.93891247  1
  Zn  Zn178  1  0.43905669  0.68669274  0.43850260  1
  Zn  Zn179  1  0.43951968  0.68849906  0.93539039  1
  Zn  Zn180  1  0.93555696  0.18633205  0.43749148  1
  Zn  Zn181  1  0.93793176  0.18900762  0.93452866  1
  Zn  Zn182  1  0.93809267  0.68785459  0.43404175  1
  Zn  Zn183  1  0.93888215  0.68894265  0.93659762  1
  Zn  Zn184  1  0.06263063  0.31442465  0.06390833  1
  Zn  Zn185  1  0.06249954  0.31355082  0.56483234  1
  Zn  Zn186  1  0.06112116  0.81154158  0.06253983  1
  Zn  Zn187  1  0.06163630  0.81390379  0.56188167  1
  Zn  Zn188  1  0.56147870  0.31037723  0.06201550  1
  Zn  Zn189  1  0.56304436  0.31351567  0.56371557  1
  Zn  Zn190  1  0.56244404  0.81049079  0.06148163  1
  Zn  Zn191  1  0.56323964  0.81142951  0.56118127  1
  O  O192  1  0.11908584  0.11899592  0.12055497  1
  O  O193  1  0.12586846  0.11739771  0.61702816  1
  O  O194  1  0.11954044  0.62004601  0.11867078  1
  O  O195  1  0.12124195  0.61751130  0.62186945  1
  O  O196  1  0.62019453  0.12572105  0.11561155  1
  O  O197  1  0.61785917  0.11916816  0.61948365  1
  O  O198  1  0.62511981  0.62589113  0.11282062  1
  O  O199  1  0.62544490  0.61802708  0.61775003  1
  O  O200  1  0.37916984  0.38006328  0.38154002  1
  O  O201  1  0.38073662  0.37969637  0.88129426  1
  O  O202  1  0.38073342  0.88055268  0.37585878  1
  O  O203  1  0.37427151  0.88326283  0.88294084  1
  O  O204  1  0.88168425  0.37555884  0.38217830  1
  O  O205  1  0.87552825  0.38284075  0.88311049  1
  O  O206  1  0.87961245  0.87540319  0.38202719  1
  O  O207  1  0.88281311  0.88406178  0.87605855  1
  O  O208  1  0.25493035  0.00416374  0.37022844  1
  O  O209  1  0.26179436  0.00662443  0.87435680  1
  O  O210  1  0.25459241  0.50512195  0.37095325  1
  O  O211  1  0.25821133  0.50149990  0.86772754  1
  O  O212  1  0.74964713  0.00703495  0.36684995  1
  O  O213  1  0.75562090  0.00578217  0.86838194  1
  O  O214  1  0.75134391  0.50551524  0.36770633  1
  O  O215  1  0.75591239  0.50616511  0.86913853  1
  O  O216  1  0.24336661  0.49969503  0.13358598  1
  O  O217  1  0.24549370  0.49454584  0.63069596  1
  O  O218  1  0.24496446  0.99580573  0.13102403  1
  O  O219  1  0.24570075  0.99028351  0.62575140  1
  O  O220  1  0.74575858  0.49181452  0.13255036  1
  O  O221  1  0.74539849  0.49381586  0.62972633  1
  O  O222  1  0.74727803  0.99024093  0.12900448  1
  O  O223  1  0.74277384  0.99516103  0.62930502  1
  O  O224  1  0.00002485  0.36785055  0.25721754  1
  O  O225  1  0.00703976  0.36789115  0.75086322  1
  O  O226  1  0.00640161  0.87520049  0.25486563  1
  O  O227  1  0.00487553  0.86854970  0.75419894  1
  O  O228  1  0.50354707  0.36867023  0.25673406  1
  O  O229  1  0.50090014  0.36751523  0.75713346  1
  O  O230  1  0.50736409  0.87355368  0.25688620  1
  O  O231  1  0.50836708  0.86905152  0.75165770  1
  O  O232  1  0.49454206  0.13041496  0.24682280  1
  O  O233  1  0.49367690  0.13039719  0.74403348  1
  O  O234  1  0.49120056  0.62734256  0.24847399  1
  O  O235  1  0.49414072  0.63220782  0.74752509  1
  O  O236  1  0.99376753  0.12951046  0.24415978  1
  O  O237  1  1.00137600  0.13668582  0.74762019  1
  O  O238  1  0.98936451  0.62467504  0.24523937  1
  O  O239  1  0.99541623  0.63484405  0.75120965  1
  O  O240  1  0.36974212  0.25424772  0.00675091  1
  O  O241  1  0.36899943  0.25512054  0.50570638  1
  O  O242  1  0.37497046  0.75875282  0.00686585  1
  O  O243  1  0.37402954  0.75076594  0.51314307  1
  O  O244  1  0.87505381  0.25669263  0.00650653  1
  O  O245  1  0.86684202  0.25517809  0.50092085  1
  O  O246  1  0.86667182  0.75280941  0.00043620  1
  O  O247  1  0.87607208  0.76280931  0.50031958  1
  O  O248  1  0.13053653  0.24440709  0.49575972  1
  O  O249  1  0.13112752  0.24391303  1.00095034  1
  O  O250  1  0.12519950  0.75060654  0.48671003  1
  O  O251  1  0.12601423  0.73874663  1.00033557  1
  O  O252  1  0.62839917  0.24388286  0.49470030  1
  O  O253  1  0.62632234  0.23870760  0.99356893  1
  O  O254  1  0.62708673  0.74198799  0.49375509  1
  O  O255  1  0.63099040  0.74335891  0.99290996  1
  O  O256  1  0.49339180  0.24382980  0.13267162  1
  O  O257  1  0.49374012  0.24426142  0.62937711  1
  O  O258  1  0.48698100  0.74889394  0.12665967  1
  O  O259  1  0.49044053  0.75014173  0.63097787  1
  O  O260  1  0.99443049  0.24403533  0.13079623  1
  O  O261  1  0.99965981  0.24898133  0.63585419  1
  O  O262  1  0.99681723  0.74235086  0.12894448  1
  O  O263  1  0.99874052  0.75077616  0.63754927  1
  O  O264  1  0.00479793  0.25315715  0.37038319  1
  O  O265  1  0.00382579  0.25341985  0.86416379  1
  O  O266  1  0.01006377  0.75648793  0.37097012  1
  O  O267  1  0.00254176  0.75751766  0.86485176  1
  O  O268  1  0.50362645  0.25464942  0.37113888  1
  O  O269  1  0.50431484  0.25461917  0.86929528  1
  O  O270  1  0.50667754  0.75663077  0.37456477  1
  O  O271  1  0.50776081  0.75370325  0.86766046  1
  O  O272  1  0.24497346  0.12986102  0.49451208  1
  O  O273  1  0.24542144  0.13096306  0.99635685  1
  O  O274  1  0.24593978  0.62743426  0.49141825  1
  O  O275  1  0.23787087  0.62543708  1.00016553  1
  O  O276  1  0.74263296  0.12879212  0.49420993  1
  O  O277  1  0.74027068  0.12605284  0.99350185  1
  O  O278  1  0.74535305  0.62384458  0.49283317  1
  O  O279  1  0.74279234  0.63073392  0.99443283  1
  O  O280  1  0.25715938  0.36839583  0.00275907  1
  O  O281  1  0.25494871  0.36971449  0.50563426  1
  O  O282  1  0.26125850  0.87543296  0.00673051  1
  O  O283  1  0.25233431  0.87202679  0.51348302  1
  O  O284  1  0.75668380  0.37359980  0.00692448  1
  O  O285  1  0.75449532  0.36897413  0.50417332  1
  O  O286  1  0.74979786  0.87063967  0.00821212  1
  O  O287  1  0.75921761  0.87557560  0.50358147  1
  O  O288  1  0.13051495  0.50088792  0.24459944  1
  O  O289  1  0.12993077  0.49574359  0.74511627  1
  O  O290  1  0.13064563  0.99571824  0.24423243  1
  O  O291  1  0.12735473  0.99365161  0.74242128  1
  O  O292  1  0.63024823  0.49159506  0.24967786  1
  O  O293  1  0.63282221  0.49985037  0.74377145  1
  O  O294  1  0.63187583  0.99247489  0.24736064  1
  O  O295  1  0.62955223  0.99525845  0.74414133  1
  O  O296  1  0.36967426  0.00552864  0.25576686  1
  O  O297  1  0.37383625  0.00583054  0.75944946  1
  O  O298  1  0.36922543  0.50509569  0.25690009  1
  O  O299  1  0.37031076  0.50482273  0.75460365  1
  O  O300  1  0.86738029  0.00732521  0.25032014  1
  O  O301  1  0.86864056  0.00125756  0.75588835  1
  O  O302  1  0.86848362  0.51020008  0.25151946  1
  O  O303  1  0.87076491  0.50528530  0.75550054  1
  O  O304  1  0.11805038  0.36590476  0.37451641  1
  O  O305  1  0.12341199  0.37463313  0.86722166  1
  O  O306  1  0.12137757  0.86854667  0.36939056  1
  O  O307  1  0.11933164  0.87661786  0.86787287  1
  O  O308  1  0.61834384  0.36853070  0.37038189  1
  O  O309  1  0.61892373  0.36796817  0.87486158  1
  O  O310  1  0.62098480  0.86915373  0.36961177  1
  O  O311  1  0.62525379  0.86979571  0.86815921  1
  O  O312  1  0.37986454  0.13015219  0.13184065  1
  O  O313  1  0.37924996  0.13013633  0.62992088  1
  O  O314  1  0.37408986  0.63470238  0.12916479  1
  O  O315  1  0.37559424  0.63537314  0.63136421  1
  O  O316  1  0.87972405  0.13004765  0.12932486  1
  O  O317  1  0.87901988  0.12802579  0.62862348  1
  O  O318  1  0.87865970  0.62476040  0.13413413  1
  O  O319  1  0.87900013  0.62812638  0.63340484  1
  O  O320  1  0.25676531  0.24970728  0.12012060  1
  O  O321  1  0.25526981  0.25564535  0.61986990  1
  O  O322  1  0.26145317  0.75677832  0.12357871  1
  O  O323  1  0.25866158  0.75754957  0.62624121  1
  O  O324  1  0.75772730  0.25663079  0.12356562  1
  O  O325  1  0.74802644  0.25583865  0.61805059  1
  O  O326  1  0.75103142  0.76034620  0.11854174  1
  O  O327  1  0.75401944  0.75955002  0.62157764  1
  O  O328  1  0.24502329  0.24354151  0.38137387  1
  O  O329  1  0.25000243  0.24367069  0.88338174  1
  O  O330  1  0.24145382  0.74621208  0.37564495  1
  O  O331  1  0.24586267  0.74576841  0.87914987  1
  O  O332  1  0.74248789  0.24412715  0.38047690  1
  O  O333  1  0.74349206  0.24347823  0.87504448  1
  O  O334  1  0.74249366  0.74170094  0.37739223  1
  O  O335  1  0.74541434  0.74531462  0.87850775  1
  O  O336  1  0.00586600  0.12066549  0.00538141  1
  O  O337  1  0.00687865  0.11814854  0.49892072  1
  O  O338  1  0.00676933  0.61987405  0.00589767  1
  O  O339  1  0.00081843  0.61294834  0.49946227  1
  O  O340  1  0.50908563  0.12550722  0.00610727  1
  O  O341  1  0.50460924  0.11916436  0.50532654  1
  O  O342  1  0.51324839  0.62583636  -0.00045981  1
  O  O343  1  0.50748907  0.61677669  0.50158516  1
  O  O344  1  0.49359620  0.37954132  0.49476686  1
  O  O345  1  0.49278467  0.37367425  0.99313617  1
  O  O346  1  0.49926616  0.88185899  0.49338397  1
  O  O347  1  0.48828112  0.87743528  0.99882699  1
  O  O348  1  0.99519278  0.38110935  0.49569710  1
  O  O349  1  0.99260901  0.38269886  1.00061516  1
  O  O350  1  0.99266850  0.88016954  0.49375814  1
  O  O351  1  1.00087663  0.88338802  0.99354459  1
  O  O352  1  0.49336019  0.49316058  0.38088447  1
  O  O353  1  0.49345881  0.49256632  0.87619938  1
  O  O354  1  0.49514787  0.99434718  0.38008803  1
  O  O355  1  0.48680264  0.99938215  0.87707786  1
  O  O356  1  1.00007783  0.49298377  0.38526196  1
  O  O357  1  0.99209399  0.49911414  0.88280765  1
  O  O358  1  0.99850438  0.99274737  0.38079128  1
  O  O359  1  0.99603821  0.99704502  0.87926312  1
  O  O360  1  0.00558341  0.00591762  0.11928623  1
  O  O361  1  0.00830003  -0.00050847  0.61659740  1
  O  O362  1  0.00504348  0.50668646  0.12024557  1
  O  O363  1  0.00562736  0.49871638  0.61487844  1
  O  O364  1  0.50260454  0.00876885  0.12316280  1
  O  O365  1  0.50429485  0.00527189  0.62057003  1
  O  O366  1  0.50394786  0.50360336  0.11957708  1
  O  O367  1  0.50648191  0.50041422  0.61832049  1
  O  O368  1  0.24650153  0.38351944  0.24934147  1
  O  O369  1  0.24596120  0.38053534  0.74443456  1
  O  O370  1  0.24470201  0.88183684  0.24421187  1
  O  O371  1  0.24467124  0.87622640  0.73885722  1
  O  O372  1  0.74425377  0.37843710  0.24588178  1
  O  O373  1  0.74887516  0.38203195  0.74371095  1
  O  O374  1  0.74528273  0.87895748  0.24186828  1
  O  O375  1  0.74491723  0.88170560  0.74393253  1
  O  O376  1  0.25519509  0.11917022  0.25623225  1
  O  O377  1  0.25686323  0.12460187  0.75670468  1
  O  O378  1  0.25631251  0.61921371  0.25661091  1
  O  O379  1  0.25711621  0.61758785  0.75092763  1
  O  O380  1  0.75340178  0.12059534  0.25377111  1
  O  O381  1  0.74884240  0.11778516  0.75608391  1
  O  O382  1  0.75593920  0.61918592  0.25399692  1
  O  O383  1  0.75650763  0.61988751  0.75538955  1
  O  O384  1  0.36930138  0.11897622  0.37020142  1
  O  O385  1  0.37089182  0.11813461  0.87170669  1
  O  O386  1  0.36941674  0.61983560  0.37056703  1
  O  O387  1  0.37500780  0.61858605  0.86890943  1
  O  O388  1  0.86647640  0.12371267  0.36736343  1
  O  O389  1  0.86792354  0.11895874  0.87275220  1
  O  O390  1  0.86893764  0.62296239  0.36528779  1
  O  O391  1  0.86958073  0.61934220  0.86988345  1
  O  O392  1  0.12676898  0.38450750  0.12867672  1
  O  O393  1  0.13241640  0.38160103  0.63119300  1
  O  O394  1  0.13077234  0.88083828  0.12927469  1
  O  O395  1  0.13325262  0.87913342  0.62905346  1
  O  O396  1  0.63065791  0.37208133  0.13214946  1
  O  O397  1  0.63187390  0.38204059  0.62628067  1
  O  O398  1  0.63458494  0.87471211  0.12928991  1
  O  O399  1  0.63028591  0.88092520  0.62935817  1
  O  O400  1  0.11739172  0.24872047  0.25754423  1
  O  O401  1  0.11834191  0.25782599  0.75120635  1
  O  O402  1  0.12564620  0.75687078  0.25917768  1
  O  O403  1  0.11578051  0.75630291  0.75102970  1
  O  O404  1  0.61816711  0.25438709  0.25648326  1
  O  O405  1  0.61675072  0.25059940  0.75655276  1
  O  O406  1  0.62380809  0.75564450  0.25711257  1
  O  O407  1  0.62157456  0.75515672  0.75383411  1
  O  O408  1  0.37926429  0.24401497  0.24727923  1
  O  O409  1  0.37969316  0.24480212  0.74464767  1
  O  O410  1  0.37553167  0.74454295  0.24037927  1
  O  O411  1  0.38041281  0.74588830  0.74259870  1
  O  O412  1  0.88001156  0.24398784  0.24407965  1
  O  O413  1  0.88675178  0.24981233  0.74838133  1
  O  O414  1  0.87431706  0.73631952  0.24790315  1
  O  O415  1  0.88527798  0.74546991  0.75029737  1
  O  O416  1  0.37930304  0.49477636  0.49532760  1
  O  O417  1  0.37543860  0.49361601  0.99333405  1
  O  O418  1  0.38181720  0.99818158  0.49352416  1
  O  O419  1  0.37540283  0.99257809  0.99279812  1
  O  O420  1  0.88532380  0.49269595  0.49909860  1
  O  O421  1  0.87933001  0.49625750  0.99598172  1
  O  O422  1  0.88018381  0.98921322  0.49641281  1
  O  O423  1  0.88310086  0.99932917  0.99261743  1
  O  O424  1  0.12091984  0.00661402  0.00600578  1
  O  O425  1  0.12010528  0.00395024  0.50385944  1
  O  O426  1  0.11961322  0.50775058  0.00684972  1
  O  O427  1  0.11503869  0.49877751  0.50584117  1
  O  O428  1  0.62246199  0.01272209  -0.00086363  1
  O  O429  1  0.61898220  0.00524009  0.50520454  1
  O  O430  1  0.62495149  0.51234184  -0.00036124  1
  O  O431  1  0.61955766  0.50412343  0.50446851  1
  O  O432  1  0.37370028  0.36711401  0.11962747  1
  O  O433  1  0.36972049  0.36957709  0.61980452  1
  O  O434  1  0.37144556  0.86931253  0.11863517  1
  O  O435  1  0.36764834  0.86613391  0.62688126  1
  O  O436  1  0.86952600  0.37028152  0.12066299  1
  O  O437  1  0.86684109  0.37234515  0.61752219  1
  O  O438  1  0.86262915  0.87338119  0.12319705  1
  O  O439  1  0.86986417  0.87560769  0.61383646  1
  O  O440  1  0.13080640  0.12912800  0.38060499  1
  O  O441  1  0.13341779  0.12579838  0.88312256  1
  O  O442  1  0.12994010  0.63556387  0.37397610  1
  O  O443  1  0.12532396  0.62484872  0.88847211  1
  O  O444  1  0.62842172  0.13040249  0.38021335  1
  O  O445  1  0.62879318  0.12960822  0.88207313  1
  O  O446  1  0.62996316  0.62885056  0.37986857  1
  O  O447  1  0.63192652  0.63119317  0.88137298  1
