# generated using pymatgen
data_V3Zn3O8
_symmetry_space_group_name_H-M   'P 1'
_cell_length_a   17.08743573
_cell_length_b   17.08953555
_cell_length_c   17.08833323
_cell_angle_alpha   90.00295274
_cell_angle_beta   90.01059667
_cell_angle_gamma   89.99832741
_symmetry_Int_Tables_number   1
_chemical_formula_structural   V3Zn3O8
_chemical_formula_sum   'V96 Zn96 O256'
_cell_volume   4990.07244197
_cell_formula_units_Z   32
loop_
 _symmetry_equiv_pos_site_id
 _symmetry_equiv_pos_as_xyz
  1  'x, y, z'
loop_
 _atom_site_type_symbol
 _atom_site_label
 _atom_site_symmetry_multiplicity
 _atom_site_fract_x
 _atom_site_fract_y
 _atom_site_fract_z
 _atom_site_occupancy
  V  V0  1  0.12514579  0.49767544  0.12698490  1
  V  V1  1  0.62400730  0.50080303  0.62586843  1
  V  V2  1  0.74978818  0.12753241  0.37585916  1
  V  V3  1  0.50052968  0.25111349  0.25088231  1
  V  V4  1  0.37589309  0.87865880  0.49598661  1
  V  V5  1  0.49979398  0.24943407  0.75066841  1
  V  V6  1  0.87506654  0.24842961  0.12616967  1
  V  V7  1  -0.00078712  0.62351765  0.12550254  1
  V  V8  1  0.87652377  0.87388910  -0.00128658  1
  V  V9  1  0.75098048  0.74894036  -0.00077942  1
  V  V10  1  0.50119648  0.75280445  0.25051655  1
  V  V11  1  -0.00021603  0.50063717  0.49957310  1
  V  V12  1  0.75035613  0.12459114  0.87579650  1
  V  V13  1  0.62526375  0.62424782  -0.00064331  1
  V  V14  1  0.50065077  0.87460037  0.87487515  1
  V  V15  1  0.24964644  0.62603227  0.37466819  1
  V  V16  1  0.62485662  0.12380336  0.00120573  1
  V  V17  1  0.87515605  0.12518596  0.75102470  1
  V  V18  1  0.87522062  0.74867302  0.12406335  1
  V  V19  1  0.87433577  0.12499953  0.25049349  1
  V  V20  1  0.24941508  0.49904593  0.24946998  1
  V  V21  1  0.37353734  0.25125392  0.62494397  1
  V  V22  1  -0.00027715  0.24989325  0.75166334  1
  V  V23  1  0.75114025  -0.00011660  0.75064824  1
  V  V24  1  0.37442179  0.75067062  0.12379670  1
  V  V25  1  0.37385543  0.37474972  0.00062520  1
  V  V26  1  0.50060046  0.12344328  0.12480830  1
  V  V27  1  0.62412235  0.75282495  0.37371167  1
  V  V28  1  0.00129029  -0.00134521  -0.00042281  1
  V  V29  1  0.12590445  0.24877466  0.87680285  1
  V  V30  1  0.12463966  0.87275544  0.75002522  1
  V  V31  1  0.75025115  0.62558384  0.37457058  1
  V  V32  1  0.25174231  0.12478659  0.37494252  1
  V  V33  1  0.12497352  0.24923821  0.37737173  1
  V  V34  1  0.75106023  0.87526799  0.62460309  1
  V  V35  1  0.25005649  0.24948984  0.00052944  1
  V  V36  1  0.87494553  0.37346975  0.00073161  1
  V  V37  1  0.37487914  0.25021224  0.12403268  1
  V  V38  1  0.37429977  0.50094934  0.87480180  1
  V  V39  1  0.62536430  0.00107619  0.62472389  1
  V  V40  1  -0.00105152  0.24925162  0.25103409  1
  V  V41  1  0.87474822  0.62402852  0.25039476  1
  V  V42  1  0.37466865  0.75124264  0.62347735  1
  V  V43  1  0.49962108  0.37486386  0.87571500  1
  V  V44  1  -0.00021208  0.37353847  0.87587683  1
  V  V45  1  0.74863733  0.37547390  0.12617470  1
  V  V46  1  -0.00011114  0.49818353  0.00111161  1
  V  V47  1  0.00124696  0.74913177  0.74985961  1
  V  V48  1  0.87327031  0.25176307  0.62558511  1
  V  V49  1  0.12511473  0.87595967  0.24891578  1
  V  V50  1  0.62567129  0.12732304  0.50007799  1
  V  V51  1  0.12599958  0.12389548  0.00029842  1
  V  V52  1  0.62414614  0.62695908  0.49974596  1
  V  V53  1  0.87561028  0.00064760  0.37478944  1
  V  V54  1  0.12509192  0.37489558  0.74966972  1
  V  V55  1  0.87561777  0.74965857  0.62411800  1
  V  V56  1  0.49909848  0.49997093  0.00018603  1
  V  V57  1  0.00160445  0.12345675  0.62398693  1
  V  V58  1  0.74802639  0.87565748  0.12694553  1
  V  V59  1  0.75035337  0.62450684  0.87454149  1
  V  V60  1  0.00017096  0.87624475  0.37405737  1
  V  V61  1  0.37493593  0.87319606  -0.00050968  1
  V  V62  1  0.00094744  0.62385102  0.62361801  1
  V  V63  1  0.49912550  0.62584622  0.62432477  1
  V  V64  1  0.87659955  0.87603526  0.49891268  1
  V  V65  1  0.49995990  0.75017972  0.74891167  1
  V  V66  1  0.62571995  0.49925675  0.12552929  1
  V  V67  1  0.75038438  0.24908667  0.00082941  1
  V  V68  1  0.12604095  -0.00067633  0.12379274  1
  V  V69  1  -0.00073039  0.37451958  0.37497985  1
  V  V70  1  0.37491088  0.62570619  0.24923584  1
  V  V71  1  0.50085653  0.12539636  0.62555389  1
  V  V72  1  0.25004352  0.87460445  0.12381346  1
  V  V73  1  0.12635994  0.62609260  0.49820745  1
  V  V74  1  0.24870641  0.49881491  0.74801903  1
  V  V75  1  0.87319466  0.37529561  0.50147846  1
  V  V76  1  0.87393334  0.50074904  0.37503075  1
  V  V77  1  0.37515695  0.50149583  0.37502621  1
  V  V78  1  0.62577368  0.74958800  0.87395392  1
  V  V79  1  0.37391153  0.62479346  0.74967627  1
  V  V80  1  0.87485892  0.49873595  0.87483675  1
  V  V81  1  0.87573740  0.62423898  0.74894408  1
  V  V82  1  0.87654185  -0.00126194  0.87573025  1
  V  V83  1  0.25102412  0.87474948  0.62372456  1
  V  V84  1  0.50013569  0.37630978  0.37541162  1
  V  V85  1  0.49878123  0.50135038  0.49960327  1
  V  V86  1  0.49999558  0.62536099  0.12457969  1
  V  V87  1  0.25088232  -0.00021713  0.74941822  1
  V  V88  1  0.62601117  0.87499039  0.74935473  1
  V  V89  1  0.00079885  0.75050335  0.25001989  1
  V  V90  1  0.62459887  0.37612836  0.75000579  1
  V  V91  1  0.74889038  0.49957563  0.74939299  1
  V  V92  1  0.74988885  0.75098554  0.49922169  1
  V  V93  1  0.12605124  0.62530622  -0.00161242  1
  V  V94  1  0.37639706  -0.00047711  0.87466289  1
  V  V95  1  0.62478906  0.24996675  0.87539788  1
  Zn  Zn96  1  0.37132774  0.37651979  0.50187186  1
  Zn  Zn97  1  0.24864226  0.62616224  0.87399543  1
  Zn  Zn98  1  0.12668528  0.12215420  0.50159523  1
  Zn  Zn99  1  0.25026537  0.75227895  0.49697324  1
  Zn  Zn100  1  0.12520912  0.49650130  0.62339829  1
  Zn  Zn101  1  0.12684253  0.75343737  0.37420860  1
  Zn  Zn102  1  0.37769964  0.00306578  0.37235910  1
  Zn  Zn103  1  0.12659924  0.37376941  0.24997847  1
  Zn  Zn104  1  0.74879236  0.25433198  0.50195635  1
  Zn  Zn105  1  0.12593114  0.74771749  0.87446633  1
  Zn  Zn106  1  0.24729026  0.37281805  0.62243472  1
  Zn  Zn107  1  0.37469404  0.12263154  0.25047507  1
  Zn  Zn108  1  0.50190922  0.88117025  0.37272582  1
  Zn  Zn109  1  0.00018384  0.12350038  0.12619159  1
  Zn  Zn110  1  0.62552994  0.25320069  0.37640891  1
  Zn  Zn111  1  0.37559667  0.12476618  0.75008086  1
  Zn  Zn112  1  0.25193181  0.00099927  0.24983118  1
  Zn  Zn113  1  0.12496605  0.00047552  0.62374110  1
  Zn  Zn114  1  0.25186686  0.12570817  0.87473184  1
  Zn  Zn115  1  0.74763860  0.00105379  0.24893385  1
  Zn  Zn116  1  0.25014435  0.74824410  -0.00336469  1
  Zn  Zn117  1  0.74853793  0.49915357  0.25072025  1
  Zn  Zn118  1  0.24900072  0.37353876  0.12701248  1
  Zn  Zn119  1  0.62430573  -0.00156967  0.12597922  1
  Zn  Zn120  1  0.62405113  0.87903490  0.25148043  1
  Zn  Zn121  1  0.62687883  0.37767896  0.25134396  1
  Zn  Zn122  1  0.74870649  0.37500973  0.62443381  1
  Zn  Zn123  1  0.00229379  -0.00044987  0.50065517  1
  Zn  Zn124  1  0.00130340  0.87208684  0.87485601  1
  Zn  Zn125  1  0.24914096  0.25136469  0.50213378  1
  Zn  Zn126  1  0.50175539  -0.00167366  0.00098380  1
  Zn  Zn127  1  0.49973538  0.00197253  0.49633504  1
  Zn  Zn128  1  0.18709571  0.18646350  0.18893016  1
  Zn  Zn129  1  0.18789691  0.18694753  0.69044839  1
  Zn  Zn130  1  0.18739875  0.68818936  0.18616342  1
  Zn  Zn131  1  0.18843326  0.68712247  0.68445131  1
  Zn  Zn132  1  0.68556120  0.18898494  0.18928957  1
  Zn  Zn133  1  0.68834502  0.18891841  0.68779839  1
  Zn  Zn134  1  0.68727904  0.68778147  0.18848976  1
  Zn  Zn135  1  0.68815757  0.68738779  0.68652152  1
  Zn  Zn136  1  0.31279776  0.31226721  0.31224642  1
  Zn  Zn137  1  0.31221106  0.31293787  0.81231872  1
  Zn  Zn138  1  0.31102078  0.81314784  0.31168370  1
  Zn  Zn139  1  0.31049685  0.81002868  0.81394622  1
  Zn  Zn140  1  0.81191993  0.31286963  0.31252038  1
  Zn  Zn141  1  0.81129144  0.31260721  0.81223681  1
  Zn  Zn142  1  0.81371025  0.81175992  0.31167526  1
  Zn  Zn143  1  0.81406124  0.81209062  0.81201139  1
  Zn  Zn144  1  0.18890047  0.43586858  0.43751395  1
  Zn  Zn145  1  0.18830684  0.43683025  0.93744884  1
  Zn  Zn146  1  0.18591195  0.94161623  0.43834012  1
  Zn  Zn147  1  0.18862360  0.93509551  0.93678382  1
  Zn  Zn148  1  0.68701021  0.43954650  0.43894675  1
  Zn  Zn149  1  0.68745159  0.43678175  0.93841405  1
  Zn  Zn150  1  0.68806936  0.93980479  0.43648936  1
  Zn  Zn151  1  0.68785085  0.93814779  0.93964884  1
  Zn  Zn152  1  0.31285609  0.06204584  0.06167860  1
  Zn  Zn153  1  0.31193422  0.06482634  0.56072467  1
  Zn  Zn154  1  0.31053155  0.56165899  0.06407438  1
  Zn  Zn155  1  0.31161811  0.56232021  0.56244533  1
  Zn  Zn156  1  0.81375581  0.06070210  0.06279013  1
  Zn  Zn157  1  0.81398832  0.06304175  0.56173736  1
  Zn  Zn158  1  0.81206883  0.56069277  0.06273333  1
  Zn  Zn159  1  0.81132848  0.56212767  0.56203494  1
  Zn  Zn160  1  0.43675347  0.43713014  0.18765299  1
  Zn  Zn161  1  0.43696957  0.43665937  0.68772011  1
  Zn  Zn162  1  0.43481748  0.93910248  0.18964661  1
  Zn  Zn163  1  0.43837936  0.93779751  0.68463041  1
  Zn  Zn164  1  0.93676439  0.43593429  0.18948027  1
  Zn  Zn165  1  0.93826901  0.43741533  0.68626217  1
  Zn  Zn166  1  0.93679904  0.93893356  0.18730678  1
  Zn  Zn167  1  0.93821955  0.93745244  0.68791684  1
  Zn  Zn168  1  0.06339578  0.06221265  0.31161631  1
  Zn  Zn169  1  0.06344278  0.06151421  0.81375371  1
  Zn  Zn170  1  0.06307329  0.56189364  0.31291912  1
  Zn  Zn171  1  0.06200929  0.56058162  0.81270860  1
  Zn  Zn172  1  0.56376380  0.05965689  0.31134021  1
  Zn  Zn173  1  0.56299096  0.06276046  0.81190211  1
  Zn  Zn174  1  0.56343264  0.56416068  0.31133417  1
  Zn  Zn175  1  0.56088016  0.56284251  0.81233282  1
  Zn  Zn176  1  0.43675335  0.18910686  0.43950060  1
  Zn  Zn177  1  0.43695019  0.18606710  0.93835168  1
  Zn  Zn178  1  0.43700407  0.69127210  0.43607288  1
  Zn  Zn179  1  0.43706236  0.68742755  0.93651512  1
  Zn  Zn180  1  0.93636536  0.18880934  0.44013006  1
  Zn  Zn181  1  0.93932108  0.18500562  0.93966304  1
  Zn  Zn182  1  0.93863202  0.68922783  0.43587571  1
  Zn  Zn183  1  0.93997705  0.68678349  0.93585912  1
  Zn  Zn184  1  0.06313601  0.31079375  0.06523928  1
  Zn  Zn185  1  0.06076198  0.31185626  0.56256428  1
  Zn  Zn186  1  0.06260413  0.81173390  0.06299641  1
  Zn  Zn187  1  0.06300054  0.81196266  0.56211421  1
  Zn  Zn188  1  0.56284301  0.31240972  0.06302828  1
  Zn  Zn189  1  0.56035145  0.31340488  0.56309723  1
  Zn  Zn190  1  0.56227054  0.81145965  0.06153627  1
  Zn  Zn191  1  0.56093637  0.81472042  0.56055276  1
  O  O192  1  0.12385003  0.11781264  0.11786887  1
  O  O193  1  0.11221967  0.12615914  0.62742186  1
  O  O194  1  0.11812044  0.61834461  0.11755137  1
  O  O195  1  0.11957825  0.62272496  0.61403739  1
  O  O196  1  0.61555485  0.12691415  0.11927173  1
  O  O197  1  0.62240914  0.12100040  0.61858091  1
  O  O198  1  0.62005973  0.62059443  0.11785669  1
  O  O199  1  0.61860142  0.62135553  0.61981639  1
  O  O200  1  0.38627296  0.38211703  0.37554915  1
  O  O201  1  0.38121854  0.38105141  0.88051538  1
  O  O202  1  0.37422673  0.87540137  0.38645063  1
  O  O203  1  0.38121106  0.88064517  0.87830857  1
  O  O204  1  0.87959030  0.38074672  0.38121523  1
  O  O205  1  0.87970428  0.37929088  0.88089712  1
  O  O206  1  0.87927925  0.88037287  0.37949215  1
  O  O207  1  0.87541298  0.88092414  0.88081955  1
  O  O208  1  0.24947257  0.01429351  0.37358013  1
  O  O209  1  0.26049463  -0.00330682  0.86579630  1
  O  O210  1  0.25605853  0.50646980  0.36938774  1
  O  O211  1  0.25563836  0.50100805  0.86438830  1
  O  O212  1  0.75647586  0.01218199  0.37448317  1
  O  O213  1  0.75579761  0.00527839  0.87008599  1
  O  O214  1  0.75608425  0.50851672  0.37496418  1
  O  O215  1  0.75503350  0.50516822  0.87016938  1
  O  O216  1  0.24335382  0.49825381  0.13230872  1
  O  O217  1  0.24980261  0.49770227  0.63777350  1
  O  O218  1  0.24348530  0.99243403  0.12396553  1
  O  O219  1  0.25109406  0.99450262  0.63645294  1
  O  O220  1  0.74375787  0.49327357  0.12451245  1
  O  O221  1  0.74200467  0.50090297  0.63230121  1
  O  O222  1  0.75037927  0.98685379  0.12444872  1
  O  O223  1  0.74631160  0.99488104  0.63140461  1
  O  O224  1  -0.00067361  0.36720556  0.25850407  1
  O  O225  1  0.00414035  0.36979940  0.75693201  1
  O  O226  1  0.00425829  0.86963135  0.25373735  1
  O  O227  1  0.00918024  0.86852303  0.74880045  1
  O  O228  1  0.50074763  0.36873086  0.25827303  1
  O  O229  1  0.50571684  0.37038908  0.75714125  1
  O  O230  1  0.50152893  0.86487617  0.24944385  1
  O  O231  1  0.50686433  0.86929568  0.75398045  1
  O  O232  1  0.50034611  0.13537723  0.24130015  1
  O  O233  1  0.50096293  0.13219129  0.74358067  1
  O  O234  1  0.49437178  0.63179025  0.24370557  1
  O  O235  1  0.49462164  0.63054898  0.74392142  1
  O  O236  1  0.99178285  0.13167685  0.24936370  1
  O  O237  1  0.99428720  0.13048301  0.74520861  1
  O  O238  1  0.99454707  0.62974977  0.24466123  1
  O  O239  1  0.99456293  0.62789753  0.74388054  1
  O  O240  1  0.37002633  0.25538306  0.00379157  1
  O  O241  1  0.37587653  0.25283221  0.51439400  1
  O  O242  1  0.37551348  0.75517076  0.00628934  1
  O  O243  1  0.37358204  0.75919904  0.50613028  1
  O  O244  1  0.86981025  0.25400479  0.00508628  1
  O  O245  1  0.87363910  0.25812147  0.50785932  1
  O  O246  1  0.87036031  0.75281142  0.00427975  1
  O  O247  1  0.86945683  0.75529114  0.50509790  1
  O  O248  1  0.12298854  0.24721310  0.48749057  1
  O  O249  1  0.12988740  0.24452306  0.99573791  1
  O  O250  1  0.12640075  0.73765322  0.49789394  1
  O  O251  1  0.12347951  0.73614898  1.00002876  1
  O  O252  1  0.62666249  0.23903175  0.50033085  1
  O  O253  1  0.63106246  0.24477402  0.99418354  1
  O  O254  1  0.63044313  0.74568846  0.49543833  1
  O  O255  1  0.63068839  0.74320504  0.99275534  1
  O  O256  1  0.49588830  0.24376316  0.13147295  1
  O  O257  1  0.49373812  0.24539559  0.63182973  1
  O  O258  1  0.49509856  0.74380501  0.13008517  1
  O  O259  1  0.49550741  0.74519628  0.63036029  1
  O  O260  1  0.99231063  0.24781434  0.13210187  1
  O  O261  1  0.99328737  0.24271972  0.63290156  1
  O  O262  1  0.99361795  0.74336525  0.12993341  1
  O  O263  1  0.99390532  0.74324773  0.62976529  1
  O  O264  1  0.00583678  0.25406793  0.37108017  1
  O  O265  1  0.00483588  0.25463206  0.87130614  1
  O  O266  1  0.00059132  0.75797732  0.36693427  1
  O  O267  1  0.00274818  0.75133319  0.86507129  1
  O  O268  1  0.49953355  0.25921600  0.36765949  1
  O  O269  1  0.50525856  0.25522060  0.87107968  1
  O  O270  1  0.50648050  0.75173825  0.36667843  1
  O  O271  1  0.50648811  0.75453937  0.86825663  1
  O  O272  1  0.24669065  0.13089613  0.49044199  1
  O  O273  1  0.24416132  0.13127567  0.99697981  1
  O  O274  1  0.24085655  0.62452216  0.49449478  1
  O  O275  1  0.23726411  0.62329574  0.99921646  1
  O  O276  1  0.74303632  0.12726822  0.49266526  1
  O  O277  1  0.74585680  0.13016684  0.99494707  1
  O  O278  1  0.74423238  0.63187777  0.49516713  1
  O  O279  1  0.74545249  0.62927912  0.99365253  1
  O  O280  1  0.25696107  0.36824276  0.00139009  1
  O  O281  1  0.25382755  0.37071223  0.50440387  1
  O  O282  1  0.25697394  0.87154993  0.00559488  1
  O  O283  1  0.25774964  0.87476041  0.50601267  1
  O  O284  1  0.75586798  0.36838162  0.00439692  1
  O  O285  1  0.75665986  0.37491948  0.50337981  1
  O  O286  1  0.75613082  0.86783658  0.00622972  1
  O  O287  1  0.75603096  0.87009205  0.50565147  1
  O  O288  1  0.13098664  0.49925404  0.24448827  1
  O  O289  1  0.13301674  0.49445695  0.74944319  1
  O  O290  1  0.12572057  0.99297696  0.24115653  1
  O  O291  1  0.13470307  0.99073245  0.74991129  1
  O  O292  1  0.62711109  0.49968356  0.24094053  1
  O  O293  1  0.62877633  0.49609742  0.74579837  1
  O  O294  1  0.63080970  0.99621099  0.24372124  1
  O  O295  1  0.63216757  0.99424537  0.74550363  1
  O  O296  1  0.36959973  0.00498603  0.25399785  1
  O  O297  1  0.36740178  -0.00294104  0.75776124  1
  O  O298  1  0.37068745  0.50729524  0.25472039  1
  O  O299  1  0.36824349  0.50435801  0.75481634  1
  O  O300  1  0.87163110  0.00720106  0.25657831  1
  O  O301  1  0.86947663  0.00494576  0.75578591  1
  O  O302  1  0.87376075  0.50693855  0.25718408  1
  O  O303  1  0.86997945  0.50498987  0.75555187  1
  O  O304  1  0.11772057  0.36580003  0.37417445  1
  O  O305  1  0.11811626  0.36904860  0.87077293  1
  O  O306  1  0.11834556  0.87512325  0.36767598  1
  O  O307  1  0.12446249  0.87223359  0.86106421  1
  O  O308  1  0.61263363  0.37568524  0.37445317  1
  O  O309  1  0.61912073  0.36973734  0.87091365  1
  O  O310  1  0.62508223  0.86718820  0.37370997  1
  O  O311  1  0.62175070  0.86910613  0.86925041  1
  O  O312  1  0.38578204  0.13221816  0.12339010  1
  O  O313  1  0.38218306  0.13354789  0.62747226  1
  O  O314  1  0.38099166  0.62978314  0.12953990  1
  O  O315  1  0.38057710  0.63059078  0.63005485  1
  O  O316  1  0.87467320  0.13137955  0.13167528  1
  O  O317  1  0.88148825  0.13038907  0.63238753  1
  O  O318  1  0.87980372  0.62903030  0.12916751  1
  O  O319  1  0.88010622  0.63014997  0.62946105  1
  O  O320  1  0.25697503  0.25045952  0.11894113  1
  O  O321  1  0.26112560  0.24962956  0.62777427  1
  O  O322  1  0.25757000  0.75584195  0.12212336  1
  O  O323  1  0.25811985  0.75688293  0.62313317  1
  O  O324  1  0.75481013  0.25491343  0.11945154  1
  O  O325  1  0.75833924  0.25359327  0.62502837  1
  O  O326  1  0.75579420  0.75494825  0.11807015  1
  O  O327  1  0.75570253  0.75521709  0.61945371  1
  O  O328  1  0.24034685  0.24429010  0.37467953  1
  O  O329  1  0.24372421  0.24884528  0.88127155  1
  O  O330  1  0.24716320  0.74093466  0.37626918  1
  O  O331  1  0.24499191  0.74344373  0.87841219  1
  O  O332  1  0.74772104  0.23928554  0.37815380  1
  O  O333  1  0.74482983  0.24422231  0.88069549  1
  O  O334  1  0.74565709  0.74501044  0.38079594  1
  O  O335  1  0.74554234  0.74377627  0.87888243  1
  O  O336  1  0.00752389  0.11689503  0.00226256  1
  O  O337  1  -0.00141412  0.12489524  0.51416756  1
  O  O338  1  0.00546509  0.61750171  0.00573624  1
  O  O339  1  0.00705419  0.62081212  0.50307117  1
  O  O340  1  0.50640485  0.12605067  0.00971973  1
  O  O341  1  0.51095079  0.12584943  0.50656486  1
  O  O342  1  0.50589884  0.61978225  0.00443670  1
  O  O343  1  0.50466721  0.62156320  0.50501095  1
  O  O344  1  0.49870881  0.38260274  0.49088154  1
  O  O345  1  0.49461918  0.38040026  0.99447469  1
  O  O346  1  0.48881735  0.87773947  0.49857069  1
  O  O347  1  0.49425164  0.87553137  0.99245824  1
  O  O348  1  0.99361515  0.38134061  0.49453113  1
  O  O349  1  0.99406215  0.37854500  0.99526360  1
  O  O350  1  0.99296942  0.87434489  0.49360680  1
  O  O351  1  0.99396422  0.87964291  0.99791164  1
  O  O352  1  0.49528045  0.49527938  0.37911119  1
  O  O353  1  0.49476193  0.49489715  0.88060596  1
  O  O354  1  0.49636672  0.99853486  0.37899096  1
  O  O355  1  0.49168002  0.99315154  0.87316728  1
  O  O356  1  0.99349140  0.49521114  0.38045340  1
  O  O357  1  0.99335074  0.49293276  0.88050806  1
  O  O358  1  0.99261177  0.99383204  0.37572111  1
  O  O359  1  0.99344864  0.99697622  0.88083986  1
  O  O360  1  0.00688735  0.00020641  0.11705237  1
  O  O361  1  -0.00021466  0.01265603  0.62714389  1
  O  O362  1  0.00354200  0.50428674  0.12003337  1
  O  O363  1  0.00106749  0.50698318  0.61791726  1
  O  O364  1  0.49981993  0.01301887  0.12313921  1
  O  O365  1  0.50868765  0.00728869  0.62421459  1
  O  O366  1  0.50438800  0.50600982  0.11883688  1
  O  O367  1  0.50413693  0.50673788  0.62053328  1
  O  O368  1  0.24910454  0.38403389  0.24846219  1
  O  O369  1  0.24379084  0.38424483  0.75022475  1
  O  O370  1  0.24249001  0.87561295  0.24174716  1
  O  O371  1  0.24399540  0.88124593  0.74443766  1
  O  O372  1  0.74736924  0.37734261  0.24247713  1
  O  O373  1  0.74247367  0.38260525  0.75037320  1
  O  O374  1  0.75088503  0.87309500  0.23655723  1
  O  O375  1  0.74571672  0.87951050  0.74428404  1
  O  O376  1  0.25234841  0.12551174  0.26130508  1
  O  O377  1  0.25186165  0.11121626  0.75337643  1
  O  O378  1  0.25561924  0.61957167  0.25423539  1
  O  O379  1  0.25510678  0.61516716  0.74946060  1
  O  O380  1  0.75493406  0.12692313  0.26044565  1
  O  O381  1  0.75520069  0.11946560  0.75649996  1
  O  O382  1  0.75745756  0.62491368  0.25667531  1
  O  O383  1  0.75551320  0.61997946  0.75517872  1
  O  O384  1  0.36345779  0.12865768  0.37489415  1
  O  O385  1  0.37503339  0.11228541  0.87277994  1
  O  O386  1  0.37056662  0.62063441  0.36883661  1
  O  O387  1  0.37541068  0.61790386  0.86721640  1
  O  O388  1  0.86735139  0.12175956  0.37169754  1
  O  O389  1  0.86967966  0.11943476  0.87078792  1
  O  O390  1  0.87008030  0.62079257  0.37053714  1
  O  O391  1  0.87001763  0.61845494  0.86924248  1
  O  O392  1  0.12677877  0.38238984  0.12831674  1
  O  O393  1  0.12516747  0.37600374  0.63409794  1
  O  O394  1  0.13027252  0.87963881  0.12854698  1
  O  O395  1  0.13079858  0.87499392  0.63569812  1
  O  O396  1  0.63097879  0.38165098  0.12428881  1
  O  O397  1  0.62373797  0.38316220  0.63226446  1
  O  O398  1  0.63762521  0.87277459  0.12350726  1
  O  O399  1  0.63153348  0.87994044  0.62982219  1
  O  O400  1  0.11762553  0.25098349  0.26048848  1
  O  O401  1  0.11903083  0.25494213  0.75761188  1
  O  O402  1  0.11735624  0.75665366  0.24938497  1
  O  O403  1  0.11979383  0.75715280  0.74820829  1
  O  O404  1  0.61151731  0.25396799  0.25238423  1
  O  O405  1  0.62022632  0.25588698  0.75656203  1
  O  O406  1  0.61772356  0.75034408  0.25581746  1
  O  O407  1  0.62085034  0.75509742  0.75437353  1
  O  O408  1  0.38716856  0.24990617  0.24373541  1
  O  O409  1  0.38162348  0.24797684  0.74394722  1
  O  O410  1  0.38139834  0.74454219  0.24353312  1
  O  O411  1  0.38124429  0.74536226  0.74413927  1
  O  O412  1  0.87946406  0.24443428  0.24552383  1
  O  O413  1  0.88035126  0.24467116  0.74730838  1
  O  O414  1  0.88116208  0.74335474  0.24349834  1
  O  O415  1  0.87961541  0.74346699  0.74349663  1
  O  O416  1  0.38209585  0.50088771  0.49334457  1
  O  O417  1  0.38028581  0.49575238  0.99510159  1
  O  O418  1  0.37626698  0.98955417  0.49965106  1
  O  O419  1  0.37682902  0.99296380  0.98893235  1
  O  O420  1  0.88044775  0.49650473  0.49454724  1
  O  O421  1  0.88005812  0.49362102  0.99440811  1
  O  O422  1  0.87688246  0.99295447  0.49359846  1
  O  O423  1  0.88080748  0.99393695  0.99448821  1
  O  O424  1  0.12097789  0.00335201  0.00339600  1
  O  O425  1  0.11932433  0.00427651  0.50701378  1
  O  O426  1  0.11859955  0.50554499  0.00545823  1
  O  O427  1  0.11882159  0.50993967  0.49977936  1
  O  O428  1  0.62194764  0.00811240  0.00275661  1
  O  O429  1  0.62680734  0.01177050  0.50700788  1
  O  O430  1  0.61899816  0.50534932  0.00417719  1
  O  O431  1  0.61845418  0.50836863  0.50598384  1
  O  O432  1  0.37561291  0.36815982  0.11720062  1
  O  O433  1  0.37523539  0.36312823  0.62575328  1
  O  O434  1  0.37034558  0.86983916  0.11833258  1
  O  O435  1  0.37081907  0.87047794  0.61711184  1
  O  O436  1  0.86942597  0.36889485  0.11916441  1
  O  O437  1  0.87437392  0.36968585  0.61973504  1
  O  O438  1  0.86785025  0.86805380  0.11843758  1
  O  O439  1  0.87009577  0.86927784  0.62032618  1
  O  O440  1  0.13128802  0.13457951  0.37494870  1
  O  O441  1  0.12697638  0.13123527  0.88175420  1
  O  O442  1  0.12967995  0.62594834  0.38391093  1
  O  O443  1  0.12344876  0.62258279  0.88757398  1
  O  O444  1  0.63337289  0.12646428  0.38421596  1
  O  O445  1  0.63081135  0.13059012  0.88001145  1
  O  O446  1  0.62996223  0.63165546  0.38117319  1
  O  O447  1  0.63040866  0.62976811  0.87925344  1
