# generated using pymatgen
data_V3Zn3O8
_symmetry_space_group_name_H-M   'P 1'
_cell_length_a   17.08476826
_cell_length_b   17.08473488
_cell_length_c   17.08601670
_cell_angle_alpha   90.00142930
_cell_angle_beta   89.99580365
_cell_angle_gamma   89.99272998
_symmetry_Int_Tables_number   1
_chemical_formula_structural   V3Zn3O8
_chemical_formula_sum   'V96 Zn96 O256'
_cell_volume   4987.21576525
_cell_formula_units_Z   32
loop_
 _symmetry_equiv_pos_site_id
 _symmetry_equiv_pos_as_xyz
  1  'x, y, z'
loop_
 _atom_site_type_symbol
 _atom_site_label
 _atom_site_symmetry_multiplicity
 _atom_site_fract_x
 _atom_site_fract_y
 _atom_site_fract_z
 _atom_site_occupancy
  V  V0  1  0.25010520  0.50011760  0.74993004  1
  V  V1  1  0.24959017  0.74913014  0.00075763  1
  V  V2  1  0.62503487  0.50046738  0.62408458  1
  V  V3  1  0.12465828  0.37438022  0.24876699  1
  V  V4  1  0.12607533  0.12439562  0.00009841  1
  V  V5  1  0.75106276  0.75075558  0.49999665  1
  V  V6  1  0.25225118  0.00057212  0.75034731  1
  V  V7  1  0.62534635  0.12523261  0.00049381  1
  V  V8  1  0.49860520  0.37404949  0.37468690  1
  V  V9  1  0.87419904  0.37608997  0.49925322  1
  V  V10  1  0.12449274  0.62411333  0.00076592  1
  V  V11  1  0.24788855  0.62473551  0.37645664  1
  V  V12  1  0.74984968  0.75086720  0.00027361  1
  V  V13  1  0.87688298  0.00083375  0.87476964  1
  V  V14  1  0.75146846  0.00033993  0.74969786  1
  V  V15  1  0.75073953  0.87422901  0.12572793  1
  V  V16  1  0.62695931  -0.00018857  0.62565348  1
  V  V17  1  -0.00145517  0.87496605  0.37642800  1
  V  V18  1  0.37322408  0.49917894  0.37567721  1
  V  V19  1  0.62673087  0.87550001  0.75058416  1
  V  V20  1  0.75066288  0.00025960  0.24999618  1
  V  V21  1  0.37562976  0.12376162  0.25034693  1
  V  V22  1  0.62328582  0.37562417  0.24851726  1
  V  V23  1  0.87381986  0.50013079  0.37399991  1
  V  V24  1  0.24943967  0.62481865  0.87609519  1
  V  V25  1  0.12537592  0.25001097  0.87522458  1
  V  V26  1  0.50197640  0.00002456  0.50080059  1
  V  V27  1  0.37491692  0.50025500  0.87456369  1
  V  V28  1  0.49931718  0.49961856  0.49983102  1
  V  V29  1  0.75054776  0.12510486  0.37433543  1
  V  V30  1  0.37423657  0.37369542  0.50086063  1
  V  V31  1  0.24915916  0.87450033  0.12575114  1
  V  V32  1  0.37596025  -0.00040422  0.37420915  1
  V  V33  1  0.37616741  0.12495132  0.75113053  1
  V  V34  1  0.87503357  0.37757935  -0.00087086  1
  V  V35  1  0.50157693  0.25071378  0.75013909  1
  V  V36  1  -0.00123646  0.50060171  0.50102421  1
  V  V37  1  -0.00038905  0.62609209  0.62665462  1
  V  V38  1  0.37353860  0.37452216  0.00037959  1
  V  V39  1  0.62312869  0.49881161  0.12434653  1
  V  V40  1  0.62494484  0.37608102  0.74982694  1
  V  V41  1  0.49931149  0.62565530  0.62458435  1
  V  V42  1  0.50012139  0.37533519  0.87370969  1
  V  V43  1  0.50174530  0.12476950  0.12451539  1
  V  V44  1  -0.00083104  0.12476006  0.12545236  1
  V  V45  1  0.12422761  0.87454840  0.25097290  1
  V  V46  1  0.37534317  0.87449682  0.50069369  1
  V  V47  1  0.37495942  0.62576672  0.75010537  1
  V  V48  1  0.00180501  0.12478650  0.62398550  1
  V  V49  1  0.25045455  0.24963800  0.00093453  1
  V  V50  1  0.62524247  0.87364502  0.24907685  1
  V  V51  1  0.12625340  0.24743289  0.37683210  1
  V  V52  1  0.75192267  0.12524412  0.87509582  1
  V  V53  1  0.25180303  0.87595125  0.62604179  1
  V  V54  1  0.12423223  0.49920708  0.62539921  1
  V  V55  1  -0.00006282  0.75068606  0.74912559  1
  V  V56  1  0.00033630  0.00005882  0.49999257  1
  V  V57  1  0.50142058  0.75173930  0.75107782  1
  V  V58  1  0.87316521  0.62281872  0.25015616  1
  V  V59  1  0.74835219  0.25011066  0.49875541  1
  V  V60  1  0.25088033  -0.00002237  0.25123328  1
  V  V61  1  0.87619945  0.25060352  0.12691314  1
  V  V62  1  0.25136986  0.12461714  0.87457138  1
  V  V63  1  0.37709185  0.87682948  -0.00089254  1
  V  V64  1  0.49872922  0.74934092  0.25007740  1
  V  V65  1  0.49852532  0.50039339  -0.00135862  1
  V  V66  1  0.62406085  0.62492362  0.49801997  1
  V  V67  1  0.24779467  0.49869848  0.25026400  1
  V  V68  1  0.12421832  -0.00078746  0.12564941  1
  V  V69  1  0.12504954  0.62484627  0.50036592  1
  V  V70  1  0.75061718  0.62576393  0.87363994  1
  V  V71  1  0.37376941  0.74949266  0.12585546  1
  V  V72  1  0.75066196  0.25082350  -0.00101853  1
  V  V73  1  0.50158524  0.12444770  0.62570346  1
  V  V74  1  0.00160885  0.87635639  0.87437704  1
  V  V75  1  0.37502540  0.75089555  0.62537903  1
  V  V76  1  0.00052045  -0.00117042  -0.00069260  1
  V  V77  1  0.49960533  0.87459801  0.37464838  1
  V  V78  1  0.12669666  0.87713403  0.74933579  1
  V  V79  1  0.37375936  0.24961898  0.12496532  1
  V  V80  1  0.62532971  0.75207395  0.87463345  1
  V  V81  1  0.62443103  0.74811193  0.37445254  1
  V  V82  1  0.75163812  0.50175615  0.74938190  1
  V  V83  1  0.12463028  0.74942150  0.37630418  1
  V  V84  1  0.00011489  0.62418735  0.12406475  1
  V  V85  1  0.37547392  0.25022363  0.62515846  1
  V  V86  1  0.87525178  0.24987351  0.62590065  1
  V  V87  1  0.49791299  0.62464609  0.12449428  1
  V  V88  1  -0.00004651  0.37519316  0.87500151  1
  V  V89  1  -0.00001691  0.37433976  0.37481893  1
  V  V90  1  0.49938751  0.24988796  0.25048621  1
  V  V91  1  0.87351001  0.74882400  0.12460885  1
  V  V92  1  0.25036365  0.37387275  0.62455795  1
  V  V93  1  0.62388403  0.62554171  -0.00065139  1
  V  V94  1  0.37234018  0.62417150  0.25042353  1
  V  V95  1  0.12454965  0.37411955  0.75016951  1
  Zn  Zn96  1  0.87551342  0.00037797  0.37535567  1
  Zn  Zn97  1  0.50161231  0.87853509  0.87637729  1
  Zn  Zn98  1  -0.00147631  0.75059577  0.25098307  1
  Zn  Zn99  1  0.62657613  0.25113605  0.87390705  1
  Zn  Zn100  1  0.25057803  0.12416472  0.37758292  1
  Zn  Zn101  1  -0.00102411  0.24687859  0.25192192  1
  Zn  Zn102  1  0.12854665  0.00253948  0.62357301  1
  Zn  Zn103  1  0.75384551  0.87595279  0.62437415  1
  Zn  Zn104  1  0.24825762  0.37508702  0.12448063  1
  Zn  Zn105  1  0.87632932  0.12479728  0.75055416  1
  Zn  Zn106  1  0.87510450  0.12551122  0.24963955  1
  Zn  Zn107  1  0.50166357  -0.00002726  0.00019680  1
  Zn  Zn108  1  0.25000790  0.75025649  0.50156999  1
  Zn  Zn109  1  0.37848801  0.00115109  0.87650492  1
  Zn  Zn110  1  0.00002434  0.24825192  0.75006528  1
  Zn  Zn111  1  0.87441184  0.87379112  0.50106079  1
  Zn  Zn112  1  0.12539642  0.75065183  0.87514900  1
  Zn  Zn113  1  0.25077776  0.24586724  0.50040396  1
  Zn  Zn114  1  0.62507610  -0.00026145  0.12463886  1
  Zn  Zn115  1  0.87663457  0.62606656  0.75074446  1
  Zn  Zn116  1  0.62551977  0.12478106  0.50054240  1
  Zn  Zn117  1  0.74799380  0.49845069  0.24907186  1
  Zn  Zn118  1  0.62366060  0.25023571  0.37500698  1
  Zn  Zn119  1  0.12481475  0.49801541  0.12417354  1
  Zn  Zn120  1  0.74957560  0.37597258  0.62487093  1
  Zn  Zn121  1  0.12841271  0.12488096  0.49917129  1
  Zn  Zn122  1  0.87416440  0.75127036  0.62459483  1
  Zn  Zn123  1  0.74793700  0.62225548  0.37370982  1
  Zn  Zn124  1  0.74914719  0.37703127  0.12473533  1
  Zn  Zn125  1  0.87617916  0.50250048  0.87413258  1
  Zn  Zn126  1  0.00003185  0.50108695  -0.00163517  1
  Zn  Zn127  1  0.87616143  0.87446428  0.00046493  1
  Zn  Zn128  1  0.18832330  0.18643719  0.18884878  1
  Zn  Zn129  1  0.18773706  0.18796257  0.68783228  1
  Zn  Zn130  1  0.18531970  0.68831699  0.18927604  1
  Zn  Zn131  1  0.18670903  0.68922067  0.68771183  1
  Zn  Zn132  1  0.68815648  0.19053084  0.18636957  1
  Zn  Zn133  1  0.68774122  0.18591478  0.68851299  1
  Zn  Zn134  1  0.68711182  0.68588450  0.18650243  1
  Zn  Zn135  1  0.68709989  0.68803570  0.68566908  1
  Zn  Zn136  1  0.31053325  0.31111688  0.31272340  1
  Zn  Zn137  1  0.31262741  0.31165621  0.81223896  1
  Zn  Zn138  1  0.31079291  0.81205506  0.31436610  1
  Zn  Zn139  1  0.31200475  0.81194889  0.81415774  1
  Zn  Zn140  1  0.81015152  0.31485460  0.31121052  1
  Zn  Zn141  1  0.81188150  0.31276600  0.81211993  1
  Zn  Zn142  1  0.81313238  0.81033799  0.31374716  1
  Zn  Zn143  1  0.81452833  0.81506721  0.81312052  1
  Zn  Zn144  1  0.18724273  0.43585061  0.43819898  1
  Zn  Zn145  1  0.18744530  0.43783043  0.93774296  1
  Zn  Zn146  1  0.18743437  0.93797370  0.43907637  1
  Zn  Zn147  1  0.18899150  0.93792477  0.93585244  1
  Zn  Zn148  1  0.68742163  0.43748611  0.43441371  1
  Zn  Zn149  1  0.68758100  0.43809196  0.93585212  1
  Zn  Zn150  1  0.68590580  0.93649712  0.43675710  1
  Zn  Zn151  1  0.69015514  0.93845188  0.93754730  1
  Zn  Zn152  1  0.31249428  0.06200346  0.06437632  1
  Zn  Zn153  1  0.31376872  0.06339286  0.56171502  1
  Zn  Zn154  1  0.30996622  0.56004360  0.06423162  1
  Zn  Zn155  1  0.31166434  0.56193316  0.56287727  1
  Zn  Zn156  1  0.81306089  0.06210210  0.06182684  1
  Zn  Zn157  1  0.81466725  0.06190989  0.56158722  1
  Zn  Zn158  1  0.80935549  0.56118571  0.06250272  1
  Zn  Zn159  1  0.81311991  0.56722766  0.56385691  1
  Zn  Zn160  1  0.43595143  0.43685090  0.18655270  1
  Zn  Zn161  1  0.43771156  0.43776983  0.68703484  1
  Zn  Zn162  1  0.43919041  0.93894743  0.18494254  1
  Zn  Zn163  1  0.43902432  0.93798077  0.68906312  1
  Zn  Zn164  1  0.94039038  0.43805396  0.18737722  1
  Zn  Zn165  1  0.93654595  0.43624006  0.68745039  1
  Zn  Zn166  1  0.93583229  0.93743985  0.18824988  1
  Zn  Zn167  1  0.93516956  0.93603792  0.68524081  1
  Zn  Zn168  1  0.06168697  0.06274868  0.31121078  1
  Zn  Zn169  1  0.06393409  0.06255095  0.80998758  1
  Zn  Zn170  1  0.06045158  0.56139908  0.31285010  1
  Zn  Zn171  1  0.06298695  0.56224253  0.81333386  1
  Zn  Zn172  1  0.56485961  0.06309823  0.31344050  1
  Zn  Zn173  1  0.56299082  0.06069409  0.81558144  1
  Zn  Zn174  1  0.55988753  0.56141244  0.31219745  1
  Zn  Zn175  1  0.56382579  0.56385301  0.81210386  1
  Zn  Zn176  1  0.43746573  0.18627861  0.43824106  1
  Zn  Zn177  1  0.43908497  0.18894765  0.93694046  1
  Zn  Zn178  1  0.43588833  0.68763216  0.43765976  1
  Zn  Zn179  1  0.43749994  0.69008840  0.93636444  1
  Zn  Zn180  1  0.93682622  0.18716955  0.43760406  1
  Zn  Zn181  1  0.93818519  0.18787743  0.93908179  1
  Zn  Zn182  1  0.93724212  0.68685315  0.43711235  1
  Zn  Zn183  1  0.93636924  0.68925044  0.93541319  1
  Zn  Zn184  1  0.06131839  0.31101721  0.06228384  1
  Zn  Zn185  1  0.06199253  0.31245436  0.56061939  1
  Zn  Zn186  1  0.06144277  0.81057773  0.06239531  1
  Zn  Zn187  1  0.06559312  0.81324921  0.56402450  1
  Zn  Zn188  1  0.56049276  0.31101987  0.06208099  1
  Zn  Zn189  1  0.56313379  0.31284409  0.56358897  1
  Zn  Zn190  1  0.56303877  0.81188780  0.06401997  1
  Zn  Zn191  1  0.56486559  0.81378487  0.56384035  1
  O  O192  1  0.12014035  0.11893830  0.11990232  1
  O  O193  1  0.11331336  0.12647322  0.62223385  1
  O  O194  1  0.11624439  0.62560475  0.11853723  1
  O  O195  1  0.12037637  0.61820752  0.62059836  1
  O  O196  1  0.62106128  0.12705344  0.11557084  1
  O  O197  1  0.61878826  0.11811181  0.62389323  1
  O  O198  1  0.61675895  0.62018591  0.11891669  1
  O  O199  1  0.61752995  0.61983099  0.61837681  1
  O  O200  1  0.37892564  0.38019274  0.38007880  1
  O  O201  1  0.37973596  0.38116343  0.87977488  1
  O  O202  1  0.38115788  0.87935976  0.37978445  1
  O  O203  1  0.37506110  0.87421377  0.88905446  1
  O  O204  1  0.88039577  0.37973983  0.37936794  1
  O  O205  1  0.88327419  0.37343172  0.88377607  1
  O  O206  1  0.88823526  0.87485377  0.37645792  1
  O  O207  1  0.88377711  0.88299691  0.87770434  1
  O  O208  1  0.25766775  -0.00125614  0.36813206  1
  O  O209  1  0.25339839  0.00784131  0.86891233  1
  O  O210  1  0.25428701  0.50487039  0.37032752  1
  O  O211  1  0.25567587  0.50508231  0.86935577  1
  O  O212  1  0.75064159  0.00757291  0.36815369  1
  O  O213  1  0.75756242  0.00591060  0.87025291  1
  O  O214  1  0.75813004  0.50269720  0.37113590  1
  O  O215  1  0.74877450  0.50697095  0.86431724  1
  O  O216  1  0.24576929  0.49620273  0.13448680  1
  O  O217  1  0.24436873  0.49436210  0.63128410  1
  O  O218  1  0.24362606  0.99389795  0.13124540  1
  O  O219  1  0.25126305  0.99401309  0.63223613  1
  O  O220  1  0.73872025  0.49690783  0.12668450  1
  O  O221  1  0.74383749  0.50088807  0.63292998  1
  O  O222  1  0.74961632  0.99463976  0.13489977  1
  O  O223  1  0.74465723  1.00076444  0.63066150  1
  O  O224  1  0.00957363  0.37406674  0.25621308  1
  O  O225  1  0.00565547  0.37305503  0.75858503  1
  O  O226  1  0.00566194  0.87533726  0.25994581  1
  O  O227  1  0.00674062  0.86923641  0.75365915  1
  O  O228  1  0.50371837  0.36983398  0.25493939  1
  O  O229  1  0.50486317  0.37125680  0.75447217  1
  O  O230  1  0.50442801  0.86864547  0.25417863  1
  O  O231  1  0.50744856  0.86828748  0.75187384  1
  O  O232  1  0.49602527  0.13013980  0.24525904  1
  O  O233  1  0.49620728  0.13084567  0.74557980  1
  O  O234  1  0.49177195  0.62968582  0.24434466  1
  O  O235  1  0.49476257  0.63044975  0.74424044  1
  O  O236  1  0.99497951  0.12637660  0.24154608  1
  O  O237  1  0.99798267  0.12747995  0.73787096  1
  O  O238  1  0.99105416  0.62530784  0.24137322  1
  O  O239  1  1.00222462  0.63433293  0.74613036  1
  O  O240  1  0.36993102  0.25508266  0.00501877  1
  O  O241  1  0.37551245  0.25668417  0.50737791  1
  O  O242  1  0.36912327  0.75625503  0.00676885  1
  O  O243  1  0.37431215  0.75642452  0.50715975  1
  O  O244  1  0.87173250  0.25882283  0.00766934  1
  O  O245  1  0.86703627  0.25543129  0.50639524  1
  O  O246  1  0.86732094  0.75074320  0.00674930  1
  O  O247  1  0.86252227  0.74848581  0.49895926  1
  O  O248  1  0.12651936  0.25086116  0.48788483  1
  O  O249  1  0.13039558  0.24393778  0.99514579  1
  O  O250  1  0.12727041  0.74216947  0.49460352  1
  O  O251  1  0.13095400  0.73961349  0.99984988  1
  O  O252  1  0.63714549  0.24935328  0.49943650  1
  O  O253  1  0.63114916  0.24175587  0.99882695  1
  O  O254  1  0.63005686  0.74456686  0.49392098  1
  O  O255  1  0.62994909  0.74426953  0.99545201  1
  O  O256  1  0.49268747  0.24428844  0.13090164  1
  O  O257  1  0.49532149  0.24506336  0.63086345  1
  O  O258  1  0.49363414  0.74342497  0.13109091  1
  O  O259  1  0.49518279  0.74455998  0.63080754  1
  O  O260  1  0.99061221  0.24355752  0.12479946  1
  O  O261  1  0.99055396  0.24266492  0.62181722  1
  O  O262  1  0.99377011  0.73905995  0.12622088  1
  O  O263  1  1.00236686  0.74479698  0.63470260  1
  O  O264  1  0.00763415  0.25618875  0.37399313  1
  O  O265  1  0.00630780  0.25889729  0.87459356  1
  O  O266  1  0.00611872  0.75936687  0.37519060  1
  O  O267  1  0.00264467  0.75660643  0.86568733  1
  O  O268  1  0.50045582  0.25624043  0.36867814  1
  O  O269  1  0.50135810  0.25821646  0.86749961  1
  O  O270  1  0.50355427  0.75477352  0.36899936  1
  O  O271  1  0.50749531  0.75180943  0.86848393  1
  O  O272  1  0.24654672  0.12734062  0.49602619  1
  O  O273  1  0.24507967  0.12977009  0.99541513  1
  O  O274  1  0.24296760  0.62439273  0.49416660  1
  O  O275  1  0.24339564  0.62913365  0.99680163  1
  O  O276  1  0.75108068  0.13357492  0.49160877  1
  O  O277  1  0.74347601  0.13084021  0.99578580  1
  O  O278  1  0.74194208  0.63311028  0.49740970  1
  O  O279  1  0.74277752  0.63042462  0.99468716  1
  O  O280  1  0.25562125  0.36807342  0.00040675  1
  O  O281  1  0.25710453  0.37447025  0.50750347  1
  O  O282  1  0.25619188  0.86942182  0.00664518  1
  O  O283  1  0.25771762  0.87430638  0.50702591  1
  O  O284  1  0.75936575  0.37029172  -0.00054263  1
  O  O285  1  0.75523868  0.36566726  0.50020520  1
  O  O286  1  0.75149042  0.86842225  0.00767376  1
  O  O287  1  0.74978382  0.86264892  0.49810461  1
  O  O288  1  0.12881931  0.48934277  0.25177503  1
  O  O289  1  0.13076246  0.49408820  0.74507483  1
  O  O290  1  0.13051604  0.99398780  0.24447443  1
  O  O291  1  0.13396148  0.99465964  0.74704977  1
  O  O292  1  0.62060391  0.49186599  0.24290036  1
  O  O293  1  0.63209971  0.49690548  0.74392395  1
  O  O294  1  0.63601715  0.99322788  0.24986941  1
  O  O295  1  0.63162667  0.99525371  0.74563856  1
  O  O296  1  0.37103212  0.00362865  0.25457160  1
  O  O297  1  0.37010183  0.00745915  0.75179383  1
  O  O298  1  0.36907760  0.50478308  0.25606969  1
  O  O299  1  0.37001566  0.50597106  0.75466474  1
  O  O300  1  0.86145544  0.00127655  0.25256718  1
  O  O301  1  0.86952590  0.00188551  0.75666456  1
  O  O302  1  0.87517512  0.50790154  0.25386790  1
  O  O303  1  0.86280201  0.50054770  0.75079282  1
  O  O304  1  0.12028737  0.36779230  0.36806433  1
  O  O305  1  0.11849872  0.37029934  0.87110853  1
  O  O306  1  0.11742487  0.87027712  0.37077958  1
  O  O307  1  0.11992241  0.87386812  0.86783554  1
  O  O308  1  0.61630990  0.37484480  0.36596669  1
  O  O309  1  0.61742240  0.37493779  0.86835557  1
  O  O310  1  0.61809164  0.86826404  0.36812324  1
  O  O311  1  0.62542370  0.86873479  0.86959663  1
  O  O312  1  0.38085420  0.12998832  0.13060917  1
  O  O313  1  0.38233096  0.13065612  0.63162005  1
  O  O314  1  0.37842856  0.62954263  0.13052301  1
  O  O315  1  0.37984466  0.62986584  0.63069465  1
  O  O316  1  0.88007974  0.13603424  0.12316332  1
  O  O317  1  0.88425581  0.13466763  0.62390575  1
  O  O318  1  0.88113541  0.62765309  0.13068512  1
  O  O319  1  0.88490595  0.62950901  0.62934020  1
  O  O320  1  0.25628664  0.25017428  0.11825530  1
  O  O321  1  0.25740006  0.25706224  0.62503317  1
  O  O322  1  0.25470904  0.75479560  0.12097080  1
  O  O323  1  0.25777174  0.75660578  0.62506344  1
  O  O324  1  0.76094814  0.25346151  0.11812133  1
  O  O325  1  0.75884884  0.24897081  0.61543708  1
  O  O326  1  0.75403798  0.75403376  0.11988703  1
  O  O327  1  0.74898569  0.75106706  0.61234068  1
  O  O328  1  0.23926370  0.24797078  0.37687282  1
  O  O329  1  0.24482486  0.24471939  0.88088839  1
  O  O330  1  0.24326128  0.74253607  0.37738074  1
  O  O331  1  0.24833275  0.74176913  0.88235875  1
  O  O332  1  0.74977973  0.24359219  0.38327065  1
  O  O333  1  0.75001356  0.24377509  0.88135044  1
  O  O334  1  0.74222958  0.74622604  0.38218233  1
  O  O335  1  0.74496547  0.74550250  0.88003363  1
  O  O336  1  0.00745432  0.11903140  0.00536190  1
  O  O337  1  0.00041424  0.11693558  0.50681681  1
  O  O338  1  0.00702182  0.62588218  0.00671277  1
  O  O339  1  0.00545891  0.61923084  0.50559907  1
  O  O340  1  0.51028526  0.12760875  0.00543392  1
  O  O341  1  0.50165722  0.11813136  0.50705851  1
  O  O342  1  0.50360686  0.62027201  0.00453545  1
  O  O343  1  0.50356509  0.61928898  0.50488372  1
  O  O344  1  0.49426644  0.38046392  0.49515834  1
  O  O345  1  0.49341543  0.38071028  0.99376171  1
  O  O346  1  0.49540412  0.87973547  0.49439421  1
  O  O347  1  0.48871289  0.87430451  1.00173926  1
  O  O348  1  0.99373883  0.38161610  0.49490754  1
  O  O349  1  0.99279630  0.37592688  0.99202159  1
  O  O350  1  1.00266305  0.88238050  0.49154795  1
  O  O351  1  1.00081692  0.88118010  0.99370357  1
  O  O352  1  0.49188256  0.49434520  0.38067261  1
  O  O353  1  0.49408816  0.49616469  0.87921481  1
  O  O354  1  0.49630487  0.99349077  0.37948730  1
  O  O355  1  0.49593975  0.99632313  0.88193591  1
  O  O356  1  0.99399008  0.49423568  0.38216122  1
  O  O357  1  0.99783729  0.48823510  0.87665141  1
  O  O358  1  1.00039663  0.99181701  0.38209383  1
  O  O359  1  0.99694074  0.99635816  0.87985302  1
  O  O360  1  0.00515723  0.00392353  0.11973328  1
  O  O361  1  0.00033848  0.00901295  0.61703633  1
  O  O362  1  0.00229225  0.51323332  0.12103454  1
  O  O363  1  0.00537429  0.50444892  0.62073506  1
  O  O364  1  0.50512208  0.00871976  0.12209984  1
  O  O365  1  0.50614499  0.00539363  0.62056143  1
  O  O366  1  0.50196330  0.50588117  0.11783105  1
  O  O367  1  0.50434965  0.50622931  0.61939689  1
  O  O368  1  0.23954057  0.37999438  0.25036186  1
  O  O369  1  0.24498573  0.38095048  0.74521069  1
  O  O370  1  0.24455363  0.87966728  0.24487752  1
  O  O371  1  0.24733609  0.88036201  0.74591542  1
  O  O372  1  0.73725729  0.37688827  0.24682269  1
  O  O373  1  0.74417365  0.38511730  0.74893488  1
  O  O374  1  0.74508389  0.88105208  0.24715806  1
  O  O375  1  0.74404574  0.88222950  0.74937517  1
  O  O376  1  0.25773946  0.11675866  0.25111755  1
  O  O377  1  0.25629967  0.12092977  0.75499022  1
  O  O378  1  0.25337500  0.61966986  0.25632668  1
  O  O379  1  0.25495420  0.61964471  0.75545331  1
  O  O380  1  0.74930270  0.11772343  0.25667545  1
  O  O381  1  0.75228884  0.11863202  0.75733800  1
  O  O382  1  0.76171619  0.62216570  0.24962575  1
  O  O383  1  0.74942013  0.61695704  0.75454173  1
  O  O384  1  0.37617880  0.11712116  0.36747959  1
  O  O385  1  0.36855179  0.12657088  0.86900291  1
  O  O386  1  0.36874683  0.61899927  0.36986464  1
  O  O387  1  0.36979538  0.61957351  0.86981834  1
  O  O388  1  0.86255272  0.12489160  0.37139447  1
  O  O389  1  0.87063630  0.11952493  0.87468889  1
  O  O390  1  0.87675373  0.61891551  0.36383695  1
  O  O391  1  0.86673820  0.62186075  0.87228778  1
  O  O392  1  0.12407054  0.37471255  0.13645565  1
  O  O393  1  0.12929672  0.38007882  0.62991543  1
  O  O394  1  0.12928750  0.87915442  0.13047421  1
  O  O395  1  0.13405654  0.87780041  0.63185100  1
  O  O396  1  0.62158830  0.38053867  0.13200384  1
  O  O397  1  0.62655253  0.38327276  0.63140497  1
  O  O398  1  0.63218669  0.87516988  0.13245824  1
  O  O399  1  0.62764240  0.88247445  0.63270888  1
  O  O400  1  0.12401041  0.25850203  0.25792315  1
  O  O401  1  0.12394209  0.25723708  0.75723398  1
  O  O402  1  0.12170085  0.75674441  0.25737660  1
  O  O403  1  0.11586778  0.75667506  0.75165819  1
  O  O404  1  0.61774851  0.25900768  0.24994003  1
  O  O405  1  0.61966965  0.25760613  0.75043054  1
  O  O406  1  0.61825477  0.75319394  0.25423748  1
  O  O407  1  0.62072785  0.75504011  0.75513311  1
  O  O408  1  0.37980771  0.24427007  0.24497625  1
  O  O409  1  0.38147816  0.24542203  0.74438589  1
  O  O410  1  0.37868083  0.74404115  0.24545147  1
  O  O411  1  0.38062328  0.74454408  0.74545619  1
  O  O412  1  0.87549589  0.25193621  0.23727419  1
  O  O413  1  0.87587049  0.24963548  0.73673145  1
  O  O414  1  0.87601140  0.73874881  0.24432632  1
  O  O415  1  0.88922596  0.75005206  0.74937109  1
  O  O416  1  0.38005945  0.49423027  0.49550027  1
  O  O417  1  0.37900764  0.49532945  0.99409251  1
  O  O418  1  0.38297943  0.99364938  0.49447051  1
  O  O419  1  0.37493383  0.98773032  1.00156795  1
  O  O420  1  0.87953322  0.49602844  0.49543674  1
  O  O421  1  0.87516287  0.48786509  0.99828124  1
  O  O422  1  0.88808215  0.99748631  0.49630636  1
  O  O423  1  0.88307533  0.99837911  0.99393599  1
  O  O424  1  0.12129748  0.00505601  0.00619380  1
  O  O425  1  0.11270057  0.00212356  0.50196986  1
  O  O426  1  0.12414739  0.51195598  0.00258840  1
  O  O427  1  0.11846233  0.50416294  0.50583439  1
  O  O428  1  0.62736107  0.01387514  0.00295046  1
  O  O429  1  0.61883092  0.00070034  0.50642359  1
  O  O430  1  0.61741043  0.50580277  0.00318021  1
  O  O431  1  0.61860583  0.50441274  0.50385779  1
  O  O432  1  0.37320256  0.36789451  0.11808064  1
  O  O433  1  0.37049218  0.37030712  0.62080394  1
  O  O434  1  0.36918871  0.86887165  0.11915460  1
  O  O435  1  0.37178650  0.86971151  0.62065862  1
  O  O436  1  0.87740133  0.36795120  0.11546097  1
  O  O437  1  0.87429203  0.36565042  0.61777873  1
  O  O438  1  0.86880279  0.86646553  0.12484660  1
  O  O439  1  0.87163641  0.86937112  0.61846491  1
  O  O440  1  0.12513907  0.13645807  0.37409403  1
  O  O441  1  0.13083332  0.13050225  0.88047724  1
  O  O442  1  0.12816937  0.62881823  0.38049147  1
  O  O443  1  0.13095621  0.62539414  0.88450488  1
  O  O444  1  0.63752196  0.12838713  0.37756790  1
  O  O445  1  0.63197656  0.12755226  0.88522022  1
  O  O446  1  0.62311525  0.63039309  0.38003390  1
  O  O447  1  0.62979283  0.63166029  0.88052219  1
