# generated using pymatgen
data_V3Zn3O8
_symmetry_space_group_name_H-M   'P 1'
_cell_length_a   17.09091048
_cell_length_b   17.09115270
_cell_length_c   17.09060843
_cell_angle_alpha   89.98741569
_cell_angle_beta   89.99094417
_cell_angle_gamma   89.99410999
_symmetry_Int_Tables_number   1
_chemical_formula_structural   V3Zn3O8
_chemical_formula_sum   'V96 Zn96 O256'
_cell_volume   4992.22394984
_cell_formula_units_Z   32
loop_
 _symmetry_equiv_pos_site_id
 _symmetry_equiv_pos_as_xyz
  1  'x, y, z'
loop_
 _atom_site_type_symbol
 _atom_site_label
 _atom_site_symmetry_multiplicity
 _atom_site_fract_x
 _atom_site_fract_y
 _atom_site_fract_z
 _atom_site_occupancy
  V  V0  1  0.74943132  0.62509749  0.37495079  1
  V  V1  1  0.62471551  0.37532412  0.25074415  1
  V  V2  1  0.75052639  0.00101262  0.25070640  1
  V  V3  1  0.00012146  0.87470646  0.87522401  1
  V  V4  1  0.49976765  -0.00196702  -0.00098635  1
  V  V5  1  0.74965765  0.87423339  0.62590051  1
  V  V6  1  0.12587724  0.12401726  0.00081116  1
  V  V7  1  0.62700596  0.24989724  0.87641099  1
  V  V8  1  0.24990856  0.75023319  -0.00046483  1
  V  V9  1  0.87407928  0.62494802  0.25013149  1
  V  V10  1  -0.00118209  0.87399979  0.37478186  1
  V  V11  1  0.50115155  0.37457586  0.37507010  1
  V  V12  1  0.12328422  0.74935093  0.37363415  1
  V  V13  1  0.25159539  0.12362931  0.87500538  1
  V  V14  1  -0.00078024  0.62577446  0.62548817  1
  V  V15  1  0.24917756  0.75006105  0.49919095  1
  V  V16  1  0.12554162  0.75020008  0.87465633  1
  V  V17  1  0.87501186  0.24919090  0.62571872  1
  V  V18  1  0.75084687  0.50092527  0.25030144  1
  V  V19  1  0.37457541  0.62514964  0.24936746  1
  V  V20  1  0.12540736  0.49903005  0.12433863  1
  V  V21  1  0.74972811  0.75007257  0.49945251  1
  V  V22  1  0.12423739  0.62403419  -0.00022575  1
  V  V23  1  0.62531723  -0.00060383  0.62579714  1
  V  V24  1  0.37506523  0.37616772  0.50006413  1
  V  V25  1  0.00085577  0.49991443  0.00024389  1
  V  V26  1  0.37417025  0.49971931  0.87402904  1
  V  V27  1  -0.00067883  0.49932102  0.49983367  1
  V  V28  1  0.37452462  0.00112190  0.37464246  1
  V  V29  1  0.24955939  0.62516190  0.37440661  1
  V  V30  1  0.62549053  0.00103980  0.12502037  1
  V  V31  1  0.74990772  0.50031012  0.75002776  1
  V  V32  1  0.75065348  0.12477368  0.37414373  1
  V  V33  1  0.25012556  0.62466551  0.87388877  1
  V  V34  1  0.12458586  0.49960239  0.62480346  1
  V  V35  1  0.49959392  0.75069185  0.24928728  1
  V  V36  1  0.74963122  0.24986946  0.49980818  1
  V  V37  1  0.12593787  0.87615918  0.74946054  1
  V  V38  1  0.87426388  0.87456644  0.49926809  1
  V  V39  1  0.62447185  0.87495021  0.25068839  1
  V  V40  1  0.24940311  0.49985912  0.24882273  1
  V  V41  1  0.62512115  0.50033668  0.12457025  1
  V  V42  1  0.37386682  0.74977275  0.12366084  1
  V  V43  1  0.00036933  0.37433078  0.87485544  1
  V  V44  1  -0.00066393  0.25029411  0.75020901  1
  V  V45  1  0.62470895  0.62507253  -0.00050794  1
  V  V46  1  0.87461241  0.00039202  0.87556119  1
  V  V47  1  -0.00115078  0.74958466  0.25005795  1
  V  V48  1  0.49939422  0.87485463  0.37418794  1
  V  V49  1  0.37621177  0.24999631  0.12515206  1
  V  V50  1  0.87478167  0.37481896  0.49952348  1
  V  V51  1  0.87580184  0.37549738  0.00071504  1
  V  V52  1  0.12386601  0.37377013  0.75043365  1
  V  V53  1  0.50020992  0.37474050  0.87444736  1
  V  V54  1  0.25171755  0.24893698  -0.00015651  1
  V  V55  1  0.24988874  0.24876871  0.50092234  1
  V  V56  1  0.74970622  0.75001025  -0.00034297  1
  V  V57  1  0.75057741  0.37551100  0.12556803  1
  V  V58  1  0.62436693  0.62483087  0.49916981  1
  V  V59  1  -0.00022557  0.74928614  0.74892331  1
  V  V60  1  0.37451155  0.75050695  0.62427135  1
  V  V61  1  0.24896239  0.87585740  0.62524778  1
  V  V62  1  0.74920296  0.37573787  0.62523648  1
  V  V63  1  0.87518728  0.74988639  0.12533283  1
  V  V64  1  0.75002760  0.25031233  -0.00016306  1
  V  V65  1  0.24968684  0.49989071  0.74996199  1
  V  V66  1  0.12437673  0.62435050  0.49956265  1
  V  V67  1  0.37511687  0.50033421  0.37464938  1
  V  V68  1  0.24938266  0.00014047  0.25007841  1
  V  V69  1  0.75031915  0.62471993  0.87399801  1
  V  V70  1  0.00095942  0.12545672  0.12739279  1
  V  V71  1  0.37518414  0.12462739  0.75064689  1
  V  V72  1  0.50046207  0.12574649  0.12688826  1
  V  V73  1  0.49941304  0.62511036  0.12453310  1
  V  V74  1  0.87464622  0.12449101  0.75053107  1
  V  V75  1  0.50045401  0.75282093  0.75029439  1
  V  V76  1  0.24869793  0.87513217  0.12467509  1
  V  V77  1  0.37460441  0.37400436  -0.00013760  1
  V  V78  1  0.49963247  0.49988373  -0.00100875  1
  V  V79  1  0.49936320  0.62433107  0.62373004  1
  V  V80  1  0.87469658  0.50060531  0.87464752  1
  V  V81  1  0.12640666  0.24909012  0.37543605  1
  V  V82  1  0.25004399  0.37526380  0.62507114  1
  V  V83  1  0.62536106  0.37568318  0.74954988  1
  V  V84  1  0.87533557  0.87512046  -0.00042065  1
  V  V85  1  0.62430704  0.75051895  0.87402927  1
  V  V86  1  0.50056585  0.12526084  0.62587716  1
  V  V87  1  0.37455774  0.87501170  0.49881644  1
  V  V88  1  0.75033229  0.87592601  0.12578211  1
  V  V89  1  0.87635627  0.25040535  0.12640854  1
  V  V90  1  0.50000936  0.24970641  0.75031138  1
  V  V91  1  0.62523583  0.12569542  0.50084251  1
  V  V92  1  0.00018341  0.37513890  0.37541906  1
  V  V93  1  0.12607353  0.37521103  0.24968903  1
  V  V94  1  0.25035322  0.00033280  0.75005822  1
  V  V95  1  0.00095803  0.00049259  0.50089497  1
  Zn  Zn96  1  -0.00054960  0.62478008  0.12517251  1
  Zn  Zn97  1  0.37471913  0.12904443  0.25239462  1
  Zn  Zn98  1  0.87622591  0.00031335  0.37333272  1
  Zn  Zn99  1  0.62379648  0.24982192  0.37376317  1
  Zn  Zn100  1  0.87486819  0.49917709  0.37461911  1
  Zn  Zn101  1  0.50019121  0.87499965  0.87650980  1
  Zn  Zn102  1  0.74999521  -0.00051875  0.75147378  1
  Zn  Zn103  1  0.87456363  0.74818162  0.62600594  1
  Zn  Zn104  1  0.12510715  0.24893068  0.87408662  1
  Zn  Zn105  1  0.62771898  0.12535206  -0.00061379  1
  Zn  Zn106  1  0.49871369  0.00080962  0.49966261  1
  Zn  Zn107  1  0.25037373  0.12429573  0.37567323  1
  Zn  Zn108  1  0.00121086  0.12465667  0.62357011  1
  Zn  Zn109  1  0.37723925  -0.00315368  0.87475216  1
  Zn  Zn110  1  0.62410727  0.75102555  0.37370769  1
  Zn  Zn111  1  0.12239418  0.87468322  0.24967712  1
  Zn  Zn112  1  0.62455662  0.49965136  0.62531756  1
  Zn  Zn113  1  0.25080372  0.37382090  0.12459190  1
  Zn  Zn114  1  0.37504697  0.87485256  -0.00304445  1
  Zn  Zn115  1  0.87659311  0.12522624  0.25065514  1
  Zn  Zn116  1  0.74941212  0.12436497  0.87752156  1
  Zn  Zn117  1  0.12474389  0.12324233  0.50196664  1
  Zn  Zn118  1  0.00096602  -0.00089666  0.00267720  1
  Zn  Zn119  1  0.49973630  0.25033753  0.25027531  1
  Zn  Zn120  1  0.50006704  0.49950255  0.50115515  1
  Zn  Zn121  1  0.87440465  0.62612847  0.74853824  1
  Zn  Zn122  1  -0.00021476  0.24997304  0.25181496  1
  Zn  Zn123  1  0.37529868  0.25043491  0.62585498  1
  Zn  Zn124  1  0.12471534  0.00306042  0.62522324  1
  Zn  Zn125  1  0.62642126  0.87684286  0.75307057  1
  Zn  Zn126  1  0.12367747  -0.00093321  0.12692145  1
  Zn  Zn127  1  0.37394328  0.62515613  0.74934020  1
  Zn  Zn128  1  0.19009007  0.18708797  0.18779037  1
  Zn  Zn129  1  0.18515635  0.18545341  0.68618520  1
  Zn  Zn130  1  0.18538158  0.68657626  0.18680704  1
  Zn  Zn131  1  0.18628953  0.68764569  0.68731535  1
  Zn  Zn132  1  0.68594603  0.18964334  0.18859564  1
  Zn  Zn133  1  0.68849285  0.18779289  0.68926217  1
  Zn  Zn134  1  0.68711478  0.68836100  0.18766621  1
  Zn  Zn135  1  0.68612904  0.68748350  0.68726272  1
  Zn  Zn136  1  0.31390843  0.31335995  0.31133983  1
  Zn  Zn137  1  0.31198944  0.31022600  0.81299869  1
  Zn  Zn138  1  0.31189811  0.81325357  0.31122291  1
  Zn  Zn139  1  0.31544952  0.81468364  0.81296607  1
  Zn  Zn140  1  0.81332300  0.31088372  0.31208043  1
  Zn  Zn141  1  0.81252338  0.31305533  0.81311436  1
  Zn  Zn142  1  0.81230490  0.81200849  0.31380046  1
  Zn  Zn143  1  0.81361055  0.81136638  0.81113309  1
  Zn  Zn144  1  0.18763123  0.43657201  0.43701848  1
  Zn  Zn145  1  0.18739545  0.43611467  0.93713399  1
  Zn  Zn146  1  0.18505258  0.93526858  0.43672326  1
  Zn  Zn147  1  0.18804647  0.93910968  0.93669809  1
  Zn  Zn148  1  0.68763516  0.43957904  0.43777376  1
  Zn  Zn149  1  0.68797568  0.43686829  0.93697440  1
  Zn  Zn150  1  0.68631039  0.93906498  0.43817989  1
  Zn  Zn151  1  0.68634981  0.93681406  0.93806773  1
  Zn  Zn152  1  0.31557644  0.06248490  0.06309653  1
  Zn  Zn153  1  0.31277975  0.06331906  0.56430977  1
  Zn  Zn154  1  0.31121930  0.56182018  0.06161486  1
  Zn  Zn155  1  0.31266323  0.56222400  0.56145617  1
  Zn  Zn156  1  0.81363069  0.06422297  0.06234977  1
  Zn  Zn157  1  0.81425615  0.06113477  0.56175979  1
  Zn  Zn158  1  0.81310844  0.56306685  0.06241831  1
  Zn  Zn159  1  0.81346522  0.56182405  0.56343149  1
  Zn  Zn160  1  0.43710929  0.43704042  0.18745121  1
  Zn  Zn161  1  0.43638966  0.43734710  0.68762056  1
  Zn  Zn162  1  0.43569421  0.93735095  0.18652501  1
  Zn  Zn163  1  0.43654252  0.93834193  0.68711223  1
  Zn  Zn164  1  0.93953923  0.43770330  0.18862633  1
  Zn  Zn165  1  0.93602947  0.43788957  0.68747024  1
  Zn  Zn166  1  0.93633705  0.93939552  0.18883184  1
  Zn  Zn167  1  0.93753781  0.93643058  0.68679005  1
  Zn  Zn168  1  0.06421359  0.06230330  0.31452828  1
  Zn  Zn169  1  0.06232023  0.06224660  0.81352230  1
  Zn  Zn170  1  0.06096208  0.56201794  0.31165709  1
  Zn  Zn171  1  0.06212365  0.56241515  0.81211852  1
  Zn  Zn172  1  0.56339390  0.06184297  0.31225619  1
  Zn  Zn173  1  0.56378661  0.06438096  0.81346742  1
  Zn  Zn174  1  0.56232045  0.56175076  0.31260630  1
  Zn  Zn175  1  0.56306485  0.56361980  0.81112084  1
  Zn  Zn176  1  0.43714757  0.18781606  0.43964391  1
  Zn  Zn177  1  0.43865043  0.18492505  0.93795893  1
  Zn  Zn178  1  0.43697827  0.68891713  0.43616978  1
  Zn  Zn179  1  0.43585370  0.68695024  0.93648660  1
  Zn  Zn180  1  0.93707013  0.18731881  0.43762198  1
  Zn  Zn181  1  0.93836485  0.18798266  0.93880926  1
  Zn  Zn182  1  0.93517701  0.68728200  0.43793013  1
  Zn  Zn183  1  0.93747190  0.68696536  0.93679270  1
  Zn  Zn184  1  0.06394891  0.31104979  0.06302073  1
  Zn  Zn185  1  0.06149513  0.31240003  0.56351059  1
  Zn  Zn186  1  0.06208344  0.81153301  0.06263839  1
  Zn  Zn187  1  0.06239387  0.81342098  0.56291045  1
  Zn  Zn188  1  0.56323462  0.31250312  0.06216544  1
  Zn  Zn189  1  0.56316256  0.31095131  0.56258441  1
  Zn  Zn190  1  0.56353182  0.81341684  0.06311321  1
  Zn  Zn191  1  0.56232773  0.81256954  0.56087776  1
  O  O192  1  0.11822138  0.12509114  0.11746907  1
  O  O193  1  0.11880413  0.12122296  0.62015431  1
  O  O194  1  0.12344349  0.61793565  0.11719984  1
  O  O195  1  0.12031612  0.61887394  0.61836419  1
  O  O196  1  0.61613760  0.11966409  0.12458645  1
  O  O197  1  0.62227574  0.11740006  0.62150331  1
  O  O198  1  0.61939053  0.61999325  0.11917910  1
  O  O199  1  0.61543405  0.62559245  0.61608392  1
  O  O200  1  0.38275741  0.38102727  0.37953047  1
  O  O201  1  0.38089943  0.38012090  0.87982293  1
  O  O202  1  0.37902661  0.88201362  0.37897789  1
  O  O203  1  0.38158612  0.87848268  0.87945891  1
  O  O204  1  0.88147065  0.37492667  0.38184953  1
  O  O205  1  0.88054015  0.38111453  0.88125061  1
  O  O206  1  0.88081087  0.87608484  0.38199510  1
  O  O207  1  0.87981513  0.88189214  0.87928073  1
  O  O208  1  0.25813960  -0.00256324  0.36747661  1
  O  O209  1  0.25230981  0.00645262  0.86812278  1
  O  O210  1  0.25472894  0.50607355  0.36944087  1
  O  O211  1  0.25444913  0.50470614  0.86945770  1
  O  O212  1  0.74947104  0.00979139  0.37046734  1
  O  O213  1  0.76235708  -0.00025169  0.87314561  1
  O  O214  1  0.75116125  0.50698634  0.36764935  1
  O  O215  1  0.75491084  0.50491558  0.87036559  1
  O  O216  1  0.24384881  0.49839458  0.13103927  1
  O  O217  1  0.24404497  0.49535569  0.62943957  1
  O  O218  1  0.25192701  0.99161130  0.13335887  1
  O  O219  1  0.24900547  0.99277522  0.63133147  1
  O  O220  1  0.74427185  0.49504432  0.12944856  1
  O  O221  1  0.74859240  0.49337100  0.63175252  1
  O  O222  1  0.74556518  0.99521986  0.12961820  1
  O  O223  1  0.74196112  0.99120172  0.62454880  1
  O  O224  1  0.00822508  0.37332303  0.25716544  1
  O  O225  1  0.00423643  0.37041292  0.75512776  1
  O  O226  1  -0.00021613  0.86816325  0.25600658  1
  O  O227  1  0.00576459  0.86972468  0.75580118  1
  O  O228  1  0.50575644  0.37684411  0.25944178  1
  O  O229  1  0.50490895  0.37022464  0.75529444  1
  O  O230  1  0.50437228  0.87009031  0.25340308  1
  O  O231  1  0.50258162  0.86189827  0.74775008  1
  O  O232  1  0.49876323  0.12530959  0.23816714  1
  O  O233  1  0.49550931  0.13048139  0.74527646  1
  O  O234  1  0.49438826  0.62962991  0.24397753  1
  O  O235  1  0.49956591  0.63439021  0.73979223  1
  O  O236  1  1.00151061  0.12711721  0.23959658  1
  O  O237  1  0.98857549  0.13025343  0.75073948  1
  O  O238  1  0.99215075  0.63110567  0.24879790  1
  O  O239  1  1.00074460  0.63103160  0.74352052  1
  O  O240  1  0.37141237  0.25460801  0.00482122  1
  O  O241  1  0.36456267  0.25707571  0.50061136  1
  O  O242  1  0.36752369  0.74940871  0.00668721  1
  O  O243  1  0.36816903  0.75524367  0.50396788  1
  O  O244  1  0.87079299  0.25737708  0.00609897  1
  O  O245  1  0.86941680  0.25525636  0.50618858  1
  O  O246  1  0.86892452  0.75529753  0.00433521  1
  O  O247  1  0.86751097  0.75672317  0.50299470  1
  O  O248  1  0.13414112  0.25358904  0.49129394  1
  O  O249  1  0.13181228  0.23885928  0.99927483  1
  O  O250  1  0.12994074  0.74380901  0.49390475  1
  O  O251  1  0.13035685  0.74426534  0.99380953  1
  O  O252  1  0.63271312  0.24308918  0.49860370  1
  O  O253  1  0.63237818  0.25150107  0.99397603  1
  O  O254  1  0.62970172  0.73956089  0.49803014  1
  O  O255  1  0.63003320  0.74409141  0.99545116  1
  O  O256  1  0.49530279  0.24085225  0.12333032  1
  O  O257  1  0.49951835  0.24336238  0.63262998  1
  O  O258  1  0.49430540  0.74414680  0.12912307  1
  O  O259  1  0.49561386  0.74298591  0.63075013  1
  O  O260  1  0.99578565  0.24128448  0.12653185  1
  O  O261  1  0.99166721  0.24980892  0.63170191  1
  O  O262  1  0.99268509  0.74852382  0.13106422  1
  O  O263  1  1.00053980  0.74372010  0.63107407  1
  O  O264  1  0.01089010  0.25557663  0.37623835  1
  O  O265  1  0.00040519  0.25718721  0.86859469  1
  O  O266  1  0.00396192  0.75402896  0.37011387  1
  O  O267  1  0.00618944  0.75530175  0.87010228  1
  O  O268  1  0.50013759  0.26296201  0.37413761  1
  O  O269  1  0.50592120  0.25585975  0.87052327  1
  O  O270  1  0.49970327  0.75676041  0.36656646  1
  O  O271  1  0.50505772  0.74717166  0.86505888  1
  O  O272  1  0.24931181  0.13769931  0.49870530  1
  O  O273  1  0.24389263  0.12829719  0.99639146  1
  O  O274  1  0.24420398  0.63029419  0.49429019  1
  O  O275  1  0.24392383  0.63006279  0.99358296  1
  O  O276  1  0.74575369  0.12927197  0.49320076  1
  O  O277  1  0.74877739  0.13485349  0.99905976  1
  O  O278  1  0.74209028  0.62921504  0.49651536  1
  O  O279  1  0.74379250  0.63012699  0.99468842  1
  O  O280  1  0.25718715  0.36777704  -0.00018605  1
  O  O281  1  0.25456718  0.36820990  0.50482951  1
  O  O282  1  0.24952076  0.86941408  0.00920995  1
  O  O283  1  0.25476441  0.86854497  0.50453891  1
  O  O284  1  0.75642241  0.37162244  0.00665508  1
  O  O285  1  0.75441349  0.37017200  0.50475594  1
  O  O286  1  0.75531534  0.86901825  0.00615346  1
  O  O287  1  0.75308067  0.87062984  0.50705588  1
  O  O288  1  0.13037987  0.49573660  0.24479662  1
  O  O289  1  0.12999618  0.49369888  0.74428581  1
  O  O290  1  0.13770740  0.99685648  0.25004998  1
  O  O291  1  0.13134598  0.99299587  0.75015049  1
  O  O292  1  0.63066593  0.49616415  0.24326889  1
  O  O293  1  0.63146052  0.49340797  0.74916468  1
  O  O294  1  0.63053040  0.99367907  0.24408865  1
  O  O295  1  0.62810378  0.99912151  0.73804057  1
  O  O296  1  0.36607504  -0.00163492  0.25952498  1
  O  O297  1  0.36876394  0.00684945  0.75075480  1
  O  O298  1  0.36960519  0.50623857  0.25453512  1
  O  O299  1  0.36772481  0.50149819  0.75620924  1
  O  O300  1  0.86579183  0.00441423  0.25306153  1
  O  O301  1  0.87540846  0.00739271  0.75830007  1
  O  O302  1  0.86812621  0.50608348  0.25053927  1
  O  O303  1  0.86811942  0.50089971  0.75763738  1
  O  O304  1  0.12073088  0.36735516  0.37055133  1
  O  O305  1  0.11811380  0.37329897  0.86836501  1
  O  O306  1  0.11734852  0.86564475  0.37317003  1
  O  O307  1  0.12025944  0.86950526  0.87026715  1
  O  O308  1  0.61604813  0.37636632  0.37069721  1
  O  O309  1  0.61900082  0.37058664  0.86944701  1
  O  O310  1  0.61775267  0.87508111  0.36883025  1
  O  O311  1  0.62195216  0.86639308  0.87241224  1
  O  O312  1  0.38532695  0.13099177  0.12652334  1
  O  O313  1  0.38257704  0.12702944  0.63171334  1
  O  O314  1  0.38004093  0.62924245  0.12979535  1
  O  O315  1  0.38403418  0.63162271  0.62353073  1
  O  O316  1  0.88610062  0.13141523  0.12431400  1
  O  O317  1  0.87590575  0.13006221  0.63459288  1
  O  O318  1  0.87492084  0.63232945  0.13116163  1
  O  O319  1  0.88340580  0.62714687  0.62718954  1
  O  O320  1  0.25843030  0.25035810  0.11796334  1
  O  O321  1  0.24956989  0.25703928  0.61573210  1
  O  O322  1  0.25380174  0.75642963  0.12047354  1
  O  O323  1  0.25467298  0.75467820  0.61896366  1
  O  O324  1  0.75543614  0.25718670  0.12050391  1
  O  O325  1  0.75554815  0.25567275  0.62009326  1
  O  O326  1  0.75470469  0.75608711  0.11929470  1
  O  O327  1  0.74814561  0.75966349  0.61864499  1
  O  O328  1  0.24297090  0.25201733  0.38428787  1
  O  O329  1  0.24834868  0.24167001  0.88199410  1
  O  O330  1  0.24499202  0.74435952  0.37933445  1
  O  O331  1  0.24471095  0.74505976  0.87935056  1
  O  O332  1  0.74811865  0.24098947  0.38110389  1
  O  O333  1  0.74482188  0.25159938  0.88239368  1
  O  O334  1  0.74628528  0.74326033  0.38140275  1
  O  O335  1  0.74499111  0.74502322  0.88050893  1
  O  O336  1  0.00942924  0.12525240  0.00898881  1
  O  O337  1  -0.00100357  0.11272940  0.50009370  1
  O  O338  1  0.00659911  0.61812977  0.00017979  1
  O  O339  1  0.00577172  0.61946544  0.50443015  1
  O  O340  1  0.50269916  0.11627833  0.01093843  1
  O  O341  1  0.50667927  0.12361607  0.50713098  1
  O  O342  1  0.50515354  0.61950646  0.00481507  1
  O  O343  1  0.50671019  0.62705687  0.50737434  1
  O  O344  1  0.49530556  0.37680532  0.49226598  1
  O  O345  1  0.49503860  0.38117184  0.99378837  1
  O  O346  1  0.49234003  0.87625819  0.49332963  1
  O  O347  1  0.49882693  0.88636954  1.00275712  1
  O  O348  1  0.99467774  0.38002066  0.49559308  1
  O  O349  1  0.99533798  0.37989980  0.99505480  1
  O  O350  1  0.99450979  0.88082036  0.49470872  1
  O  O351  1  0.99377790  0.87589224  0.99352610  1
  O  O352  1  0.49384143  0.49116756  0.37629158  1
  O  O353  1  0.49498944  0.49525822  0.87942646  1
  O  O354  1  0.48955910  0.99391961  0.37452800  1
  O  O355  1  0.50237488  0.99967643  0.88720195  1
  O  O356  1  0.99954367  0.49306660  0.38246950  1
  O  O357  1  0.99496161  0.49424745  0.88053088  1
  O  O358  1  0.99911785  0.99338340  0.38311927  1
  O  O359  1  0.98963899  0.99380178  0.87709767  1
  O  O360  1  0.00244074  0.01071260  0.12352577  1
  O  O361  1  0.00101086  -0.00149600  0.61278875  1
  O  O362  1  0.00692952  0.50130161  0.11766394  1
  O  O363  1  0.00597092  0.50418304  0.61954649  1
  O  O364  1  0.50444903  0.00693876  0.11990589  1
  O  O365  1  0.50974197  0.00511603  0.62390844  1
  O  O366  1  0.50502341  0.50581040  0.11895796  1
  O  O367  1  0.50059764  0.51268626  0.62425065  1
  O  O368  1  0.24427130  0.38308454  0.24908334  1
  O  O369  1  0.24440970  0.37983965  0.74517024  1
  O  O370  1  0.24873321  0.88196665  0.24105448  1
  O  O371  1  0.24543160  0.87978297  0.74483636  1
  O  O372  1  0.74505531  0.38097063  0.24493653  1
  O  O373  1  0.74480647  0.38003977  0.74493080  1
  O  O374  1  0.74471219  0.88017306  0.24505854  1
  O  O375  1  0.74824864  0.87584530  0.73763389  1
  O  O376  1  0.25365958  0.11265007  0.25223780  1
  O  O377  1  0.25502283  0.12051944  0.75496982  1
  O  O378  1  0.25523351  0.62024765  0.25524415  1
  O  O379  1  0.25024055  0.61812436  0.75538628  1
  O  O380  1  0.74811812  0.12019550  0.25921512  1
  O  O381  1  0.76410372  0.12399978  0.75311226  1
  O  O382  1  0.75378943  0.62064793  0.25466002  1
  O  O383  1  0.74987175  0.61919637  0.75641905  1
  O  O384  1  0.37408871  0.11332888  0.37421237  1
  O  O385  1  0.36961814  0.12204340  0.86848666  1
  O  O386  1  0.36928720  0.62070557  0.36909540  1
  O  O387  1  0.36788111  0.61739721  0.87333546  1
  O  O388  1  0.86183252  0.12424321  0.37401671  1
  O  O389  1  0.87551409  0.11663449  0.86869828  1
  O  O390  1  0.86703503  0.62291800  0.36865595  1
  O  O391  1  0.86760023  0.61820038  0.87447057  1
  O  O392  1  0.12762501  0.38052439  0.13113544  1
  O  O393  1  0.12994037  0.38098230  0.63041160  1
  O  O394  1  0.13665844  0.87610862  0.12674646  1
  O  O395  1  0.13256155  0.87567920  0.63190292  1
  O  O396  1  0.63022778  0.38188230  0.12979249  1
  O  O397  1  0.63109552  0.37648126  0.63138837  1
  O  O398  1  0.63152886  0.88057486  0.13116236  1
  O  O399  1  0.63302319  0.88322228  0.62336960  1
  O  O400  1  0.12810576  0.25564878  0.26122694  1
  O  O401  1  0.11756918  0.25648791  0.75098077  1
  O  O402  1  0.11742398  0.74930616  0.25638644  1
  O  O403  1  0.12054626  0.75622925  0.75618177  1
  O  O404  1  0.62091386  0.26029882  0.25284273  1
  O  O405  1  0.62019178  0.25631682  0.75587028  1
  O  O406  1  0.61734067  0.75686681  0.24974204  1
  O  O407  1  0.61531048  0.75025831  0.75510772  1
  O  O408  1  0.37827688  0.24890585  0.24184954  1
  O  O409  1  0.38222898  0.24362348  0.74874123  1
  O  O410  1  0.37935785  0.74396193  0.24366938  1
  O  O411  1  0.38373921  0.74778633  0.74297754  1
  O  O412  1  0.87869587  0.24677250  0.24179845  1
  O  O413  1  0.87930038  0.24305415  0.74600341  1
  O  O414  1  0.87876620  0.74465138  0.24440102  1
  O  O415  1  0.88408549  0.74724513  0.74748957  1
  O  O416  1  0.37572263  0.49428159  0.49208101  1
  O  O417  1  0.38046075  0.49483543  0.99414114  1
  O  O418  1  0.37365865  0.99388508  0.48990173  1
  O  O419  1  0.38782831  0.99858211  0.99980473  1
  O  O420  1  0.88139893  0.49239977  0.49849837  1
  O  O421  1  0.88022679  0.49462002  0.99501846  1
  O  O422  1  0.88379343  0.99296081  0.49753996  1
  O  O423  1  0.87620138  0.99395264  0.99119025  1
  O  O424  1  0.12439166  0.01274515  0.00298564  1
  O  O425  1  0.11380698  -0.00008168  0.50008831  1
  O  O426  1  0.12035867  0.50430766  0.00418494  1
  O  O427  1  0.12014692  0.50466933  0.50528103  1
  O  O428  1  0.61743975  0.00139197  0.00765407  1
  O  O429  1  0.62315557  0.00634244  0.51113173  1
  O  O430  1  0.61951498  0.50505790  0.00481902  1
  O  O431  1  0.62298099  0.51346591  0.50259044  1
  O  O432  1  0.37536669  0.36883011  0.11720618  1
  O  O433  1  0.36808441  0.37394933  0.61839606  1
  O  O434  1  0.36367735  0.86812327  0.12387370  1
  O  O435  1  0.36928020  0.86965862  0.61868728  1
  O  O436  1  0.87021095  0.37100678  0.12008081  1
  O  O437  1  0.86873741  0.36901417  0.61965175  1
  O  O438  1  0.86930253  0.86997024  0.11934276  1
  O  O439  1  0.86335956  0.87440351  0.61899506  1
  O  O440  1  0.12839479  0.13777590  0.37878722  1
  O  O441  1  0.13035979  0.12610157  0.88514981  1
  O  O442  1  0.13040590  0.62918377  0.38047425  1
  O  O443  1  0.13064927  0.63016708  0.87996962  1
  O  O444  1  0.63362513  0.12532648  0.38121662  1
  O  O445  1  0.62926571  0.13416250  0.87733616  1
  O  O446  1  0.62885325  0.62657562  0.38367118  1
  O  O447  1  0.63024190  0.63007049  0.88100367  1
