# generated using pymatgen
data_V3Zn3O8
_symmetry_space_group_name_H-M   'P 1'
_cell_length_a   17.08780021
_cell_length_b   17.08724574
_cell_length_c   17.08675611
_cell_angle_alpha   89.99418378
_cell_angle_beta   89.98908700
_cell_angle_gamma   89.98918339
_symmetry_Int_Tables_number   1
_chemical_formula_structural   V3Zn3O8
_chemical_formula_sum   'V96 Zn96 O256'
_cell_volume   4989.04964392
_cell_formula_units_Z   32
loop_
 _symmetry_equiv_pos_site_id
 _symmetry_equiv_pos_as_xyz
  1  'x, y, z'
loop_
 _atom_site_type_symbol
 _atom_site_label
 _atom_site_symmetry_multiplicity
 _atom_site_fract_x
 _atom_site_fract_y
 _atom_site_fract_z
 _atom_site_occupancy
  V  V0  1  0.87471224  0.87470828  -0.00042406  1
  V  V1  1  0.74919468  0.87523578  0.62502829  1
  V  V2  1  0.24945628  -0.00107667  0.24986961  1
  V  V3  1  0.62491982  0.00051076  0.62414671  1
  V  V4  1  0.12501122  0.50005168  0.62446699  1
  V  V5  1  0.87585805  0.25072101  0.62362553  1
  V  V6  1  0.62663772  0.12485857  -0.00054867  1
  V  V7  1  -0.00031956  0.74997171  0.25160102  1
  V  V8  1  0.12487721  0.62455169  0.00073842  1
  V  V9  1  0.37809063  0.12811107  0.75112878  1
  V  V10  1  0.00045420  0.24894733  0.24973535  1
  V  V11  1  0.87505720  0.12440552  0.24973162  1
  V  V12  1  0.74822495  0.49941690  0.74907914  1
  V  V13  1  0.37541930  0.12425047  0.24959633  1
  V  V14  1  0.87464664  0.75004859  0.12442768  1
  V  V15  1  0.37477335  0.74999731  0.12666618  1
  V  V16  1  0.12558074  0.25050169  0.87599800  1
  V  V17  1  -0.00044946  0.62459665  0.12513035  1
  V  V18  1  0.37393723  0.87525014  0.50072931  1
  V  V19  1  0.25027373  0.50153665  0.74987814  1
  V  V20  1  0.49996441  0.37533118  0.37396271  1
  V  V21  1  0.24987800  0.25064571  0.00038522  1
  V  V22  1  0.37504876  0.24994086  0.12474089  1
  V  V23  1  0.00037513  0.12377978  0.12442117  1
  V  V24  1  0.62448754  0.87627223  0.74918520  1
  V  V25  1  0.12521542  0.62477593  0.50016611  1
  V  V26  1  -0.00009194  0.37399370  0.37506456  1
  V  V27  1  0.24913878  0.87473182  0.12632716  1
  V  V28  1  0.12506366  -0.00082771  0.12486556  1
  V  V29  1  0.12587907  0.24827042  0.37465859  1
  V  V30  1  0.37455141  -0.00100706  0.37639395  1
  V  V31  1  0.25032344  0.12463089  0.37561371  1
  V  V32  1  0.25011334  0.75020063  0.50078505  1
  V  V33  1  -0.00098858  0.37654854  0.87433387  1
  V  V34  1  0.50226699  0.50179421  0.49994256  1
  V  V35  1  0.37543284  -0.00005644  0.87666207  1
  V  V36  1  0.25034301  0.37425759  0.62440951  1
  V  V37  1  0.49953679  0.87547187  0.87574910  1
  V  V38  1  0.00302092  0.12540759  0.62404971  1
  V  V39  1  0.62457456  0.62552088  0.00010943  1
  V  V40  1  0.75056184  0.50003094  0.24982979  1
  V  V41  1  0.75086443  0.37367289  0.12284409  1
  V  V42  1  0.74941290  0.62472246  0.87409348  1
  V  V43  1  0.49844582  0.74949991  0.74906094  1
  V  V44  1  0.62562064  0.37502842  0.24899362  1
  V  V45  1  0.37471575  0.49907386  0.37453661  1
  V  V46  1  0.62523835  0.74813397  0.37532049  1
  V  V47  1  0.49923574  0.00016927  0.50041664  1
  V  V48  1  0.49939925  0.49928909  -0.00031525  1
  V  V49  1  0.50103219  0.12411787  0.12459391  1
  V  V50  1  0.87418360  0.62444361  0.25003580  1
  V  V51  1  0.87509242  0.24965858  0.12346454  1
  V  V52  1  0.00058014  0.87436874  0.87453461  1
  V  V53  1  0.62631403  0.87576204  0.24845183  1
  V  V54  1  0.50017486  0.62595643  0.12502596  1
  V  V55  1  0.87626452  -0.00052224  0.37562030  1
  V  V56  1  0.75053575  0.25041883  0.49905230  1
  V  V57  1  0.62466369  0.75128338  0.87454862  1
  V  V58  1  0.25006479  0.49971246  0.25133240  1
  V  V59  1  0.12376344  0.75008833  0.87553012  1
  V  V60  1  0.50026242  0.74947884  0.24970600  1
  V  V61  1  -0.00119848  0.49979947  -0.00056304  1
  V  V62  1  0.62453062  0.12396236  0.50027476  1
  V  V63  1  0.50011519  0.24964435  0.24989608  1
  V  V64  1  0.75004148  -0.00052702  0.24975958  1
  V  V65  1  0.87469584  0.49926198  0.87501349  1
  V  V66  1  0.24974010  0.37493305  0.12559151  1
  V  V67  1  -0.00008897  0.75070208  0.75015649  1
  V  V68  1  0.87586981  0.00152176  0.87392681  1
  V  V69  1  0.12327773  0.74968372  0.37491805  1
  V  V70  1  0.12468428  0.37627062  0.74984160  1
  V  V71  1  0.37590245  0.37627570  0.00016038  1
  V  V72  1  0.75018543  0.12469542  0.37462544  1
  V  V73  1  0.12437822  0.49938159  0.12557760  1
  V  V74  1  0.00064829  -0.00003005  0.00076317  1
  V  V75  1  0.37433068  0.75057864  0.62477359  1
  V  V76  1  0.24836924  -0.00087140  0.75076729  1
  V  V77  1  0.25014478  0.62355876  0.37540095  1
  V  V78  1  0.75078764  0.75067942  -0.00069242  1
  V  V79  1  -0.00020662  0.62532584  0.62459821  1
  V  V80  1  0.62516986  0.24892403  0.37427166  1
  V  V81  1  0.74961842  0.74900277  0.49922933  1
  V  V82  1  0.87568429  0.49915607  0.37381016  1
  V  V83  1  0.87477686  0.12492562  0.75045634  1
  V  V84  1  0.62430358  0.25128869  0.87180888  1
  V  V85  1  0.12498227  0.37378531  0.24976782  1
  V  V86  1  0.87396135  0.62523376  0.74957934  1
  V  V87  1  0.74813850  0.37654694  0.62476537  1
  V  V88  1  0.37554426  0.87562531  0.00050870  1
  V  V89  1  -0.00024574  0.49905509  0.49895061  1
  V  V90  1  0.00137193  -0.00088813  0.49947089  1
  V  V91  1  0.87379162  0.75055514  0.62441604  1
  V  V92  1  0.25220603  0.24969142  0.50175163  1
  V  V93  1  0.37389970  0.62624668  0.74991458  1
  V  V94  1  0.24957124  0.74939258  0.00130295  1
  V  V95  1  0.25005068  0.62483955  0.87529843  1
  Zn  Zn96  1  0.74991136  0.62286488  0.37504555  1
  Zn  Zn97  1  0.62604109  0.00017036  0.12360312  1
  Zn  Zn98  1  0.87601278  0.87467586  0.49926682  1
  Zn  Zn99  1  0.49789648  0.87404343  0.37485015  1
  Zn  Zn100  1  0.62330844  0.50264140  0.62626221  1
  Zn  Zn101  1  0.49949264  0.25632794  0.74689306  1
  Zn  Zn102  1  0.24675093  0.87572939  0.62575972  1
  Zn  Zn103  1  0.62058690  0.37719519  0.75062856  1
  Zn  Zn104  1  0.50060767  0.62400132  0.62524462  1
  Zn  Zn105  1  0.25025808  0.12468411  0.87762063  1
  Zn  Zn106  1  0.75118858  0.12572513  0.87530567  1
  Zn  Zn107  1  0.75240536  0.24989379  -0.00362411  1
  Zn  Zn108  1  0.12499031  -0.00269515  0.62664244  1
  Zn  Zn109  1  0.12530330  0.87523341  0.74953415  1
  Zn  Zn110  1  0.00086920  0.25193757  0.74921575  1
  Zn  Zn111  1  0.49835703  0.37487711  0.87263754  1
  Zn  Zn112  1  0.62431269  0.62542987  0.50338265  1
  Zn  Zn113  1  0.12305673  0.87436018  0.25184652  1
  Zn  Zn114  1  0.37528037  0.49950724  0.87339516  1
  Zn  Zn115  1  0.37772061  0.37393013  0.50197448  1
  Zn  Zn116  1  0.50098954  -0.00046698  0.00160971  1
  Zn  Zn117  1  -0.00031046  0.87421988  0.37514020  1
  Zn  Zn118  1  0.87437082  0.37300681  -0.00221716  1
  Zn  Zn119  1  0.74911169  0.00072149  0.75013468  1
  Zn  Zn120  1  0.50112501  0.12941896  0.62592980  1
  Zn  Zn121  1  0.87511235  0.37552167  0.49897080  1
  Zn  Zn122  1  0.62609721  0.50039059  0.12509660  1
  Zn  Zn123  1  0.12647461  0.12468264  -0.00002906  1
  Zn  Zn124  1  0.75074926  0.87682747  0.12349281  1
  Zn  Zn125  1  0.37494873  0.62555814  0.25050049  1
  Zn  Zn126  1  0.12828466  0.12278631  0.50185825  1
  Zn  Zn127  1  0.37795134  0.25158337  0.62764953  1
  Zn  Zn128  1  0.18751632  0.18540408  0.18675222  1
  Zn  Zn129  1  0.18985270  0.18618361  0.69068280  1
  Zn  Zn130  1  0.18658202  0.68661682  0.18953542  1
  Zn  Zn131  1  0.18729213  0.68870061  0.68769741  1
  Zn  Zn132  1  0.68768742  0.18734319  0.18636218  1
  Zn  Zn133  1  0.68822639  0.18868921  0.68675877  1
  Zn  Zn134  1  0.68865068  0.68738678  0.18564952  1
  Zn  Zn135  1  0.68411101  0.68616385  0.68597886  1
  Zn  Zn136  1  0.31386861  0.31281503  0.31383814  1
  Zn  Zn137  1  0.31267011  0.31509388  0.81400723  1
  Zn  Zn138  1  0.31094773  0.81239677  0.31367069  1
  Zn  Zn139  1  0.31222147  0.81349230  0.81335322  1
  Zn  Zn140  1  0.81353028  0.31271429  0.31087159  1
  Zn  Zn141  1  0.81075022  0.31106129  0.81090503  1
  Zn  Zn142  1  0.81358674  0.81423793  0.31376847  1
  Zn  Zn143  1  0.81220600  0.81398570  0.81176283  1
  Zn  Zn144  1  0.18705471  0.43516741  0.43760481  1
  Zn  Zn145  1  0.18790088  0.43762628  0.93746077  1
  Zn  Zn146  1  0.18587916  0.93550553  0.43758827  1
  Zn  Zn147  1  0.18771147  0.93673219  0.93725506  1
  Zn  Zn148  1  0.68699735  0.43648913  0.43699132  1
  Zn  Zn149  1  0.68564375  0.43702402  0.93723195  1
  Zn  Zn150  1  0.68758467  0.93626659  0.43688339  1
  Zn  Zn151  1  0.68950268  0.94025300  0.93531547  1
  Zn  Zn152  1  0.31121951  0.06338692  0.06164808  1
  Zn  Zn153  1  0.31420186  0.06311189  0.56691463  1
  Zn  Zn154  1  0.31368382  0.56307761  0.06416953  1
  Zn  Zn155  1  0.31552326  0.56230633  0.56212269  1
  Zn  Zn156  1  0.81106442  0.06173247  0.06269962  1
  Zn  Zn157  1  0.81311673  0.06228485  0.56252455  1
  Zn  Zn158  1  0.81245307  0.56208643  0.06185461  1
  Zn  Zn159  1  0.81293260  0.56270335  0.56120224  1
  Zn  Zn160  1  0.43732816  0.43846385  0.18682302  1
  Zn  Zn161  1  0.43594540  0.43639747  0.68656613  1
  Zn  Zn162  1  0.43925195  0.93788274  0.18715902  1
  Zn  Zn163  1  0.43633942  0.93875040  0.68664666  1
  Zn  Zn164  1  0.93656154  0.43615210  0.18739221  1
  Zn  Zn165  1  0.93595889  0.43743895  0.68757502  1
  Zn  Zn166  1  0.93782654  0.93522084  0.18811666  1
  Zn  Zn167  1  0.93667024  0.93699932  0.68659054  1
  Zn  Zn168  1  0.06442543  0.06244531  0.31275886  1
  Zn  Zn169  1  0.06240687  0.06395285  0.81355250  1
  Zn  Zn170  1  0.06221938  0.56275920  0.31254704  1
  Zn  Zn171  1  0.06274632  0.56345000  0.81222594  1
  Zn  Zn172  1  0.56150759  0.06119420  0.31387924  1
  Zn  Zn173  1  0.56186986  0.06290837  0.81367935  1
  Zn  Zn174  1  0.56316525  0.56240406  0.31151451  1
  Zn  Zn175  1  0.56197451  0.56286118  0.81237107  1
  Zn  Zn176  1  0.43756664  0.18586895  0.43766666  1
  Zn  Zn177  1  0.44011768  0.18764606  0.93625102  1
  Zn  Zn178  1  0.43668718  0.68674366  0.43669003  1
  Zn  Zn179  1  0.43638114  0.68740893  0.93707278  1
  Zn  Zn180  1  0.93731720  0.18643517  0.43836251  1
  Zn  Zn181  1  0.93971214  0.18842377  0.93863395  1
  Zn  Zn182  1  0.93662445  0.68565765  0.43712126  1
  Zn  Zn183  1  0.93693077  0.68671867  0.93691609  1
  Zn  Zn184  1  0.06136900  0.31324684  0.06096088  1
  Zn  Zn185  1  0.06481844  0.31208699  0.56092265  1
  Zn  Zn186  1  0.06200977  0.81309156  0.06366528  1
  Zn  Zn187  1  0.06417393  0.81499514  0.56397922  1
  Zn  Zn188  1  0.56386730  0.31070900  0.06077141  1
  Zn  Zn189  1  0.56217960  0.31253860  0.56249238  1
  Zn  Zn190  1  0.56232330  0.81245523  0.06279400  1
  Zn  Zn191  1  0.56032050  0.81430219  0.56279710  1
  O  O192  1  0.11783045  0.11793782  0.12406066  1
  O  O193  1  0.11267396  0.12363681  0.62649582  1
  O  O194  1  0.11930094  0.61864799  0.11990443  1
  O  O195  1  0.11917521  0.61979855  0.61965131  1
  O  O196  1  0.61936918  0.12603297  0.11645329  1
  O  O197  1  0.62593625  0.11854639  0.61734184  1
  O  O198  1  0.61876311  0.62459875  0.11718647  1
  O  O199  1  0.61838832  0.62110263  0.62122944  1
  O  O200  1  0.38264536  0.38091104  0.37577420  1
  O  O201  1  0.37650510  0.37937503  0.88565416  1
  O  O202  1  0.37489009  0.88163079  0.38205514  1
  O  O203  1  0.38053457  0.87886120  0.88179555  1
  O  O204  1  0.88279840  0.38068134  0.37456781  1
  O  O205  1  0.88064421  0.38150411  0.87441023  1
  O  O206  1  0.87810812  0.88392969  0.37853902  1
  O  O207  1  0.88128188  0.87995869  0.88002687  1
  O  O208  1  0.25468373  0.00560509  0.37049714  1
  O  O209  1  0.25672209  0.00101956  0.86853888  1
  O  O210  1  0.25375521  0.50344098  0.37062586  1
  O  O211  1  0.24946253  0.50748921  0.86853138  1
  O  O212  1  0.75550152  0.00602931  0.37019287  1
  O  O213  1  0.76062113  0.00451812  0.87071540  1
  O  O214  1  0.75678337  0.49954844  0.36776916  1
  O  O215  1  0.75493282  0.50573640  0.87046376  1
  O  O216  1  0.24371609  0.49463627  0.13055281  1
  O  O217  1  0.24347333  0.49538206  0.62922505  1
  O  O218  1  0.24525526  0.99464229  0.13027773  1
  O  O219  1  0.24799567  1.00016851  0.63801962  1
  O  O220  1  0.75021376  0.49006852  0.13048269  1
  O  O221  1  0.75113661  0.49143614  0.62915678  1
  O  O222  1  0.74709749  0.99709995  0.13440219  1
  O  O223  1  0.74351534  0.99258737  0.62435232  1
  O  O224  1  0.00599193  0.36838816  0.25463880  1
  O  O225  1  0.00670279  0.37521667  0.75546925  1
  O  O226  1  0.00182730  0.86526691  0.25271970  1
  O  O227  1  -0.00068495  0.86792756  0.75729366  1
  O  O228  1  0.50570980  0.36934314  0.25353602  1
  O  O229  1  0.50274494  0.37529669  0.75485527  1
  O  O230  1  0.51002559  0.86892904  0.25191828  1
  O  O231  1  0.50462398  0.86923162  0.75575778  1
  O  O232  1  0.49482944  0.13060499  0.24583872  1
  O  O233  1  0.48784277  0.12571727  0.75013603  1
  O  O234  1  0.49947212  0.63165076  0.24271481  1
  O  O235  1  0.49158383  0.63221221  0.75130547  1
  O  O236  1  0.99446042  0.12997029  0.24461674  1
  O  O237  1  0.99150477  0.12604922  0.74054695  1
  O  O238  1  0.99423634  0.62905131  0.24353050  1
  O  O239  1  0.99384778  0.62998564  0.74409548  1
  O  O240  1  0.37038042  0.25578944  0.00622440  1
  O  O241  1  0.36210922  0.25108963  0.49919780  1
  O  O242  1  0.36871334  0.75524420  0.00617715  1
  O  O243  1  0.36947653  0.75472474  0.50431296  1
  O  O244  1  0.87310188  0.25226201  0.00772540  1
  O  O245  1  0.86791561  0.25115634  0.50529579  1
  O  O246  1  0.87048996  0.75446206  0.00403257  1
  O  O247  1  0.86587049  0.74965806  0.50541046  1
  O  O248  1  0.13598596  0.24737810  0.49326398  1
  O  O249  1  0.13038997  0.25201478  0.99138036  1
  O  O250  1  0.12920084  0.74306282  0.49560731  1
  O  O251  1  0.12963704  0.74349147  0.99611401  1
  O  O252  1  0.63110570  0.24415718  0.49281317  1
  O  O253  1  0.62652978  0.24050570  0.99178501  1
  O  O254  1  0.63188194  0.75215647  0.49091873  1
  O  O255  1  0.63037214  0.74557888  0.99365845  1
  O  O256  1  0.49425762  0.24497358  0.13102973  1
  O  O257  1  0.49667339  0.24737213  0.62774954  1
  O  O258  1  0.49436681  0.74516092  0.12970354  1
  O  O259  1  0.49226344  0.74960521  0.63183491  1
  O  O260  1  0.99571802  0.24500613  0.13044968  1
  O  O261  1  0.99570165  0.24112565  0.62394006  1
  O  O262  1  0.99450204  0.74298609  0.12976513  1
  O  O263  1  0.99397751  0.74408697  0.62944074  1
  O  O264  1  0.00547878  0.25327119  0.36947402  1
  O  O265  1  0.01019932  0.25794163  0.87461391  1
  O  O266  1  0.00555999  0.74838271  0.36973601  1
  O  O267  1  0.00411728  0.75395544  0.87013784  1
  O  O268  1  0.50535963  0.25437327  0.36925758  1
  O  O269  1  0.51209051  0.25252328  0.87354658  1
  O  O270  1  0.50947614  0.75107448  0.36951152  1
  O  O271  1  0.50526323  0.75560308  0.86975050  1
  O  O272  1  0.24985226  0.13292275  0.49498644  1
  O  O273  1  0.24718667  0.13490718  0.99802421  1
  O  O274  1  0.24413653  0.62930128  0.49490826  1
  O  O275  1  0.24403357  0.62980219  0.99646444  1
  O  O276  1  0.74474005  0.13018723  0.49361252  1
  O  O277  1  0.73931306  0.12781456  1.00000435  1
  O  O278  1  0.74750744  0.63752521  0.49828324  1
  O  O279  1  0.74494164  0.63023247  0.99356323  1
  O  O280  1  0.25497919  0.37156442  0.00766932  1
  O  O281  1  0.24971549  0.36503839  0.50485366  1
  O  O282  1  0.25557044  0.86815474  0.00619016  1
  O  O283  1  0.25634351  0.86759840  0.50113209  1
  O  O284  1  0.75147606  0.37429550  0.01223628  1
  O  O285  1  0.75200137  0.36940292  0.50774479  1
  O  O286  1  0.75661982  0.86838823  -0.00066148  1
  O  O287  1  0.75072515  0.86407800  0.50543951  1
  O  O288  1  0.12951431  0.49322813  0.24497562  1
  O  O289  1  0.13005364  0.49661004  0.74360958  1
  O  O290  1  0.13203760  0.99837818  0.24349324  1
  O  O291  1  0.13638498  1.00007820  0.75298759  1
  O  O292  1  0.63153548  0.49287307  0.24790135  1
  O  O293  1  0.63384579  0.49860906  0.74889803  1
  O  O294  1  0.63057847  0.99042758  0.25225327  1
  O  O295  1  0.62609137  0.99397760  0.74329495  1
  O  O296  1  0.36941629  0.00515106  0.25543091  1
  O  O297  1  0.36802857  0.00677652  0.75630572  1
  O  O298  1  0.36773003  0.50090423  0.25584115  1
  O  O299  1  0.36679188  0.50808938  0.75077304  1
  O  O300  1  0.87074303  0.00571477  0.25535019  1
  O  O301  1  0.87577622  0.00957623  0.75494465  1
  O  O302  1  0.87108494  0.50499246  0.25448177  1
  O  O303  1  0.86898962  0.50671049  0.75533558  1
  O  O304  1  0.11962354  0.36848765  0.36830110  1
  O  O305  1  0.11977064  0.36974608  0.86986898  1
  O  O306  1  0.12154709  0.86492476  0.37300007  1
  O  O307  1  0.11751418  0.86684508  0.87518198  1
  O  O308  1  0.62032568  0.36794084  0.36787780  1
  O  O309  1  0.62409149  0.36353274  0.87492253  1
  O  O310  1  0.62500139  0.86465826  0.36522338  1
  O  O311  1  0.62003597  0.87014444  0.86969780  1
  O  O312  1  0.38007837  0.13092809  0.13057429  1
  O  O313  1  0.37718204  0.12789743  0.63819673  1
  O  O314  1  0.38104444  0.63293758  0.12711029  1
  O  O315  1  0.37634657  0.63241759  0.63226364  1
  O  O316  1  0.88067644  0.12954610  0.13081530  1
  O  O317  1  0.88367179  0.12985375  0.63103536  1
  O  O318  1  0.88074656  0.62980801  0.12962082  1
  O  O319  1  0.88024708  0.63041133  0.63030994  1
  O  O320  1  0.25497136  0.25591608  0.12131799  1
  O  O321  1  0.24828290  0.25473217  0.61571669  1
  O  O322  1  0.25404054  0.75388221  0.12042380  1
  O  O323  1  0.25612678  0.75006993  0.61799985  1
  O  O324  1  0.75640937  0.25966965  0.12638711  1
  O  O325  1  0.75570181  0.25777250  0.61904036  1
  O  O326  1  0.75753682  0.75091593  0.11665924  1
  O  O327  1  0.75328308  0.75464339  0.61736681  1
  O  O328  1  0.24586033  0.24500945  0.38160564  1
  O  O329  1  0.23891885  0.25339619  0.88187859  1
  O  O330  1  0.24398964  0.74289032  0.38102306  1
  O  O331  1  0.24394092  0.74489295  0.88196193  1
  O  O332  1  0.74498258  0.24470122  0.37829391  1
  O  O333  1  0.74056369  0.24677318  0.87666440  1
  O  O334  1  0.74313168  0.74954350  0.38329441  1
  O  O335  1  0.74477103  0.74440493  0.87935179  1
  O  O336  1  0.00182368  0.11746576  0.00736610  1
  O  O337  1  0.00122523  0.11764536  0.50866513  1
  O  O338  1  0.00533678  0.61954779  0.00537277  1
  O  O339  1  0.00561392  0.61911825  0.50576954  1
  O  O340  1  0.50981650  0.12424169  0.00638354  1
  O  O341  1  0.50725769  0.11815424  0.49988604  1
  O  O342  1  0.50445841  0.61936645  0.00505483  1
  O  O343  1  0.50054723  0.61351153  0.49915641  1
  O  O344  1  0.50035565  0.38340509  0.49116739  1
  O  O345  1  0.49506722  0.38515610  1.00259429  1
  O  O346  1  0.49239278  0.88202513  0.49707601  1
  O  O347  1  0.49365685  0.87527728  0.99403282  1
  O  O348  1  0.99988084  0.38104658  0.49296730  1
  O  O349  1  0.99824781  0.38350185  0.99362958  1
  O  O350  1  0.99749648  0.88721966  0.49991886  1
  O  O351  1  0.99395210  0.87975528  0.99452225  1
  O  O352  1  0.49530451  0.49493990  0.37951259  1
  O  O353  1  0.49788270  0.50148809  0.88993419  1
  O  O354  1  0.49203446  0.99822345  0.38164819  1
  O  O355  1  0.49306003  0.99196309  0.87707965  1
  O  O356  1  0.99613916  0.49364248  0.37908685  1
  O  O357  1  0.99498966  0.49651387  0.87944389  1
  O  O358  1  0.99516545  1.00243723  0.38447739  1
  O  O359  1  0.99532967  0.99475667  0.88085177  1
  O  O360  1  0.00462921  0.00426450  0.12030671  1
  O  O361  1  -0.00152467  0.00945983  0.61665258  1
  O  O362  1  0.00501568  0.50472866  0.12051680  1
  O  O363  1  0.00505440  0.50557530  0.61967483  1
  O  O364  1  0.50374676  0.00848645  0.12327194  1
  O  O365  1  0.50718180  0.00173988  0.61751863  1
  O  O366  1  0.50151393  0.50622054  0.11567790  1
  O  O367  1  0.50037321  0.49900134  0.61113172  1
  O  O368  1  0.24423908  0.37923128  0.24517801  1
  O  O369  1  0.24385748  0.38204068  0.74467276  1
  O  O370  1  0.24862124  0.88135598  0.24344811  1
  O  O371  1  0.24994595  0.88685882  0.75070400  1
  O  O372  1  0.74574820  0.37931468  0.24164481  1
  O  O373  1  0.75032989  0.38127378  0.73931039  1
  O  O374  1  0.74145481  0.87994613  0.24945977  1
  O  O375  1  0.74233888  0.87523385  0.74285091  1
  O  O376  1  0.25663559  0.11949509  0.25480548  1
  O  O377  1  0.25891786  0.11655349  0.75476964  1
  O  O378  1  0.24965693  0.61678311  0.25733272  1
  O  O379  1  0.25375507  0.62104623  0.75589344  1
  O  O380  1  0.75528533  0.12025536  0.25548430  1
  O  O381  1  0.76557539  0.12380106  0.74826170  1
  O  O382  1  0.75691126  0.61804198  0.24930818  1
  O  O383  1  0.75512390  0.62065861  0.75504375  1
  O  O384  1  0.36956434  0.11923835  0.36867626  1
  O  O385  1  0.37377281  0.11906706  0.86841331  1
  O  O386  1  0.36709187  0.61782429  0.37273414  1
  O  O387  1  0.36652827  0.62487205  0.86886947  1
  O  O388  1  0.86940317  0.12022623  0.36860277  1
  O  O389  1  0.87848698  0.12111900  0.86505245  1
  O  O390  1  0.87378747  0.61701476  0.36723301  1
  O  O391  1  0.86907066  0.61991379  0.86891389  1
  O  O392  1  0.12975573  0.37999992  0.13048696  1
  O  O393  1  0.12956604  0.38107128  0.63033835  1
  O  O394  1  0.13192453  0.88079983  0.12647965  1
  O  O395  1  0.12848158  0.87899152  0.63185683  1
  O  O396  1  0.63520262  0.37400013  0.13081985  1
  O  O397  1  0.63930796  0.37637752  0.62563198  1
  O  O398  1  0.62720379  0.87488305  0.13730278  1
  O  O399  1  0.62953584  0.88020868  0.63009673  1
  O  O400  1  0.12029503  0.25454019  0.25448549  1
  O  O401  1  0.12471273  0.25732573  0.75982796  1
  O  O402  1  0.11749201  0.74853839  0.25711842  1
  O  O403  1  0.11745573  0.74900684  0.75807132  1
  O  O404  1  0.61928042  0.25409530  0.25567624  1
  O  O405  1  0.62458480  0.24944293  0.76063446  1
  O  O406  1  0.62242834  0.75713934  0.25633481  1
  O  O407  1  0.61893901  0.75600221  0.75574032  1
  O  O408  1  0.38027341  0.24431529  0.24481465  1
  O  O409  1  0.37323927  0.23933835  0.75197833  1
  O  O410  1  0.38172616  0.74962563  0.24456217  1
  O  O411  1  0.37872985  0.74589448  0.74529954  1
  O  O412  1  0.88170246  0.24353722  0.24475115  1
  O  O413  1  0.87897693  0.24113882  0.74320122  1
  O  O414  1  0.87912258  0.74385138  0.24485530  1
  O  O415  1  0.87966784  0.74396723  0.74455797  1
  O  O416  1  0.38384404  0.49724031  0.49244268  1
  O  O417  1  0.38381871  0.49540078  1.00144226  1
  O  O418  1  0.37884618  0.99594526  0.49543714  1
  O  O419  1  0.37513220  0.99301311  0.99464435  1
  O  O420  1  0.88257742  0.49959866  0.49227716  1
  O  O421  1  0.88146419  0.49947040  0.99237801  1
  O  O422  1  0.88476194  1.00128111  0.49413403  1
  O  O423  1  0.88100868  0.99491486  0.99468709  1
  O  O424  1  0.11849746  0.00072796  0.00619186  1
  O  O425  1  0.11445038  0.00340966  0.50178941  1
  O  O426  1  0.11940612  0.50520490  0.00610839  1
  O  O427  1  0.11973119  0.50520834  0.50508890  1
  O  O428  1  0.62389248  0.01124956  0.00046177  1
  O  O429  1  0.62009011  0.00446718  0.50341424  1
  O  O430  1  0.61620977  0.50689911  0.00176564  1
  O  O431  1  0.61416189  0.50257629  0.49708717  1
  O  O432  1  0.36877826  0.36903326  0.12096362  1
  O  O433  1  0.36396374  0.37185625  0.62212528  1
  O  O434  1  0.36925366  0.86947044  0.12043877  1
  O  O435  1  0.37189212  0.86856730  0.61827644  1
  O  O436  1  0.86619431  0.36876789  0.12527127  1
  O  O437  1  0.86588012  0.36964137  0.62292250  1
  O  O438  1  0.87446474  0.86755823  0.11720457  1
  O  O439  1  0.86800349  0.86749277  0.62333203  1
  O  O440  1  0.13314545  0.13154541  0.37543699  1
  O  O441  1  0.12546818  0.13917846  0.87698663  1
  O  O442  1  0.12996733  0.62871851  0.38166188  1
  O  O443  1  0.12951465  0.63027932  0.88174060  1
  O  O444  1  0.63098733  0.12988007  0.37947772  1
  O  O445  1  0.62646286  0.13181885  0.88296409  1
  O  O446  1  0.62830224  0.63875791  0.37412587  1
  O  O447  1  0.63037091  0.63218464  0.88031439  1
