# generated using pymatgen
data_V3Zn3O8
_symmetry_space_group_name_H-M   'P 1'
_cell_length_a   17.08762433
_cell_length_b   17.08788857
_cell_length_c   17.08696933
_cell_angle_alpha   90.00470996
_cell_angle_beta   89.99190798
_cell_angle_gamma   89.98968362
_symmetry_Int_Tables_number   1
_chemical_formula_structural   V3Zn3O8
_chemical_formula_sum   'V96 Zn96 O256'
_cell_volume   4989.24829652
_cell_formula_units_Z   32
loop_
 _symmetry_equiv_pos_site_id
 _symmetry_equiv_pos_as_xyz
  1  'x, y, z'
loop_
 _atom_site_type_symbol
 _atom_site_label
 _atom_site_symmetry_multiplicity
 _atom_site_fract_x
 _atom_site_fract_y
 _atom_site_fract_z
 _atom_site_occupancy
  V  V0  1  0.25089606  0.87509606  0.62431085  1
  V  V1  1  0.87540717  0.87529497  0.00045398  1
  V  V2  1  0.75007023  0.00013222  0.75119413  1
  V  V3  1  0.50032927  0.74957573  0.74956526  1
  V  V4  1  0.87450977  0.74974985  0.12522888  1
  V  V5  1  0.74937236  0.12500829  0.87541947  1
  V  V6  1  0.00033216  0.87536081  0.87424327  1
  V  V7  1  0.00008018  0.74899068  0.25067202  1
  V  V8  1  -0.00080269  0.12575313  0.12589033  1
  V  V9  1  0.49959661  0.37395489  0.87498487  1
  V  V10  1  0.00003781  0.25017384  0.25068639  1
  V  V11  1  0.12554902  0.37652800  0.74776805  1
  V  V12  1  0.62563975  0.00166858  0.12574519  1
  V  V13  1  0.25051582  -0.00029513  0.74951038  1
  V  V14  1  0.24926730  0.62396925  0.87327904  1
  V  V15  1  0.49906918  0.50129941  -0.00041960  1
  V  V16  1  0.37476708  0.24873520  0.12544722  1
  V  V17  1  0.87237471  0.49983018  0.87554542  1
  V  V18  1  -0.00003374  0.37440235  0.37550834  1
  V  V19  1  0.50231812  0.87592488  0.37521403  1
  V  V20  1  0.62433393  0.87491947  0.75050495  1
  V  V21  1  0.49897047  0.87579863  0.87517296  1
  V  V22  1  0.87499427  0.25014340  0.12589933  1
  V  V23  1  0.12581011  0.49982510  0.12433001  1
  V  V24  1  0.62357741  0.24924852  0.87529525  1
  V  V25  1  0.49851515  -0.00026922  -0.00054249  1
  V  V26  1  0.37515900  0.12498133  0.24980973  1
  V  V27  1  0.62660326  0.12503306  0.50007952  1
  V  V28  1  0.75134166  0.87617438  0.12606505  1
  V  V29  1  0.75036714  0.37459859  0.62573018  1
  V  V30  1  0.49855902  0.50093274  0.49838609  1
  V  V31  1  -0.00121136  0.62442257  0.12438972  1
  V  V32  1  0.12439759  0.25022390  0.37463357  1
  V  V33  1  0.75192288  0.00019004  0.25152298  1
  V  V34  1  -0.00005581  0.00008078  0.00067248  1
  V  V35  1  0.62463625  0.12538135  0.00016644  1
  V  V36  1  0.12525233  0.12431927  0.49946988  1
  V  V37  1  0.49974497  0.62491556  0.62442256  1
  V  V38  1  0.37568010  0.00162795  0.37426887  1
  V  V39  1  0.87431549  0.37464663  0.00114182  1
  V  V40  1  0.49914654  0.12529242  0.12571948  1
  V  V41  1  -0.00093661  0.49979169  0.00027887  1
  V  V42  1  0.00211940  0.62421488  0.62466118  1
  V  V43  1  0.00105843  0.87432568  0.37657246  1
  V  V44  1  0.12461856  0.12502677  0.00039628  1
  V  V45  1  0.12587842  0.74860383  0.37513780  1
  V  V46  1  -0.00342954  0.24776318  0.74888484  1
  V  V47  1  0.00071112  0.49990805  0.50081951  1
  V  V48  1  -0.00212062  0.37391816  0.87522118  1
  V  V49  1  0.25174765  0.75174132  0.00161807  1
  V  V50  1  0.12404340  0.24857186  0.87600952  1
  V  V51  1  0.62334941  0.50074372  0.12597182  1
  V  V52  1  0.25108150  0.62517288  0.37342250  1
  V  V53  1  0.62576187  0.00038729  0.62547656  1
  V  V54  1  0.25131820  0.50114305  0.24852731  1
  V  V55  1  0.37377101  0.12518099  0.74926047  1
  V  V56  1  0.87513572  0.37382107  0.50127002  1
  V  V57  1  0.12373362  0.75028848  0.87385128  1
  V  V58  1  0.37574581  0.50081202  0.37326502  1
  V  V59  1  0.87442376  0.62404261  0.25071489  1
  V  V60  1  0.25103071  0.75022069  0.49842135  1
  V  V61  1  0.75083768  0.62486855  0.37588451  1
  V  V62  1  0.00019985  0.12412818  0.62456299  1
  V  V63  1  0.49894708  0.25110150  0.75003432  1
  V  V64  1  0.37446733  0.25165810  0.62345689  1
  V  V65  1  0.75105204  0.87436175  0.62637229  1
  V  V66  1  0.00152208  -0.00047301  0.50012414  1
  V  V67  1  0.37590364  0.87506159  0.49991721  1
  V  V68  1  0.12609270  0.87442251  0.24848730  1
  V  V69  1  0.62463217  0.49982953  0.62527450  1
  V  V70  1  0.50089773  0.00025643  0.50002712  1
  V  V71  1  0.25094951  0.12482083  0.37398683  1
  V  V72  1  0.62555143  0.25198657  0.37425473  1
  V  V73  1  0.37494359  -0.00018124  0.87426286  1
  V  V74  1  0.62653588  0.87594344  0.25167904  1
  V  V75  1  0.37434104  0.37457187  -0.00036213  1
  V  V76  1  0.74953116  0.74878326  0.50052966  1
  V  V77  1  0.87665625  -0.00048325  0.37597794  1
  V  V78  1  0.12513297  -0.00198413  0.12571502  1
  V  V79  1  0.87430763  0.00081774  0.87527205  1
  V  V80  1  0.24838642  0.24955443  -0.00007509  1
  V  V81  1  0.12433845  0.62447131  -0.00183961  1
  V  V82  1  0.25065780  0.25098921  0.49963976  1
  V  V83  1  0.75151923  0.12398103  0.37631785  1
  V  V84  1  0.87482936  0.74949963  0.62662605  1
  V  V85  1  0.74886089  0.75014554  -0.00075486  1
  V  V86  1  0.50002341  0.75094719  0.24818392  1
  V  V87  1  0.50039255  0.12608305  0.62458926  1
  V  V88  1  0.87300572  0.62328109  0.75165301  1
  V  V89  1  0.87484253  0.49996590  0.37470214  1
  V  V90  1  0.24968987  0.37613523  0.12463581  1
  V  V91  1  0.62600683  0.74967525  0.87600104  1
  V  V92  1  0.37362929  0.62401061  0.74972854  1
  V  V93  1  0.74844563  0.37472100  0.12688662  1
  V  V94  1  0.12551932  0.87561867  0.74966935  1
  V  V95  1  0.37463681  0.37573748  0.49824332  1
  Zn  Zn96  1  0.12685537  0.49912088  0.62349205  1
  Zn  Zn97  1  0.37596520  0.74969373  0.62296171  1
  Zn  Zn98  1  -0.00045051  0.75132922  0.74985533  1
  Zn  Zn99  1  0.87237515  0.24740792  0.62378462  1
  Zn  Zn100  1  0.24949120  0.37857199  0.62409094  1
  Zn  Zn101  1  0.75177297  0.24876753  0.50132096  1
  Zn  Zn102  1  0.62607673  0.74884103  0.37491076  1
  Zn  Zn103  1  0.87572798  0.12479172  0.25070356  1
  Zn  Zn104  1  0.87394248  0.12404615  0.74888583  1
  Zn  Zn105  1  0.62539709  0.62565569  -0.00187788  1
  Zn  Zn106  1  0.74749112  0.62270540  0.87687403  1
  Zn  Zn107  1  0.50043976  0.63001874  0.12275829  1
  Zn  Zn108  1  0.12581220  -0.00024925  0.62429820  1
  Zn  Zn109  1  0.12541072  0.37578321  0.25028718  1
  Zn  Zn110  1  0.37695120  0.75185269  0.12309468  1
  Zn  Zn111  1  0.37245855  0.49830028  0.87414312  1
  Zn  Zn112  1  0.87767604  0.87457548  0.50220573  1
  Zn  Zn113  1  0.37742196  0.62610312  0.24547733  1
  Zn  Zn114  1  0.50054462  0.25191549  0.25007809  1
  Zn  Zn115  1  0.62451839  0.37434630  0.75077207  1
  Zn  Zn116  1  0.62310100  0.37533204  0.25165837  1
  Zn  Zn117  1  0.25085788  -0.00220330  0.24792705  1
  Zn  Zn118  1  0.12705868  0.62283950  0.50002787  1
  Zn  Zn119  1  0.74640988  0.49866662  0.75394369  1
  Zn  Zn120  1  0.25281123  0.87515835  0.12595528  1
  Zn  Zn121  1  0.37397968  0.87569922  0.00163427  1
  Zn  Zn122  1  0.24928299  0.12390177  0.87469430  1
  Zn  Zn123  1  0.74758410  0.50113592  0.25151820  1
  Zn  Zn124  1  0.74949467  0.24905346  0.00008020  1
  Zn  Zn125  1  0.50137259  0.37641213  0.37200979  1
  Zn  Zn126  1  0.62310715  0.62544445  0.49815355  1
  Zn  Zn127  1  0.24870834  0.49972751  0.74843796  1
  Zn  Zn128  1  0.18714372  0.18688780  0.18845953  1
  Zn  Zn129  1  0.18742246  0.18786594  0.68556537  1
  Zn  Zn130  1  0.18720916  0.68614190  0.18707704  1
  Zn  Zn131  1  0.18851433  0.69097424  0.68691267  1
  Zn  Zn132  1  0.68889741  0.18689017  0.18994541  1
  Zn  Zn133  1  0.68671346  0.18834344  0.68915567  1
  Zn  Zn134  1  0.68610742  0.68694132  0.18730807  1
  Zn  Zn135  1  0.68703606  0.68589708  0.68815684  1
  Zn  Zn136  1  0.31282090  0.31384426  0.31159255  1
  Zn  Zn137  1  0.31143492  0.31146757  0.81337182  1
  Zn  Zn138  1  0.31393879  0.81371171  0.31215596  1
  Zn  Zn139  1  0.31284844  0.81147345  0.81306572  1
  Zn  Zn140  1  0.81195927  0.31190862  0.31226349  1
  Zn  Zn141  1  0.80963997  0.31287977  0.81261632  1
  Zn  Zn142  1  0.81467293  0.81282648  0.31430387  1
  Zn  Zn143  1  0.81273116  0.81184609  0.81314757  1
  Zn  Zn144  1  0.18742225  0.43833946  0.43664864  1
  Zn  Zn145  1  0.18692503  0.43763240  0.93480586  1
  Zn  Zn146  1  0.18830778  0.93753092  0.43611476  1
  Zn  Zn147  1  0.18730017  0.93746093  0.93630006  1
  Zn  Zn148  1  0.68852420  0.43779395  0.44037660  1
  Zn  Zn149  1  0.68613798  0.43569770  0.93924684  1
  Zn  Zn150  1  0.68945382  0.93637870  0.43900097  1
  Zn  Zn151  1  0.68660709  0.93758424  0.93818599  1
  Zn  Zn152  1  0.31070151  0.06169676  0.06251036  1
  Zn  Zn153  1  0.31261726  0.06259771  0.56222885  1
  Zn  Zn154  1  0.31590860  0.56677494  0.06456274  1
  Zn  Zn155  1  0.31026619  0.56124408  0.56317152  1
  Zn  Zn156  1  0.81267261  0.06394278  0.06256920  1
  Zn  Zn157  1  0.81507601  0.06202959  0.56231155  1
  Zn  Zn158  1  0.80999215  0.56295220  0.06173716  1
  Zn  Zn159  1  0.81311220  0.56104974  0.56295898  1
  Zn  Zn160  1  0.43861804  0.43486290  0.18930165  1
  Zn  Zn161  1  0.43683270  0.43759272  0.68659834  1
  Zn  Zn162  1  0.43544912  0.93549040  0.18605938  1
  Zn  Zn163  1  0.43669085  0.93745618  0.68706485  1
  Zn  Zn164  1  0.93740299  0.43684309  0.18932195  1
  Zn  Zn165  1  0.93673082  0.43842421  0.68764343  1
  Zn  Zn166  1  0.93889608  0.93726754  0.18940883  1
  Zn  Zn167  1  0.93777880  0.93828350  0.68739872  1
  Zn  Zn168  1  0.06319276  0.06233927  0.31143082  1
  Zn  Zn169  1  0.06372192  0.06159395  0.81244324  1
  Zn  Zn170  1  0.06387901  0.56179337  0.31253650  1
  Zn  Zn171  1  0.05964278  0.56159326  0.81257523  1
  Zn  Zn172  1  0.56329914  0.06494310  0.31205760  1
  Zn  Zn173  1  0.56158831  0.06356097  0.81239236  1
  Zn  Zn174  1  0.56381077  0.56580132  0.31272422  1
  Zn  Zn175  1  0.56163396  0.56285516  0.81281654  1
  Zn  Zn176  1  0.43937642  0.18879477  0.43681631  1
  Zn  Zn177  1  0.43628625  0.18610055  0.93736977  1
  Zn  Zn178  1  0.43690766  0.68756665  0.43442879  1
  Zn  Zn179  1  0.43707387  0.68667858  0.93530543  1
  Zn  Zn180  1  0.93660330  0.18735293  0.43862424  1
  Zn  Zn181  1  0.93576431  0.18733652  0.93850421  1
  Zn  Zn182  1  0.93696566  0.68688518  0.43905880  1
  Zn  Zn183  1  0.93659130  0.68847767  0.93692033  1
  Zn  Zn184  1  0.06245638  0.31306314  0.06382043  1
  Zn  Zn185  1  0.06168128  0.31080360  0.56293323  1
  Zn  Zn186  1  0.06340003  0.81183445  0.06204545  1
  Zn  Zn187  1  0.06508231  0.81123714  0.56293240  1
  Zn  Zn188  1  0.56168590  0.31230894  0.06177357  1
  Zn  Zn189  1  0.56214962  0.31392538  0.55916349  1
  Zn  Zn190  1  0.56448202  0.81626567  0.06242954  1
  Zn  Zn191  1  0.56355484  0.81222432  0.56360356  1
  O  O192  1  0.11820064  0.11932363  0.11974643  1
  O  O193  1  0.11823458  0.12345548  0.61723261  1
  O  O194  1  0.11767686  0.61941159  0.11792247  1
  O  O195  1  0.11166141  0.62523252  0.62617334  1
  O  O196  1  0.62023045  0.12007982  0.12043136  1
  O  O197  1  0.61984230  0.11968024  0.62026597  1
  O  O198  1  0.62320794  0.61300349  0.12106014  1
  O  O199  1  0.61936438  0.61493466  0.62452640  1
  O  O200  1  0.37585463  0.38264007  0.38105713  1
  O  O201  1  0.38079279  0.37594770  0.88186200  1
  O  O202  1  0.38228180  0.88241082  0.38090285  1
  O  O203  1  0.38228667  0.88195068  0.87508626  1
  O  O204  1  0.87991700  0.38015193  0.38077738  1
  O  O205  1  0.87892004  0.37950294  0.88087418  1
  O  O206  1  0.88379214  0.88085060  0.37760637  1
  O  O207  1  0.87991710  0.88077883  0.88125796  1
  O  O208  1  0.25792601  0.00751325  0.37401544  1
  O  O209  1  0.25678426  0.00097634  0.86754639  1
  O  O210  1  0.25495965  0.50569422  0.36851661  1
  O  O211  1  0.25148902  0.50840117  0.87085508  1
  O  O212  1  0.75629129  0.00376255  0.37110645  1
  O  O213  1  0.75420853  0.00467785  0.87058243  1
  O  O214  1  0.75700880  0.50681916  0.37498299  1
  O  O215  1  0.75637397  0.50131244  0.87434740  1
  O  O216  1  0.24519159  0.49606475  0.12781852  1
  O  O217  1  0.24411352  0.49667272  0.63039598  1
  O  O218  1  0.23978345  0.99730111  0.12616927  1
  O  O219  1  0.24992250  0.99318756  0.63113640  1
  O  O220  1  0.74073945  0.49166563  0.12388936  1
  O  O221  1  0.74104985  0.49230172  0.62534117  1
  O  O222  1  0.74591765  0.99537038  0.13084756  1
  O  O223  1  0.74496149  0.99460686  0.63076738  1
  O  O224  1  0.00169160  0.36867524  0.25745923  1
  O  O225  1  0.00488053  0.36663785  0.75491260  1
  O  O226  1  0.00545448  0.86726080  0.25616391  1
  O  O227  1  0.00642891  0.87454100  0.75670744  1
  O  O228  1  0.50501944  0.36920029  0.25412733  1
  O  O229  1  0.49919683  0.36808181  0.75661151  1
  O  O230  1  0.50728227  0.87084136  0.25584462  1
  O  O231  1  0.50557108  0.87008421  0.75443301  1
  O  O232  1  0.49337685  0.12667004  0.24280064  1
  O  O233  1  0.49413556  0.13067179  0.74345837  1
  O  O234  1  0.50205271  0.63992841  0.24879720  1
  O  O235  1  0.49229808  0.63012290  0.74521927  1
  O  O236  1  0.99881752  0.13183611  0.24338355  1
  O  O237  1  1.00056995  0.13333234  0.74503567  1
  O  O238  1  0.99441160  0.62984034  0.24424325  1
  O  O239  1  0.98951891  0.62566572  0.74186265  1
  O  O240  1  0.36849105  0.25417822  0.00547350  1
  O  O241  1  0.37048926  0.25502518  0.50388419  1
  O  O242  1  0.36272964  0.75097700  -0.00343071  1
  O  O243  1  0.36948157  0.75809584  0.49919618  1
  O  O244  1  0.87384112  0.25758173  0.00753235  1
  O  O245  1  0.87286794  0.25879926  0.50286821  1
  O  O246  1  0.87031080  0.75649488  0.00597011  1
  O  O247  1  0.86464526  0.75064040  0.50746712  1
  O  O248  1  0.12986454  0.24411745  0.49385917  1
  O  O249  1  0.12830905  0.24499771  0.99560605  1
  O  O250  1  0.13283409  0.74794159  0.49212029  1
  O  O251  1  0.13048256  0.74330512  0.99367575  1
  O  O252  1  0.62738141  0.24319868  0.49171776  1
  O  O253  1  0.62485521  0.24220884  0.99320129  1
  O  O254  1  0.63863277  0.74854783  0.50076939  1
  O  O255  1  0.63117808  0.75102899  0.99397610  1
  O  O256  1  0.49262223  0.24228750  0.12412483  1
  O  O257  1  0.49496532  0.24498350  0.62903309  1
  O  O258  1  0.50319856  0.75319470  0.13595025  1
  O  O259  1  0.49999491  0.74354083  0.63175802  1
  O  O260  1  0.99504604  0.24584759  0.13053232  1
  O  O261  1  0.99829157  0.24355669  0.63445783  1
  O  O262  1  0.99401002  0.74381319  0.12988661  1
  O  O263  1  0.99367460  0.74064995  0.62556215  1
  O  O264  1  0.00492575  0.25495686  0.37059022  1
  O  O265  1  0.00381272  0.25434470  0.86801518  1
  O  O266  1  0.00470366  0.75354047  0.37006847  1
  O  O267  1  0.00572642  0.75762489  0.87463636  1
  O  O268  1  0.51359241  0.25024490  0.37465267  1
  O  O269  1  0.50367793  0.25408559  0.87003195  1
  O  O270  1  0.50386397  0.75796432  0.36729177  1
  O  O271  1  0.50611746  0.75607162  0.86919912  1
  O  O272  1  0.24564903  0.13086056  0.49378801  1
  O  O273  1  0.24181343  0.13184419  0.99895334  1
  O  O274  1  0.24942668  0.63203926  0.49236864  1
  O  O275  1  0.24366370  0.63161849  0.99342337  1
  O  O276  1  0.74360462  0.12463996  0.49475219  1
  O  O277  1  0.74243154  0.12554497  0.99375046  1
  O  O278  1  0.75106653  0.63394570  0.49553832  1
  O  O279  1  0.74827442  0.63495869  0.99771794  1
  O  O280  1  0.25409639  0.36989900  0.00459001  1
  O  O281  1  0.25620158  0.36785199  0.49979550  1
  O  O282  1  0.24829214  0.86213185  -0.00096983  1
  O  O283  1  0.25656456  0.87061636  0.50381226  1
  O  O284  1  0.75587923  0.37307940  0.01145585  1
  O  O285  1  0.75638569  0.37496704  0.51147158  1
  O  O286  1  0.75614878  0.87144136  0.00683368  1
  O  O287  1  0.75250898  0.86566470  0.50763325  1
  O  O288  1  0.13182709  0.49919341  0.24172427  1
  O  O289  1  0.12150020  0.48658758  0.75024398  1
  O  O290  1  0.12490178  0.99224268  0.24347299  1
  O  O291  1  0.13250903  0.99319689  0.74902962  1
  O  O292  1  0.62569952  0.49837099  0.23771039  1
  O  O293  1  0.62374141  0.49751564  0.73736774  1
  O  O294  1  0.63187063  0.99573102  0.24505699  1
  O  O295  1  0.62971783  0.99475339  0.74473856  1
  O  O296  1  0.37441887  0.00663868  0.25691333  1
  O  O297  1  0.37068158  0.00589291  0.75432925  1
  O  O298  1  0.36878499  0.50123017  0.25510436  1
  O  O299  1  0.37520485  0.51268345  0.75152029  1
  O  O300  1  0.86959585  0.00044370  0.25730378  1
  O  O301  1  0.86756674  0.00003368  0.75797694  1
  O  O302  1  0.87420777  0.50719070  0.25658825  1
  O  O303  1  0.87443310  0.50823953  0.75708692  1
  O  O304  1  0.11761380  0.36787067  0.37410747  1
  O  O305  1  0.11709452  0.36860358  0.86825630  1
  O  O306  1  0.11977508  0.86834977  0.36873917  1
  O  O307  1  0.11890197  0.87010665  0.86958865  1
  O  O308  1  0.62755308  0.36453793  0.37531461  1
  O  O309  1  0.61784572  0.36747826  0.87408519  1
  O  O310  1  0.62026319  0.87482066  0.36915327  1
  O  O311  1  0.61890583  0.87094153  0.86885132  1
  O  O312  1  0.37954128  0.12920694  0.12962324  1
  O  O313  1  0.38149856  0.13116058  0.62900536  1
  O  O314  1  0.38244451  0.63306406  0.12817745  1
  O  O315  1  0.38101871  0.62649947  0.63409632  1
  O  O316  1  0.88175418  0.13173257  0.12579739  1
  O  O317  1  0.88343638  0.12741106  0.62904140  1
  O  O318  1  0.87981127  0.63013522  0.12977809  1
  O  O319  1  0.88253708  0.62780136  0.63311160  1
  O  O320  1  0.25417680  0.25552603  0.11915375  1
  O  O321  1  0.25704784  0.25132946  0.61689289  1
  O  O322  1  0.24752485  0.74934480  0.11120380  1
  O  O323  1  0.25256837  0.75736659  0.61672098  1
  O  O324  1  0.75490097  0.25865682  0.12413049  1
  O  O325  1  0.74993150  0.26122186  0.62467723  1
  O  O326  1  0.75554603  0.75697516  0.12063630  1
  O  O327  1  0.75455945  0.75355213  0.61925435  1
  O  O328  1  0.24482121  0.24442933  0.38009602  1
  O  O329  1  0.24190875  0.24795089  0.88242476  1
  O  O330  1  0.24531707  0.74521950  0.37871594  1
  O  O331  1  0.24301496  0.74374676  0.88183701  1
  O  O332  1  0.74251153  0.24316750  0.37719941  1
  O  O333  1  0.74260836  0.24353744  0.87653082  1
  O  O334  1  0.75209307  0.74462628  0.38545782  1
  O  O335  1  0.74340198  0.75110354  0.88193846  1
  O  O336  1  0.00488354  0.11947321  0.00598060  1
  O  O337  1  0.00621878  0.11981450  0.50469026  1
  O  O338  1  0.00374290  0.61958527  0.00503602  1
  O  O339  1  -0.00080792  0.61950175  0.51040902  1
  O  O340  1  0.50496884  0.11870690  0.00567059  1
  O  O341  1  0.50603029  0.11914199  0.50581576  1
  O  O342  1  0.50149856  0.61284192  -0.00044934  1
  O  O343  1  0.50052390  0.61962468  0.50651378  1
  O  O344  1  0.49250164  0.38303266  0.49675687  1
  O  O345  1  0.49360769  0.38159226  0.99482170  1
  O  O346  1  0.49689893  0.88105858  0.49565060  1
  O  O347  1  0.50027070  0.88317764  0.99225256  1
  O  O348  1  0.99452662  0.37970836  0.49520912  1
  O  O349  1  0.99437231  0.38028552  0.99495350  1
  O  O350  1  1.00067878  0.88032625  0.49421520  1
  O  O351  1  0.99464275  0.88047487  0.99486739  1
  O  O352  1  0.49441385  0.50131425  0.38132629  1
  O  O353  1  0.49999266  0.49311248  0.88505761  1
  O  O354  1  0.49598856  0.99635327  0.38114936  1
  O  O355  1  0.49500858  0.99540114  0.87931106  1
  O  O356  1  0.99445239  0.49500655  0.38026698  1
  O  O357  1  0.99282793  0.49337323  0.88162866  1
  O  O358  1  0.99643814  0.99431496  0.38033231  1
  O  O359  1  0.99454861  0.99518287  0.88152436  1
  O  O360  1  0.00426059  0.00509855  0.11948820  1
  O  O361  1  0.00252106  0.00621468  0.61854635  1
  O  O362  1  0.00438989  0.50502094  0.11943755  1
  O  O363  1  -0.00037671  0.50932384  0.61946212  1
  O  O364  1  0.50632939  0.00549965  0.11981757  1
  O  O365  1  0.50620668  0.00587013  0.62007579  1
  O  O366  1  0.50818139  0.49679070  0.11510097  1
  O  O367  1  0.50697638  0.50462099  0.61904821  1
  O  O368  1  0.24830866  0.38237874  0.24196016  1
  O  O369  1  0.23686121  0.37352257  0.75009928  1
  O  O370  1  0.24058523  0.87574108  0.24827180  1
  O  O371  1  0.24594345  0.87950883  0.74465234  1
  O  O372  1  0.74912859  0.37836790  0.23715216  1
  O  O373  1  0.74739854  0.37797736  0.73895592  1
  O  O374  1  0.74681289  0.88025496  0.24532563  1
  O  O375  1  0.74381507  0.88003183  0.74584542  1
  O  O376  1  0.25678564  0.12319037  0.25672828  1
  O  O377  1  0.25630640  0.11912352  0.75012730  1
  O  O378  1  0.25184235  0.61893278  0.25548514  1
  O  O379  1  0.25832750  0.62711514  0.75454197  1
  O  O380  1  0.75274659  0.11668117  0.25736889  1
  O  O381  1  0.75018191  0.11773646  0.75694358  1
  O  O382  1  0.75732578  0.62496654  0.25701307  1
  O  O383  1  0.76287312  0.62183878  0.75045993  1
  O  O384  1  0.37095981  0.12098225  0.37024496  1
  O  O385  1  0.37381985  0.11840135  0.86668585  1
  O  O386  1  0.36822564  0.61809100  0.37063356  1
  O  O387  1  0.36924321  0.62373176  0.86432581  1
  O  O388  1  0.86935139  0.11749941  0.37446641  1
  O  O389  1  0.86827003  0.11814743  0.87434840  1
  O  O390  1  0.87088599  0.61952770  0.37010797  1
  O  O391  1  0.87534378  0.61955814  0.86613633  1
  O  O392  1  0.13155018  0.38259173  0.12497369  1
  O  O393  1  0.12386489  0.37391131  0.63698759  1
  O  O394  1  0.12363763  0.88058257  0.13144644  1
  O  O395  1  0.13257710  0.87654922  0.63160261  1
  O  O396  1  0.63350670  0.38168862  0.12391009  1
  O  O397  1  0.63209568  0.38314125  0.62458407  1
  O  O398  1  0.63284035  0.88346812  0.13119786  1
  O  O399  1  0.63050725  0.88116358  0.63150003  1
  O  O400  1  0.11841488  0.25180755  0.25676931  1
  O  O401  1  0.11516494  0.25596049  0.75483054  1
  O  O402  1  0.11835630  0.75370402  0.25483115  1
  O  O403  1  0.12300653  0.75741853  0.75705130  1
  O  O404  1  0.62510719  0.24948179  0.26250789  1
  O  O405  1  0.61579447  0.25037927  0.75717504  1
  O  O406  1  0.61881434  0.75869083  0.25143785  1
  O  O407  1  0.62035551  0.75591410  0.75485705  1
  O  O408  1  0.37514496  0.24272916  0.24277315  1
  O  O409  1  0.37972646  0.24488351  0.74397510  1
  O  O410  1  0.38943027  0.75259052  0.24983908  1
  O  O411  1  0.38127831  0.74007709  0.74848170  1
  O  O412  1  0.88204166  0.24843822  0.24360140  1
  O  O413  1  0.88769331  0.24924614  0.75070418  1
  O  O414  1  0.88074066  0.74442329  0.24450778  1
  O  O415  1  0.87602187  0.74015525  0.74559052  1
  O  O416  1  0.37938687  0.49539728  0.49360314  1
  O  O417  1  0.38457490  0.49365506  0.99996665  1
  O  O418  1  0.38216360  0.99567776  0.49448599  1
  O  O419  1  0.38113945  1.00035400  0.99236573  1
  O  O420  1  0.88132363  0.49406264  0.49429845  1
  O  O421  1  0.88024122  0.49466606  0.99590208  1
  O  O422  1  0.88333107  0.99693909  0.49376224  1
  O  O423  1  0.88045049  0.99432055  0.99559527  1
  O  O424  1  0.11818538  0.00467408  0.00462680  1
  O  O425  1  0.11931495  0.00686795  0.49979436  1
  O  O426  1  0.11828561  0.50527168  0.00397060  1
  O  O427  1  0.11589692  0.50275266  0.50191069  1
  O  O428  1  0.61915564  0.00560108  0.00617070  1
  O  O429  1  0.62032495  0.00465309  0.50638374  1
  O  O430  1  0.61512431  0.49861198  0.00826283  1
  O  O431  1  0.61867147  0.50165753  0.51112859  1
  O  O432  1  0.36880068  0.36868727  0.11852234  1
  O  O433  1  0.37379849  0.36843336  0.61745257  1
  O  O434  1  0.37055711  0.87046893  0.11921956  1
  O  O435  1  0.37012686  0.87345472  0.61753989  1
  O  O436  1  0.86757025  0.37131001  0.12060766  1
  O  O437  1  0.86602252  0.37527001  0.62053531  1
  O  O438  1  0.87101606  0.86959829  0.12040989  1
  O  O439  1  0.86844106  0.86767319  0.62602627  1
  O  O440  1  0.13048736  0.13075683  0.38015808  1
  O  O441  1  0.12503636  0.13117307  0.88278842  1
  O  O442  1  0.13170453  0.63176827  0.37573385  1
  O  O443  1  0.12778046  0.62973203  0.87919785  1
  O  O444  1  0.63148886  0.13080257  0.38096222  1
  O  O445  1  0.62914685  0.12910047  0.88074969  1
  O  O446  1  0.63581436  0.62784523  0.37842370  1
  O  O447  1  0.62740843  0.63364205  0.87562466  1
