# generated using pymatgen
data_V3Zn3O8
_symmetry_space_group_name_H-M   'P 1'
_cell_length_a   17.08710397
_cell_length_b   17.08755602
_cell_length_c   17.08790198
_cell_angle_alpha   89.99151500
_cell_angle_beta   89.99166457
_cell_angle_gamma   89.99337570
_symmetry_Int_Tables_number   1
_chemical_formula_structural   V3Zn3O8
_chemical_formula_sum   'V96 Zn96 O256'
_cell_volume   4989.27158990
_cell_formula_units_Z   32
loop_
 _symmetry_equiv_pos_site_id
 _symmetry_equiv_pos_as_xyz
  1  'x, y, z'
loop_
 _atom_site_type_symbol
 _atom_site_label
 _atom_site_symmetry_multiplicity
 _atom_site_fract_x
 _atom_site_fract_y
 _atom_site_fract_z
 _atom_site_occupancy
  V  V0  1  0.37497655  -0.00035841  0.87317852  1
  V  V1  1  -0.00147245  0.62480657  0.62496273  1
  V  V2  1  0.75006716  0.62463156  0.37548968  1
  V  V3  1  0.62531605  0.75023870  0.37478558  1
  V  V4  1  0.62326413  0.49962526  0.62543502  1
  V  V5  1  0.12574399  0.50010978  0.12456867  1
  V  V6  1  0.87528123  0.74996120  0.12561884  1
  V  V7  1  0.62512120  0.25048383  0.37588291  1
  V  V8  1  0.74914081  0.74970007  0.50009600  1
  V  V9  1  0.87512508  0.50083629  0.37575286  1
  V  V10  1  0.87547981  0.25162246  0.12370207  1
  V  V11  1  0.12344006  0.37397373  0.74920449  1
  V  V12  1  0.25008270  0.49993664  0.24838983  1
  V  V13  1  0.49916657  0.37518810  0.37465997  1
  V  V14  1  0.75120665  0.87533677  0.62495029  1
  V  V15  1  0.12477643  0.12397537  0.49928730  1
  V  V16  1  -0.00091658  0.49940849  -0.00020346  1
  V  V17  1  0.37399606  0.50021641  0.37443607  1
  V  V18  1  0.12537015  0.62579202  0.49940374  1
  V  V19  1  0.74962257  0.25062751  0.50086715  1
  V  V20  1  0.87529564  0.87501233  0.00058215  1
  V  V21  1  0.74920861  0.49974481  0.25049682  1
  V  V22  1  0.12584930  0.75024534  0.37502339  1
  V  V23  1  -0.00125348  0.49976662  0.49952705  1
  V  V24  1  0.74965188  0.75054290  0.00050999  1
  V  V25  1  0.12321910  0.50018879  0.62462535  1
  V  V26  1  0.49958876  -0.00081682  0.49918275  1
  V  V27  1  0.24779161  0.37480491  0.62307734  1
  V  V28  1  0.50086615  0.50040905  -0.00039389  1
  V  V29  1  0.37532937  0.87512879  0.00133882  1
  V  V30  1  0.62489102  0.62478824  0.00012040  1
  V  V31  1  0.00001816  0.24859380  0.74941074  1
  V  V32  1  0.87466055  0.62598614  0.25002462  1
  V  V33  1  0.12472348  0.62415778  -0.00023818  1
  V  V34  1  0.37508587  0.24776526  0.62579097  1
  V  V35  1  0.62480159  0.24956373  0.87467418  1
  V  V36  1  0.25071190  0.62348365  0.87363364  1
  V  V37  1  0.50015021  0.25024314  0.25047276  1
  V  V38  1  0.75156143  0.62523616  0.87497170  1
  V  V39  1  0.74986788  0.00057531  0.25046668  1
  V  V40  1  0.62385157  0.62440002  0.50162064  1
  V  V41  1  0.37459455  0.25063719  0.12438635  1
  V  V42  1  0.24895908  0.50024438  0.74942217  1
  V  V43  1  0.87573691  -0.00008404  0.87545252  1
  V  V44  1  0.87604609  0.12556487  0.74993220  1
  V  V45  1  0.37549242  0.37455458  -0.00099646  1
  V  V46  1  0.25173705  0.12441861  0.87373241  1
  V  V47  1  0.87533526  0.87518845  0.49966200  1
  V  V48  1  0.75043464  0.37451128  0.62559625  1
  V  V49  1  0.37479048  0.12448230  0.25014132  1
  V  V50  1  0.75032231  0.37508917  0.12609732  1
  V  V51  1  0.00122825  0.00053138  0.50051014  1
  V  V52  1  0.37478375  0.62516145  0.24864010  1
  V  V53  1  0.49996439  0.37320940  0.87428203  1
  V  V54  1  0.37357162  0.87256818  0.50217857  1
  V  V55  1  0.50071330  0.12545839  0.12581269  1
  V  V56  1  0.87503062  0.74889192  0.62512792  1
  V  V57  1  0.00001401  0.37505094  0.37474390  1
  V  V58  1  0.50141397  0.75012346  0.24978860  1
  V  V59  1  0.87434790  0.00056773  0.37499689  1
  V  V60  1  0.37500147  0.74926430  0.12433145  1
  V  V61  1  0.50035188  0.00016589  0.00066599  1
  V  V62  1  0.49902283  0.50071928  0.50053180  1
  V  V63  1  0.62578622  0.87545834  0.75125768  1
  V  V64  1  0.24783231  0.24895892  0.49749377  1
  V  V65  1  0.62633134  0.12608884  -0.00008879  1
  V  V66  1  0.25020774  0.37547354  0.12397237  1
  V  V67  1  0.25028713  0.87495748  0.12562294  1
  V  V68  1  0.24960395  0.12511701  0.37351233  1
  V  V69  1  0.00151903  0.12465523  0.12396321  1
  V  V70  1  0.00064594  0.25071954  0.25007630  1
  V  V71  1  0.00066579  0.00071542  0.00113351  1
  V  V72  1  0.62465886  0.12451457  0.50090096  1
  V  V73  1  0.62316896  0.37400127  0.75020752  1
  V  V74  1  0.87461897  0.62470518  0.75003810  1
  V  V75  1  0.00071505  0.87510981  0.37420637  1
  V  V76  1  0.12588559  0.24947134  0.87661243  1
  V  V77  1  0.25093450  0.00025097  0.24925595  1
  V  V78  1  0.62559988  0.00108965  0.62507378  1
  V  V79  1  0.24940504  0.62572538  0.37577125  1
  V  V80  1  0.49895421  0.74858668  0.74865849  1
  V  V81  1  0.62565006  0.75137058  0.87538672  1
  V  V82  1  0.75096412  0.12532620  0.37524391  1
  V  V83  1  0.12604089  0.87521067  0.24991117  1
  V  V84  1  0.62572234  0.37578949  0.25003385  1
  V  V85  1  0.12348838  0.75082011  0.87345101  1
  V  V86  1  0.00109742  0.12383284  0.62467841  1
  V  V87  1  0.87494123  0.50036296  0.87549754  1
  V  V88  1  0.37286357  0.37520504  0.49836142  1
  V  V89  1  0.62638172  0.00048763  0.12575340  1
  V  V90  1  0.87416834  0.37624028  -0.00002803  1
  V  V91  1  0.74974233  0.87641535  0.12556098  1
  V  V92  1  0.74996061  0.12558416  0.87590231  1
  V  V93  1  -0.00018051  0.62541084  0.12581205  1
  V  V94  1  0.75042293  0.00050202  0.75036047  1
  V  V95  1  0.00092741  0.87433848  0.87501948  1
  Zn  Zn96  1  0.50104710  0.87500561  0.37453732  1
  Zn  Zn97  1  0.25154183  0.74933041  0.00000823  1
  Zn  Zn98  1  0.12917154  -0.00321551  0.62749694  1
  Zn  Zn99  1  0.62534851  0.50124744  0.12583059  1
  Zn  Zn100  1  0.37631844  -0.00181014  0.37439004  1
  Zn  Zn101  1  0.49801887  0.24709854  0.74982951  1
  Zn  Zn102  1  0.50091807  0.62395924  0.12358549  1
  Zn  Zn103  1  0.25040880  0.25001898  0.00052464  1
  Zn  Zn104  1  0.87468325  0.37413661  0.50209724  1
  Zn  Zn105  1  0.37621819  0.12151609  0.74603320  1
  Zn  Zn106  1  0.87559335  0.25031295  0.62480006  1
  Zn  Zn107  1  0.12535781  0.87678916  0.74696939  1
  Zn  Zn108  1  0.12770022  0.12338343  0.00029164  1
  Zn  Zn109  1  0.12588475  -0.00079886  0.12349902  1
  Zn  Zn110  1  0.62480307  0.87566187  0.25166649  1
  Zn  Zn111  1  0.37662132  0.62285953  0.74802163  1
  Zn  Zn112  1  0.12564766  0.37608158  0.24853898  1
  Zn  Zn113  1  0.12446445  0.25044699  0.37377810  1
  Zn  Zn114  1  0.50003678  0.87568080  0.87539588  1
  Zn  Zn115  1  0.87502935  0.12483312  0.25057463  1
  Zn  Zn116  1  0.74876940  0.49990681  0.75096152  1
  Zn  Zn117  1  0.37501560  0.49872803  0.87204740  1
  Zn  Zn118  1  0.49748287  0.62439544  0.62596815  1
  Zn  Zn119  1  0.00022241  0.75073508  0.24998371  1
  Zn  Zn120  1  0.24884306  -0.00466040  0.74743623  1
  Zn  Zn121  1  0.37123230  0.74704379  0.62664431  1
  Zn  Zn122  1  0.25088251  0.75107413  0.50337454  1
  Zn  Zn123  1  0.50009410  0.12612603  0.62611083  1
  Zn  Zn124  1  -0.00140725  0.37438968  0.87456901  1
  Zn  Zn125  1  0.75058941  0.25079577  0.00053507  1
  Zn  Zn126  1  0.24770577  0.87306723  0.62930670  1
  Zn  Zn127  1  -0.00059908  0.75159835  0.74851931  1
  Zn  Zn128  1  0.18698576  0.18881285  0.18775262  1
  Zn  Zn129  1  0.18817999  0.18376702  0.68791412  1
  Zn  Zn130  1  0.18814290  0.68906691  0.18815113  1
  Zn  Zn131  1  0.18820812  0.68997651  0.68664946  1
  Zn  Zn132  1  0.68844343  0.18775851  0.18852383  1
  Zn  Zn133  1  0.68675369  0.18816048  0.68871582  1
  Zn  Zn134  1  0.68683993  0.68655684  0.18617719  1
  Zn  Zn135  1  0.68676554  0.68704725  0.68803579  1
  Zn  Zn136  1  0.31193314  0.31208400  0.31061347  1
  Zn  Zn137  1  0.31120943  0.31343389  0.81116268  1
  Zn  Zn138  1  0.31432058  0.81379055  0.31599439  1
  Zn  Zn139  1  0.31165950  0.81332775  0.81246463  1
  Zn  Zn140  1  0.81455122  0.31242567  0.31243695  1
  Zn  Zn141  1  0.81178608  0.31221178  0.81256635  1
  Zn  Zn142  1  0.81179177  0.81313653  0.31159113  1
  Zn  Zn143  1  0.81357318  0.81193542  0.81213886  1
  Zn  Zn144  1  0.18545639  0.43864700  0.43659457  1
  Zn  Zn145  1  0.18697536  0.43660852  0.93768382  1
  Zn  Zn146  1  0.18930596  0.93870869  0.43760433  1
  Zn  Zn147  1  0.18779096  0.93722875  0.93909249  1
  Zn  Zn148  1  0.68665000  0.43752391  0.43874526  1
  Zn  Zn149  1  0.68807576  0.43709212  0.93757093  1
  Zn  Zn150  1  0.68660570  0.93651581  0.43648648  1
  Zn  Zn151  1  0.68756767  0.93810311  0.93785862  1
  Zn  Zn152  1  0.31225862  0.06268215  0.06116611  1
  Zn  Zn153  1  0.31014691  0.05964290  0.56155788  1
  Zn  Zn154  1  0.31394506  0.56220656  0.06057841  1
  Zn  Zn155  1  0.31278615  0.56496773  0.56468135  1
  Zn  Zn156  1  0.81429185  0.06407193  0.06275077  1
  Zn  Zn157  1  0.81388231  0.06359808  0.56304444  1
  Zn  Zn158  1  0.81192840  0.56235023  0.06329871  1
  Zn  Zn159  1  0.81136694  0.56073709  0.56276929  1
  Zn  Zn160  1  0.43727317  0.43761511  0.18577345  1
  Zn  Zn161  1  0.43548895  0.43595501  0.68797867  1
  Zn  Zn162  1  0.43754829  0.93649421  0.18746243  1
  Zn  Zn163  1  0.43845107  0.93410160  0.68625249  1
  Zn  Zn164  1  0.93699262  0.43874820  0.18777162  1
  Zn  Zn165  1  0.93637603  0.43783930  0.69002644  1
  Zn  Zn166  1  0.93744009  0.93801887  0.18909206  1
  Zn  Zn167  1  0.94123752  0.93735235  0.68849488  1
  Zn  Zn168  1  0.06472157  0.06176711  0.31199103  1
  Zn  Zn169  1  0.06419722  0.06098586  0.81123378  1
  Zn  Zn170  1  0.06302867  0.56315673  0.31105260  1
  Zn  Zn171  1  0.06106741  0.56324029  0.81168592  1
  Zn  Zn172  1  0.56391931  0.06299714  0.31341068  1
  Zn  Zn173  1  0.55957454  0.06509188  0.81066972  1
  Zn  Zn174  1  0.56220195  0.56371192  0.31371569  1
  Zn  Zn175  1  0.56425854  0.56246775  0.81326409  1
  Zn  Zn176  1  0.43602083  0.18589717  0.43838097  1
  Zn  Zn177  1  0.43819239  0.18713225  0.93817977  1
  Zn  Zn178  1  0.43780669  0.68783482  0.43703504  1
  Zn  Zn179  1  0.43775743  0.68813170  0.93497394  1
  Zn  Zn180  1  0.93567054  0.18821409  0.43966636  1
  Zn  Zn181  1  0.93823776  0.18841203  0.93802803  1
  Zn  Zn182  1  0.93868518  0.68896139  0.43743385  1
  Zn  Zn183  1  0.93794897  0.68737664  0.93839977  1
  Zn  Zn184  1  0.06277074  0.31373633  0.06108844  1
  Zn  Zn185  1  0.06189238  0.31016003  0.56154984  1
  Zn  Zn186  1  0.06388347  0.81165727  0.06167186  1
  Zn  Zn187  1  0.06361532  0.81223811  0.56229290  1
  Zn  Zn188  1  0.56373452  0.31292441  0.06217857  1
  Zn  Zn189  1  0.56123367  0.31395637  0.56229707  1
  Zn  Zn190  1  0.56182132  0.81385136  0.06351039  1
  Zn  Zn191  1  0.56154269  0.81394882  0.56414456  1
  O  O192  1  0.11207888  0.12594385  0.12294821  1
  O  O193  1  0.11819347  0.12393350  0.61682464  1
  O  O194  1  0.12046119  0.62014015  0.11963223  1
  O  O195  1  0.11812950  0.61904499  0.61961456  1
  O  O196  1  0.62010778  0.12062768  0.12027113  1
  O  O197  1  0.62589598  0.11838752  0.61790562  1
  O  O198  1  0.62245262  0.62169223  0.11583239  1
  O  O199  1  0.62459453  0.61744227  0.61843392  1
  O  O200  1  0.37955220  0.38048002  0.37890350  1
  O  O201  1  0.38112855  0.37491272  0.88120753  1
  O  O202  1  0.38078218  0.87799405  0.38547982  1
  O  O203  1  0.37588148  0.88508057  0.88340732  1
  O  O204  1  0.88553084  0.38161951  0.37566255  1
  O  O205  1  0.87527635  0.38183580  0.88134195  1
  O  O206  1  0.87930687  0.88018294  0.38074839  1
  O  O207  1  0.87961575  0.88003696  0.88164203  1
  O  O208  1  0.25240875  0.00811405  0.36663125  1
  O  O209  1  0.26008988  0.00868697  0.87839258  1
  O  O210  1  0.25501565  0.50475178  0.36855959  1
  O  O211  1  0.24705777  0.50838644  0.86853295  1
  O  O212  1  0.75423576  0.00561522  0.37090866  1
  O  O213  1  0.75609698  0.00534426  0.86970684  1
  O  O214  1  0.75484988  0.50503291  0.37060675  1
  O  O215  1  0.75684136  0.50760648  0.87515741  1
  O  O216  1  0.24575165  0.49549787  0.12933700  1
  O  O217  1  0.24214855  0.49409815  0.62880409  1
  O  O218  1  0.24936620  0.99400627  0.13128542  1
  O  O219  1  0.24866141  0.99536751  0.62880940  1
  O  O220  1  0.74961621  0.49339569  0.13330579  1
  O  O221  1  0.74260978  0.48950172  0.62490751  1
  O  O222  1  0.74621638  0.99637448  0.13003205  1
  O  O223  1  0.74607125  0.99461403  0.63062003  1
  O  O224  1  -0.00004903  0.36815672  0.25746699  1
  O  O225  1  0.00625088  0.36782376  0.75160237  1
  O  O226  1  0.00667084  0.87441645  0.25670417  1
  O  O227  1  0.00054959  0.87102185  0.76095863  1
  O  O228  1  0.50451860  0.36999411  0.25547211  1
  O  O229  1  0.50556045  0.37215498  0.75661442  1
  O  O230  1  0.50204495  0.86252090  0.25089563  1
  O  O231  1  0.50875059  0.86679840  0.75279677  1
  O  O232  1  0.49583636  0.13106939  0.24529757  1
  O  O233  1  0.49395248  0.12933651  0.74366052  1
  O  O234  1  0.49400574  0.63345442  0.24844649  1
  O  O235  1  0.50100098  0.63543886  0.75070558  1
  O  O236  1  0.99871484  0.13352809  0.24234806  1
  O  O237  1  0.99464750  0.12947788  0.74504134  1
  O  O238  1  0.99253848  0.62605228  0.24361708  1
  O  O239  1  0.99229930  0.62615177  0.74218647  1
  O  O240  1  0.37545044  0.25692463  0.00780152  1
  O  O241  1  0.36791502  0.25614852  0.50559557  1
  O  O242  1  0.37521150  0.75631717  0.00591187  1
  O  O243  1  0.37693341  0.76055507  0.50077274  1
  O  O244  1  0.87430082  0.25794993  0.00602324  1
  O  O245  1  0.86560307  0.25386636  0.50374979  1
  O  O246  1  0.86894347  0.75531747  0.00572063  1
  O  O247  1  0.86836627  0.75495041  0.50491670  1
  O  O248  1  0.13087570  0.24299538  0.49685395  1
  O  O249  1  0.12641336  0.24911966  0.98747271  1
  O  O250  1  0.12509643  0.74190582  0.49165598  1
  O  O251  1  0.12667311  0.74208486  0.99035022  1
  O  O252  1  0.62896368  0.24495973  0.49416084  1
  O  O253  1  0.62711703  0.24312262  0.99388544  1
  O  O254  1  0.63041841  0.74486714  0.49583999  1
  O  O255  1  0.63053455  0.74587419  0.99532732  1
  O  O256  1  0.49564942  0.24522016  0.13141846  1
  O  O257  1  0.48652444  0.25065965  0.62268215  1
  O  O258  1  0.49438310  0.74794636  0.13410375  1
  O  O259  1  0.50274411  0.74806789  0.63864599  1
  O  O260  1  0.99571298  0.24495769  0.13143786  1
  O  O261  1  0.99862074  0.24284619  0.63157752  1
  O  O262  1  0.99286101  0.74326139  0.12565198  1
  O  O263  1  0.99166201  0.74177194  0.62396181  1
  O  O264  1  -0.00221348  0.25837175  0.36671305  1
  O  O265  1  0.01061262  0.24938047  0.86864180  1
  O  O266  1  0.00639522  0.75732641  0.37317550  1
  O  O267  1  0.00789347  0.75490542  0.87659412  1
  O  O268  1  0.50481034  0.25536496  0.37036417  1
  O  O269  1  0.50688696  0.25591798  0.87464142  1
  O  O270  1  0.50693967  0.74863955  0.36414332  1
  O  O271  1  0.50830479  0.75240941  0.86712346  1
  O  O272  1  0.24471895  0.12989513  0.49228562  1
  O  O273  1  0.24866421  0.12869307  0.98865881  1
  O  O274  1  0.24234665  0.62336691  0.49205667  1
  O  O275  1  0.24305273  0.62328136  0.98982215  1
  O  O276  1  0.74420146  0.12988603  0.49478414  1
  O  O277  1  0.74457467  0.12615281  0.99379540  1
  O  O278  1  0.74451618  0.63006622  0.49472260  1
  O  O279  1  0.74589554  0.63151296  0.99505887  1
  O  O280  1  0.25756769  0.37459900  0.00630953  1
  O  O281  1  0.25313506  0.37037611  0.50339701  1
  O  O282  1  0.25785000  0.87359164  0.00789703  1
  O  O283  1  0.26368852  0.87499136  0.49855315  1
  O  O284  1  0.75613398  0.37417716  0.00791870  1
  O  O285  1  0.74868776  0.36962040  0.50958672  1
  O  O286  1  0.75610016  0.87041774  0.00562200  1
  O  O287  1  0.75569851  0.86990562  0.50562027  1
  O  O288  1  0.13220774  0.49995885  0.24209647  1
  O  O289  1  0.12800393  0.49387864  0.74327556  1
  O  O290  1  0.13251910  0.99313545  0.24688870  1
  O  O291  1  0.12871880  0.99643277  0.74809489  1
  O  O292  1  0.63093692  0.49366122  0.25054532  1
  O  O293  1  0.62658877  0.49237004  0.74402451  1
  O  O294  1  0.63142539  0.99959965  0.24332135  1
  O  O295  1  0.63115633  0.99562433  0.74558796  1
  O  O296  1  0.37028078  0.00722645  0.25081584  1
  O  O297  1  0.37678958  -0.00140915  0.76417614  1
  O  O298  1  0.37046630  0.50503204  0.25480157  1
  O  O299  1  0.36478465  0.50019597  0.75260088  1
  O  O300  1  0.86793460  0.00167473  0.25749322  1
  O  O301  1  0.86974713  0.00513491  0.75633703  1
  O  O302  1  0.86903146  0.50621884  0.25628175  1
  O  O303  1  0.87196697  0.50689048  0.75731643  1
  O  O304  1  0.11112160  0.37457098  0.37181987  1
  O  O305  1  0.12506278  0.36466114  0.86849617  1
  O  O306  1  0.12042428  0.87005479  0.36993210  1
  O  O307  1  0.11890814  0.86339792  0.87986510  1
  O  O308  1  0.61904135  0.36975384  0.37020208  1
  O  O309  1  0.62039791  0.36930973  0.87024629  1
  O  O310  1  0.62343344  0.86534297  0.37254237  1
  O  O311  1  0.62563767  0.86938656  0.86900607  1
  O  O312  1  0.38146834  0.13072579  0.13007324  1
  O  O313  1  0.37393069  0.13778509  0.62268468  1
  O  O314  1  0.37615439  0.63083798  0.13107765  1
  O  O315  1  0.38014445  0.62804288  0.62994229  1
  O  O316  1  0.88622517  0.13178950  0.12629336  1
  O  O317  1  0.88108828  0.12670517  0.63267640  1
  O  O318  1  0.87948671  0.63040863  0.13032619  1
  O  O319  1  0.87833104  0.62903662  0.62935003  1
  O  O320  1  0.25636893  0.25633654  0.12400713  1
  O  O321  1  0.25541980  0.25533543  0.61791303  1
  O  O322  1  0.25763298  0.75594009  0.12358514  1
  O  O323  1  0.25328491  0.75328760  0.62038236  1
  O  O324  1  0.75774839  0.25653391  0.12563014  1
  O  O325  1  0.74862906  0.25989351  0.61982506  1
  O  O326  1  0.75538077  0.75577903  0.11962646  1
  O  O327  1  0.75467826  0.75571083  0.61905591  1
  O  O328  1  0.24794449  0.24475799  0.37934840  1
  O  O329  1  0.24226150  0.24272198  0.87533294  1
  O  O330  1  0.24388280  0.74230996  0.37691051  1
  O  O331  1  0.24096650  0.73965684  0.87721388  1
  O  O332  1  0.74459901  0.24627143  0.37993302  1
  O  O333  1  0.74347891  0.24267032  0.87670167  1
  O  O334  1  0.74586415  0.74384710  0.38082167  1
  O  O335  1  0.74607331  0.74556465  0.88171720  1
  O  O336  1  0.00017183  0.11988207  0.00928284  1
  O  O337  1  0.00443372  0.12048288  0.50428902  1
  O  O338  1  0.00446422  0.61876372  0.00671054  1
  O  O339  1  0.00462758  0.61857424  0.50467758  1
  O  O340  1  0.50635509  0.11993107  0.00724552  1
  O  O341  1  0.50604056  0.11582993  0.50136471  1
  O  O342  1  0.50521346  0.61567135  -0.00200966  1
  O  O343  1  0.50668524  0.61772482  0.49989328  1
  O  O344  1  0.49336731  0.38067826  0.49269443  1
  O  O345  1  0.49640230  0.38243666  0.99484458  1
  O  O346  1  0.49473222  0.88408054  0.49915358  1
  O  O347  1  0.49395600  0.88273863  0.99923880  1
  O  O348  1  0.99878028  0.38023399  0.49074721  1
  O  O349  1  0.99256661  0.38237890  0.99848809  1
  O  O350  1  0.99331138  0.88042472  0.49315473  1
  O  O351  1  0.99348928  0.88063945  0.99620071  1
  O  O352  1  0.49340279  0.49442541  0.37974894  1
  O  O353  1  0.49975642  0.49341445  0.88484209  1
  O  O354  1  0.50139776  0.99922079  0.38723320  1
  O  O355  1  0.49116183  1.00092196  0.88264974  1
  O  O356  1  0.99524079  0.49334038  0.37877631  1
  O  O357  1  0.99351591  0.49903257  0.88216322  1
  O  O358  1  0.99414640  0.99502476  0.37996387  1
  O  O359  1  0.99363178  0.99550780  0.88169421  1
  O  O360  1  -0.00085662  0.00996387  0.12090103  1
  O  O361  1  -0.00109087  0.00736693  0.61642989  1
  O  O362  1  0.00499807  0.50601464  0.11993447  1
  O  O363  1  0.00387335  0.50453589  0.61941917  1
  O  O364  1  0.50585295  0.00639456  0.12092253  1
  O  O365  1  0.50719764  0.00066964  0.61475806  1
  O  O366  1  0.50200784  0.50027115  0.11168548  1
  O  O367  1  0.50607531  0.49786713  0.61757051  1
  O  O368  1  0.24904427  0.38230161  0.24279135  1
  O  O369  1  0.24209654  0.37981763  0.74266605  1
  O  O370  1  0.24648538  0.88064068  0.24572153  1
  O  O371  1  0.24491689  0.87675370  0.74997208  1
  O  O372  1  0.74532363  0.38015332  0.24690387  1
  O  O373  1  0.74299330  0.37553271  0.74041968  1
  O  O374  1  0.74849083  0.88203429  0.24293064  1
  O  O375  1  0.74640242  0.88091953  0.74454111  1
  O  O376  1  0.25528327  0.12091828  0.25302154  1
  O  O377  1  0.25496242  0.12308124  0.76360789  1
  O  O378  1  0.25567217  0.61912202  0.25529092  1
  O  O379  1  0.24689926  0.61827588  0.75997081  1
  O  O380  1  0.75216148  0.11945326  0.25747123  1
  O  O381  1  0.75540621  0.11916399  0.75586803  1
  O  O382  1  0.75493283  0.61976789  0.25603511  1
  O  O383  1  0.75612837  0.62394916  0.75705686  1
  O  O384  1  0.36823399  0.12449452  0.36702551  1
  O  O385  1  0.36801072  0.11666511  0.87648070  1
  O  O386  1  0.36939866  0.61884494  0.36924282  1
  O  O387  1  0.36096793  0.62350404  0.87327839  1
  O  O388  1  0.86834205  0.11840122  0.37481070  1
  O  O389  1  0.87040742  0.11925285  0.87035489  1
  O  O390  1  0.86947391  0.62035388  0.37052095  1
  O  O391  1  0.87038319  0.62060131  0.87061007  1
  O  O392  1  0.13159141  0.38276026  0.12483926  1
  O  O393  1  0.12872848  0.38020459  0.62871777  1
  O  O394  1  0.13206924  0.87448186  0.13166136  1
  O  O395  1  0.12571094  0.87755777  0.62740106  1
  O  O396  1  0.63183816  0.37581460  0.13309225  1
  O  O397  1  0.63188118  0.37935120  0.62930874  1
  O  O398  1  0.63278719  0.88290844  0.12542653  1
  O  O399  1  0.63291352  0.88127508  0.63060239  1
  O  O400  1  0.11131373  0.25387804  0.25086940  1
  O  O401  1  0.12084149  0.25374644  0.75759465  1
  O  O402  1  0.12358050  0.75667019  0.25721826  1
  O  O403  1  0.12047126  0.74771753  0.76500433  1
  O  O404  1  0.61947721  0.25547366  0.25668563  1
  O  O405  1  0.62243378  0.25624837  0.75668201  1
  O  O406  1  0.61684033  0.74914086  0.25510201  1
  O  O407  1  0.62031915  0.75589740  0.75589316  1
  O  O408  1  0.38164321  0.24492631  0.24400888  1
  O  O409  1  0.37340486  0.25139567  0.73547792  1
  O  O410  1  0.38300392  0.74471871  0.24572267  1
  O  O411  1  0.38935427  0.74967955  0.75261517  1
  O  O412  1  0.88636973  0.24938346  0.24384333  1
  O  O413  1  0.88172482  0.24282696  0.74991602  1
  O  O414  1  0.87532355  0.74341787  0.24344087  1
  O  O415  1  0.87533619  0.74292497  0.74250460  1
  O  O416  1  0.37865163  0.49419100  0.49382058  1
  O  O417  1  0.38512811  0.49400543  0.99700155  1
  O  O418  1  0.38592338  0.99324970  0.49863613  1
  O  O419  1  0.38144475  0.99552208  0.99356032  1
  O  O420  1  0.88108979  0.49840043  0.49303998  1
  O  O421  1  0.88017830  0.49605556  0.99551568  1
  O  O422  1  0.87963927  0.99422583  0.49420348  1
  O  O423  1  0.88005497  0.99423453  0.99474029  1
  O  O424  1  0.11595453  0.00267390  0.00328718  1
  O  O425  1  0.11693415  0.00734511  0.49852304  1
  O  O426  1  0.11868741  0.50466483  0.00511143  1
  O  O427  1  0.11811521  0.50564290  0.50511463  1
  O  O428  1  0.62059811  0.00632883  0.00570610  1
  O  O429  1  0.61921098  0.00415626  0.50518292  1
  O  O430  1  0.61589466  0.50521255  0.00008995  1
  O  O431  1  0.61825566  0.50482750  0.50430176  1
  O  O432  1  0.37005055  0.36980632  0.11946064  1
  O  O433  1  0.36694637  0.36812236  0.61714425  1
  O  O434  1  0.36967440  0.86919218  0.12071686  1
  O  O435  1  0.37654231  0.87131967  0.61243264  1
  O  O436  1  0.87010127  0.37121352  0.12014580  1
  O  O437  1  0.86214651  0.37449862  0.62528858  1
  O  O438  1  0.86993870  0.87019822  0.11961048  1
  O  O439  1  0.87036023  0.86964209  0.61938527  1
  O  O440  1  0.13122507  0.12804491  0.38031944  1
  O  O441  1  0.13379035  0.13417768  0.87532748  1
  O  O442  1  0.12966938  0.62922618  0.37943606  1
  O  O443  1  0.13025981  0.63086960  0.88000226  1
  O  O444  1  0.63125222  0.13165752  0.38090309  1
  O  O445  1  0.63043816  0.12915633  0.88031453  1
  O  O446  1  0.63166689  0.62958600  0.38177690  1
  O  O447  1  0.63253423  0.63133207  0.88110427  1
