# generated using pymatgen
data_V3Zn3O8
_symmetry_space_group_name_H-M   'P 1'
_cell_length_a   17.08786989
_cell_length_b   17.08639904
_cell_length_c   17.08569138
_cell_angle_alpha   90.00581324
_cell_angle_beta   90.00244971
_cell_angle_gamma   90.00930319
_symmetry_Int_Tables_number   1
_chemical_formula_structural   V3Zn3O8
_chemical_formula_sum   'V96 Zn96 O256'
_cell_volume   4988.51201552
_cell_formula_units_Z   32
loop_
 _symmetry_equiv_pos_site_id
 _symmetry_equiv_pos_as_xyz
  1  'x, y, z'
loop_
 _atom_site_type_symbol
 _atom_site_label
 _atom_site_symmetry_multiplicity
 _atom_site_fract_x
 _atom_site_fract_y
 _atom_site_fract_z
 _atom_site_occupancy
  V  V0  1  0.62545697  0.75063277  0.87529703  1
  V  V1  1  0.62412232  0.00143224  0.12616851  1
  V  V2  1  0.62533045  0.24989450  0.87450967  1
  V  V3  1  0.12631213  0.24811723  0.87538227  1
  V  V4  1  0.62488366  0.37555732  0.74902069  1
  V  V5  1  0.12358292  0.00031079  0.12461753  1
  V  V6  1  0.37518639  0.50221952  0.37435955  1
  V  V7  1  0.49938986  0.50100177  0.50005603  1
  V  V8  1  0.87597865  0.24940085  0.12693343  1
  V  V9  1  0.37550379  0.12317473  0.75047150  1
  V  V10  1  0.00137312  0.37383198  0.87535177  1
  V  V11  1  0.87432475  0.50094682  0.87324033  1
  V  V12  1  0.49993289  0.00049043  0.50034701  1
  V  V13  1  0.24855967  0.62666170  0.87431009  1
  V  V14  1  0.62553902  0.75048408  0.37458276  1
  V  V15  1  0.37549550  0.87428937  0.49972071  1
  V  V16  1  0.12611595  0.62522303  0.49821108  1
  V  V17  1  0.62441562  0.12512045  0.00104801  1
  V  V18  1  0.37467212  0.87532924  -0.00110832  1
  V  V19  1  0.24932690  0.00022409  0.24981775  1
  V  V20  1  0.37430650  0.25028859  0.12399836  1
  V  V21  1  0.00043204  0.12333229  0.62491258  1
  V  V22  1  0.87484959  0.12630393  0.75064133  1
  V  V23  1  0.87515829  0.87571208  0.49988154  1
  V  V24  1  0.50018900  0.87441671  0.87462567  1
  V  V25  1  0.74931105  0.00009145  0.75043103  1
  V  V26  1  -0.00128432  0.62586721  0.62586475  1
  V  V27  1  0.87421057  0.25169675  0.62438141  1
  V  V28  1  0.75012222  0.12580061  0.87519829  1
  V  V29  1  0.74965551  0.75049764  0.49941200  1
  V  V30  1  0.75018049  0.87478968  0.62615890  1
  V  V31  1  0.37626629  0.74924935  0.62437847  1
  V  V32  1  -0.00055747  0.87538074  0.37514829  1
  V  V33  1  0.87451120  0.37500077  0.50133728  1
  V  V34  1  0.87564929  0.62518716  0.25004097  1
  V  V35  1  0.87595393  0.74882776  0.62635109  1
  V  V36  1  0.74996478  0.49991442  0.24883185  1
  V  V37  1  0.25114472  0.24970044  0.50091363  1
  V  V38  1  0.00105430  0.37482341  0.37501974  1
  V  V39  1  0.37541960  0.74898733  0.12367427  1
  V  V40  1  0.12524275  0.24995263  0.37484798  1
  V  V41  1  0.62588385  0.87414071  0.75069427  1
  V  V42  1  0.24957154  0.87456533  0.12373444  1
  V  V43  1  0.87627712  0.37362471  0.00068933  1
  V  V44  1  0.74995210  0.62658485  0.37460957  1
  V  V45  1  0.75073727  0.75141650  0.00083785  1
  V  V46  1  0.75074117  0.25045180  0.00097271  1
  V  V47  1  0.50056627  0.50003857  0.00012528  1
  V  V48  1  0.49986257  0.87517445  0.37487746  1
  V  V49  1  0.62574211  0.50023690  0.62598456  1
  V  V50  1  0.49946204  0.62476411  0.62612295  1
  V  V51  1  0.00090089  0.49884674  0.00076838  1
  V  V52  1  0.37557917  0.37426128  -0.00084764  1
  V  V53  1  0.37448683  0.12566139  0.24933019  1
  V  V54  1  0.00069378  0.24896621  0.75020972  1
  V  V55  1  0.37554444  -0.00184950  0.87471211  1
  V  V56  1  0.24863085  -0.00206507  0.74965455  1
  V  V57  1  0.74871178  0.00115318  0.25094924  1
  V  V58  1  -0.00093346  0.87465764  0.87535151  1
  V  V59  1  0.87410493  0.75059401  0.12518955  1
  V  V60  1  0.12633076  0.37428316  0.74912629  1
  V  V61  1  0.12456611  0.12424986  0.00027670  1
  V  V62  1  0.74958270  0.12724239  0.37699814  1
  V  V63  1  0.87488971  0.12580551  0.25159886  1
  V  V64  1  0.37386077  0.24998487  0.62479656  1
  V  V65  1  0.49963044  0.12562384  0.12509838  1
  V  V66  1  0.62492207  0.62436398  0.00014088  1
  V  V67  1  0.62533826  0.12730647  0.49968417  1
  V  V68  1  0.00071646  0.50015140  0.49947285  1
  V  V69  1  0.12417138  0.12341241  0.50126642  1
  V  V70  1  0.50032116  0.25174324  0.25066722  1
  V  V71  1  0.00019914  0.24960863  0.25127749  1
  V  V72  1  0.24994890  0.12543360  0.37514714  1
  V  V73  1  0.12607643  0.49877254  0.12478313  1
  V  V74  1  0.12532781  0.49960243  0.62446920  1
  V  V75  1  0.87567910  0.50057137  0.37520861  1
  V  V76  1  0.49974642  0.75039527  0.24862926  1
  V  V77  1  0.24848692  0.87338969  0.62389424  1
  V  V78  1  0.50141407  0.37581562  0.37408594  1
  V  V79  1  0.25114786  0.50072872  0.24957965  1
  V  V80  1  0.49973510  0.37412356  0.87516391  1
  V  V81  1  0.24933852  0.49995169  0.74853753  1
  V  V82  1  0.25104616  0.37487421  0.12297949  1
  V  V83  1  0.00086920  0.62437361  0.12495198  1
  V  V84  1  0.87485890  0.00025961  0.87757549  1
  V  V85  1  0.00032739  0.74974800  0.24916643  1
  V  V86  1  0.62500574  0.87667971  0.24957229  1
  V  V87  1  0.49976333  0.24889978  0.74996352  1
  V  V88  1  0.75032034  0.37624119  0.12664064  1
  V  V89  1  0.12460596  0.87487917  0.24917819  1
  V  V90  1  0.12623599  0.74886463  0.37443477  1
  V  V91  1  0.37487113  0.00009434  0.37437835  1
  V  V92  1  0.37423886  0.62468399  0.74913578  1
  V  V93  1  0.50027186  0.12400274  0.62489675  1
  V  V94  1  0.12553796  0.62548416  -0.00149180  1
  V  V95  1  0.87500447  0.00004492  0.37614953  1
  Zn  Zn96  1  0.25072859  0.12455278  0.87519335  1
  Zn  Zn97  1  0.37438013  0.49963897  0.87367953  1
  Zn  Zn98  1  0.24756341  0.75094152  -0.00192333  1
  Zn  Zn99  1  0.00082075  -0.00079070  0.50186323  1
  Zn  Zn100  1  0.49958465  0.00051007  0.00029690  1
  Zn  Zn101  1  0.75138595  0.62434455  0.87267519  1
  Zn  Zn102  1  0.12565223  0.37354450  0.24939345  1
  Zn  Zn103  1  0.62708343  0.25344086  0.37414882  1
  Zn  Zn104  1  0.25119074  0.62675699  0.37471343  1
  Zn  Zn105  1  0.37323697  0.37527175  0.50242790  1
  Zn  Zn106  1  0.50124499  0.74893641  0.75041546  1
  Zn  Zn107  1  0.74842957  0.25395568  0.50051661  1
  Zn  Zn108  1  0.25106454  0.37457700  0.62408153  1
  Zn  Zn109  1  0.25117796  0.74800225  0.49692201  1
  Zn  Zn110  1  0.37699541  0.62603670  0.24830448  1
  Zn  Zn111  1  0.12200670  0.75172258  0.87340906  1
  Zn  Zn112  1  0.12139153  0.87254677  0.74943561  1
  Zn  Zn113  1  0.12155333  -0.00245540  0.62459677  1
  Zn  Zn114  1  0.62531380  -0.00088400  0.62577563  1
  Zn  Zn115  1  -0.00313813  -0.00075137  0.00335540  1
  Zn  Zn116  1  0.49962771  0.62384541  0.12576407  1
  Zn  Zn117  1  0.75046915  0.87685804  0.12605837  1
  Zn  Zn118  1  0.87380738  0.62555393  0.75016862  1
  Zn  Zn119  1  0.87447662  0.87824416  0.00329782  1
  Zn  Zn120  1  -0.00032751  0.74864592  0.75140914  1
  Zn  Zn121  1  0.62578263  0.37643297  0.24832786  1
  Zn  Zn122  1  0.75111731  0.50030703  0.74987832  1
  Zn  Zn123  1  0.25095430  0.24941906  -0.00213334  1
  Zn  Zn124  1  0.75042437  0.37547523  0.62510427  1
  Zn  Zn125  1  0.62545609  0.49944981  0.12627801  1
  Zn  Zn126  1  0.62497156  0.62629698  0.50087323  1
  Zn  Zn127  1  -0.00068351  0.12344854  0.12628501  1
  Zn  Zn128  1  0.18712224  0.18813042  0.18635069  1
  Zn  Zn129  1  0.18777048  0.18543686  0.68664169  1
  Zn  Zn130  1  0.18868631  0.68648811  0.18687865  1
  Zn  Zn131  1  0.18372253  0.68980283  0.68856735  1
  Zn  Zn132  1  0.68650659  0.18985846  0.18990150  1
  Zn  Zn133  1  0.68833558  0.18868534  0.68544311  1
  Zn  Zn134  1  0.68658085  0.68722143  0.18658011  1
  Zn  Zn135  1  0.69064179  0.68511179  0.69045793  1
  Zn  Zn136  1  0.31325960  0.31423498  0.31237382  1
  Zn  Zn137  1  0.31166916  0.31185590  0.81280458  1
  Zn  Zn138  1  0.31184565  0.81256624  0.31095248  1
  Zn  Zn139  1  0.31352582  0.81053047  0.81043898  1
  Zn  Zn140  1  0.81245550  0.31305115  0.31435053  1
  Zn  Zn141  1  0.81151800  0.31515798  0.81083904  1
  Zn  Zn142  1  0.81212190  0.81383740  0.31170359  1
  Zn  Zn143  1  0.81451643  0.81224252  0.81344073  1
  Zn  Zn144  1  0.18832648  0.43560557  0.43826223  1
  Zn  Zn145  1  0.18853070  0.43798431  0.93645095  1
  Zn  Zn146  1  0.18636597  0.93753642  0.43811434  1
  Zn  Zn147  1  0.18565011  0.93746232  0.93748919  1
  Zn  Zn148  1  0.68806791  0.43998526  0.43914433  1
  Zn  Zn149  1  0.68827152  0.43602425  0.93798120  1
  Zn  Zn150  1  0.68749019  0.93895862  0.43828626  1
  Zn  Zn151  1  0.68686333  0.93796943  0.93842137  1
  Zn  Zn152  1  0.31067783  0.06188734  0.06118623  1
  Zn  Zn153  1  0.31227213  0.06198831  0.56292739  1
  Zn  Zn154  1  0.31305447  0.56253597  0.06011898  1
  Zn  Zn155  1  0.31119022  0.56290094  0.56139539  1
  Zn  Zn156  1  0.81104339  0.06367590  0.06453517  1
  Zn  Zn157  1  0.81249089  0.06280270  0.56345252  1
  Zn  Zn158  1  0.81315800  0.56288696  0.06133832  1
  Zn  Zn159  1  0.81156680  0.56340101  0.56153197  1
  Zn  Zn160  1  0.43748635  0.43697240  0.18652574  1
  Zn  Zn161  1  0.43654434  0.43683500  0.68776488  1
  Zn  Zn162  1  0.43752743  0.93748648  0.18644657  1
  Zn  Zn163  1  0.43825295  0.93601733  0.68771183  1
  Zn  Zn164  1  0.93753962  0.43621645  0.18880522  1
  Zn  Zn165  1  0.94023375  0.43680086  0.68744473  1
  Zn  Zn166  1  0.93647615  0.93768578  0.18748707  1
  Zn  Zn167  1  0.93585264  0.93779717  0.68939573  1
  Zn  Zn168  1  0.06141311  0.06251521  0.31375476  1
  Zn  Zn169  1  0.06254013  0.05959835  0.81355324  1
  Zn  Zn170  1  0.06443140  0.56216194  0.31192493  1
  Zn  Zn171  1  0.06155152  0.56281905  0.81059799  1
  Zn  Zn172  1  0.56220380  0.06441952  0.31334101  1
  Zn  Zn173  1  0.56270198  0.06046586  0.81334998  1
  Zn  Zn174  1  0.56399613  0.56479399  0.31008789  1
  Zn  Zn175  1  0.56180972  0.56321496  0.81282266  1
  Zn  Zn176  1  0.43724837  0.18873025  0.43793244  1
  Zn  Zn177  1  0.43708066  0.18614592  0.93714380  1
  Zn  Zn178  1  0.43884581  0.68704571  0.43847336  1
  Zn  Zn179  1  0.43672546  0.68796530  0.93653450  1
  Zn  Zn180  1  0.93771026  0.18794374  0.43951001  1
  Zn  Zn181  1  0.93958378  0.18643894  0.93857058  1
  Zn  Zn182  1  0.93843296  0.68860308  0.43862300  1
  Zn  Zn183  1  0.93780965  0.68793304  0.93888229  1
  Zn  Zn184  1  0.06384903  0.31060285  0.06371730  1
  Zn  Zn185  1  0.06271481  0.31127215  0.56254323  1
  Zn  Zn186  1  0.06168615  0.81203902  0.05863075  1
  Zn  Zn187  1  0.06245372  0.81042934  0.56070845  1
  Zn  Zn188  1  0.56380646  0.31319256  0.06392568  1
  Zn  Zn189  1  0.55970383  0.31372295  0.56179222  1
  Zn  Zn190  1  0.56192098  0.81481002  0.06204456  1
  Zn  Zn191  1  0.56339768  0.81186105  0.56357704  1
  O  O192  1  0.12458615  0.11936430  0.11719283  1
  O  O193  1  0.11808099  0.12319683  0.61895037  1
  O  O194  1  0.12028773  0.61849883  0.11959971  1
  O  O195  1  0.11881134  0.61920729  0.61824683  1
  O  O196  1  0.61932462  0.12170819  0.12083749  1
  O  O197  1  0.61883577  0.12340579  0.61618142  1
  O  O198  1  0.62239296  0.62395705  0.11104203  1
  O  O199  1  0.61844126  0.61583647  0.62557185  1
  O  O200  1  0.38457090  0.38609898  0.37460531  1
  O  O201  1  0.38245645  0.37582188  0.88068185  1
  O  O202  1  0.38021759  0.88071163  0.37912240  1
  O  O203  1  0.38011960  0.87815880  0.87914439  1
  O  O204  1  0.88166354  0.38175381  0.38084897  1
  O  O205  1  0.88180267  0.38037194  0.88132419  1
  O  O206  1  0.87983143  0.87986705  0.37969957  1
  O  O207  1  0.88110450  0.88291446  0.87802294  1
  O  O208  1  0.25549290  0.00525941  0.36913793  1
  O  O209  1  0.25649369  -0.00208225  0.86368202  1
  O  O210  1  0.25892176  0.49794556  0.36609379  1
  O  O211  1  0.25047383  0.51054665  0.86790295  1
  O  O212  1  0.75515518  0.00659481  0.37013285  1
  O  O213  1  0.75446524  0.00677382  0.87047012  1
  O  O214  1  0.75662191  0.50664214  0.36968260  1
  O  O215  1  0.76338398  0.49879322  0.87727732  1
  O  O216  1  0.24705878  0.49545207  0.13146502  1
  O  O217  1  0.24260636  0.49883089  0.63093885  1
  O  O218  1  0.24449391  0.99402381  0.13142435  1
  O  O219  1  0.25268038  0.98969190  0.63331401  1
  O  O220  1  0.75220385  0.49396503  0.13076449  1
  O  O221  1  0.73663856  0.49924928  0.62480756  1
  O  O222  1  0.74201601  1.00066547  0.13381866  1
  O  O223  1  0.74982532  0.99301812  0.63288961  1
  O  O224  1  0.00137707  0.36844438  0.25767590  1
  O  O225  1  0.00708878  0.36828802  0.75611668  1
  O  O226  1  0.00549119  0.86874670  0.25518730  1
  O  O227  1  -0.00097958  0.87527879  0.76236909  1
  O  O228  1  0.50002926  0.37108566  0.25855406  1
  O  O229  1  0.50487398  0.36824503  0.75591154  1
  O  O230  1  0.50506448  0.87092243  0.25616566  1
  O  O231  1  0.50744097  0.87265698  0.75637187  1
  O  O232  1  0.49315814  0.13091630  0.24551435  1
  O  O233  1  0.49584845  0.12946881  0.74512998  1
  O  O234  1  0.49802143  0.63418937  0.24514774  1
  O  O235  1  0.49248114  0.62595775  0.74424379  1
  O  O236  1  0.99235769  0.13205380  0.25109575  1
  O  O237  1  0.99426122  0.13004417  0.74619078  1
  O  O238  1  0.99540289  0.62986241  0.24426987  1
  O  O239  1  0.99587030  0.62509365  0.73984763  1
  O  O240  1  0.37446581  0.25588689  0.00619038  1
  O  O241  1  0.36872373  0.24928874  0.50691765  1
  O  O242  1  0.37321781  0.75636571  0.00878745  1
  O  O243  1  0.37398016  0.75681072  0.50533133  1
  O  O244  1  0.87049675  0.25428304  0.00559151  1
  O  O245  1  0.87541339  0.25765819  0.50713618  1
  O  O246  1  0.86420675  0.74795678  0.00662363  1
  O  O247  1  0.86888621  0.75647122  0.50473650  1
  O  O248  1  0.13063851  0.24314673  0.49421424  1
  O  O249  1  0.12615902  0.24104039  0.99461853  1
  O  O250  1  0.12658236  0.74317021  0.49164392  1
  O  O251  1  0.12766069  0.74005050  0.99683340  1
  O  O252  1  0.62371971  0.23841320  0.49807256  1
  O  O253  1  0.63083817  0.24506528  0.99433646  1
  O  O254  1  0.63179204  0.75020896  0.49226707  1
  O  O255  1  0.63144956  0.74327428  0.99652746  1
  O  O256  1  0.49389325  0.24548782  0.13058655  1
  O  O257  1  0.49444879  0.24351201  0.63103798  1
  O  O258  1  0.48984057  0.75208748  0.12971661  1
  O  O259  1  0.49420970  0.74317456  0.62623461  1
  O  O260  1  0.99327414  0.24905581  0.13297184  1
  O  O261  1  0.99461977  0.24382859  0.63174979  1
  O  O262  1  0.99509643  0.74371968  0.13007769  1
  O  O263  1  0.99235372  0.74302214  0.62315384  1
  O  O264  1  0.00544552  0.25527845  0.37080259  1
  O  O265  1  0.00548011  0.25493090  0.86950296  1
  O  O266  1  0.00521439  0.75547183  0.36802879  1
  O  O267  1  -0.00263866  0.76135593  0.87481518  1
  O  O268  1  0.49723111  0.26126875  0.36963934  1
  O  O269  1  0.50616373  0.25396461  0.86936389  1
  O  O270  1  0.50487408  0.75629551  0.36946084  1
  O  O271  1  0.50730040  0.75660066  0.87420984  1
  O  O272  1  0.24537383  0.12931464  0.49379614  1
  O  O273  1  0.23791541  0.12646888  0.99764567  1
  O  O274  1  0.24132397  0.62677584  0.49603361  1
  O  O275  1  0.24444209  0.62398372  0.98965680  1
  O  O276  1  0.73997056  0.12540250  0.49590589  1
  O  O277  1  0.74409541  0.13221167  0.99473647  1
  O  O278  1  0.74850612  0.63267621  0.49191407  1
  O  O279  1  0.74151727  0.63336328  0.99868003  1
  O  O280  1  0.25760036  0.37520925  0.00549014  1
  O  O281  1  0.25283813  0.36558593  0.50237155  1
  O  O282  1  0.25602256  0.87330179  0.00619493  1
  O  O283  1  0.25713078  0.87531606  0.50879258  1
  O  O284  1  0.75689518  0.36857061  0.00542101  1
  O  O285  1  0.75877677  0.37490990  0.50226969  1
  O  O286  1  0.74911831  0.86230442  0.00290723  1
  O  O287  1  0.75522969  0.87026728  0.50511920  1
  O  O288  1  0.13482364  0.49806629  0.24387664  1
  O  O289  1  0.12931054  0.49400638  0.74387274  1
  O  O290  1  0.13042610  0.99473427  0.24575251  1
  O  O291  1  0.13770500  0.99687845  0.74762623  1
  O  O292  1  0.63427431  0.49926093  0.24629928  1
  O  O293  1  0.62232790  0.49377514  0.74105569  1
  O  O294  1  0.62908873  0.99674388  0.24623073  1
  O  O295  1  0.63225464  0.99335436  0.74946742  1
  O  O296  1  0.36923789  0.00541697  0.25473809  1
  O  O297  1  0.36802254  0.00329539  0.75441095  1
  O  O298  1  0.36818417  0.50115641  0.25650969  1
  O  O299  1  0.36805449  0.50668018  0.75115271  1
  O  O300  1  0.86854998  0.00577715  0.25639210  1
  O  O301  1  0.86778002  0.00753561  0.75739113  1
  O  O302  1  0.87113184  0.50650571  0.25589747  1
  O  O303  1  0.87661198  0.49711995  0.76299608  1
  O  O304  1  0.11869405  0.36782342  0.37369028  1
  O  O305  1  0.11978114  0.36943125  0.87000064  1
  O  O306  1  0.11992727  0.86983546  0.36835539  1
  O  O307  1  0.11245979  0.87503141  0.87451868  1
  O  O308  1  0.61184795  0.37702787  0.37428395  1
  O  O309  1  0.61947709  0.36858044  0.87033159  1
  O  O310  1  0.61906174  0.87089527  0.36976743  1
  O  O311  1  0.62037345  0.87007848  0.87065265  1
  O  O312  1  0.37913759  0.12975348  0.13008688  1
  O  O313  1  0.38129871  0.12937711  0.63074305  1
  O  O314  1  0.37639332  0.63753959  0.12387984  1
  O  O315  1  0.37969952  0.62949348  0.62937620  1
  O  O316  1  0.87520503  0.13210469  0.13363953  1
  O  O317  1  0.87987591  0.13108223  0.63164078  1
  O  O318  1  0.88182479  0.62963622  0.13055390  1
  O  O319  1  0.88181810  0.63089319  0.62280907  1
  O  O320  1  0.25728885  0.25704792  0.12416663  1
  O  O321  1  0.25649750  0.24913978  0.61905475  1
  O  O322  1  0.25951261  0.75616150  0.12507442  1
  O  O323  1  0.25651794  0.75991062  0.62370937  1
  O  O324  1  0.75653280  0.25526896  0.12046811  1
  O  O325  1  0.75866011  0.25350468  0.62238873  1
  O  O326  1  0.75498000  0.75010451  0.11671295  1
  O  O327  1  0.75535065  0.75508684  0.61897960  1
  O  O328  1  0.24612426  0.24420544  0.37913707  1
  O  O329  1  0.24192441  0.24570942  0.87649699  1
  O  O330  1  0.24261195  0.74775090  0.37473530  1
  O  O331  1  0.24841119  0.73700875  0.87491071  1
  O  O332  1  0.74730906  0.24289362  0.37908289  1
  O  O333  1  0.74521406  0.24566880  0.88060476  1
  O  O334  1  0.74525131  0.74608206  0.37914316  1
  O  O335  1  0.74521467  0.74858567  0.88607638  1
  O  O336  1  0.01227581  0.12304236  0.00295915  1
  O  O337  1  0.00627003  0.12385631  0.50678387  1
  O  O338  1  0.00539295  0.61820468  0.00641230  1
  O  O339  1  0.00581233  0.61887577  0.50464877  1
  O  O340  1  0.50678542  0.12439335  0.00714464  1
  O  O341  1  0.50655305  0.12010800  0.50411245  1
  O  O342  1  0.50767801  0.61679520  -0.00093708  1
  O  O343  1  0.50229405  0.61837836  0.50737814  1
  O  O344  1  0.49649432  0.38171840  0.48996268  1
  O  O345  1  0.49658254  0.38158184  0.99491219  1
  O  O346  1  0.49534153  0.88040180  0.49425641  1
  O  O347  1  0.49330128  0.87801040  0.99273301  1
  O  O348  1  0.99536615  0.38113980  0.49426654  1
  O  O349  1  0.99581182  0.37901456  0.99535720  1
  O  O350  1  0.99282421  0.87563445  0.49261235  1
  O  O351  1  0.99554592  0.87809731  0.99023446  1
  O  O352  1  0.49333816  0.49492672  0.37767829  1
  O  O353  1  0.49957767  0.49339856  0.88530243  1
  O  O354  1  0.49369613  0.99486028  0.37959215  1
  O  O355  1  0.49319527  0.99277974  0.87625153  1
  O  O356  1  0.99517560  0.49553853  0.37957417  1
  O  O357  1  0.99436025  0.49306269  0.88137997  1
  O  O358  1  0.99244564  0.99252516  0.37547451  1
  O  O359  1  0.99170094  0.99268209  0.87676958  1
  O  O360  1  0.00792773  0.00253145  0.12466898  1
  O  O361  1  0.00043021  0.00764827  0.62392931  1
  O  O362  1  0.00523241  0.50445774  0.12064939  1
  O  O363  1  0.00577927  0.50527978  0.61828693  1
  O  O364  1  0.50568707  0.00824102  0.12482211  1
  O  O365  1  0.50062003  0.00604034  0.61801716  1
  O  O366  1  0.50177923  0.50061183  0.11171628  1
  O  O367  1  0.50636134  0.50465466  0.62024346  1
  O  O368  1  0.25064938  0.38598326  0.24301197  1
  O  O369  1  0.24306079  0.38160221  0.74926186  1
  O  O370  1  0.24387518  0.88141088  0.24400373  1
  O  O371  1  0.25234201  0.88246241  0.74004754  1
  O  O372  1  0.75133691  0.38242281  0.24474244  1
  O  O373  1  0.74026386  0.37904114  0.74694020  1
  O  O374  1  0.74216919  0.88295382  0.25046442  1
  O  O375  1  0.74539391  0.88059117  0.74591474  1
  O  O376  1  0.25529680  0.11974194  0.25526474  1
  O  O377  1  0.25683176  0.11298806  0.74904885  1
  O  O378  1  0.25310031  0.61158274  0.25069433  1
  O  O379  1  0.25339206  0.61963824  0.75615298  1
  O  O380  1  0.75473124  0.12081682  0.25725747  1
  O  O381  1  0.75487703  0.12134923  0.75624474  1
  O  O382  1  0.75668863  0.62108597  0.25477560  1
  O  O383  1  0.75534767  0.61792568  0.75582249  1
  O  O384  1  0.36989284  0.11965076  0.36900860  1
  O  O385  1  0.37420405  0.11730305  0.86810258  1
  O  O386  1  0.37492545  0.61294963  0.37211852  1
  O  O387  1  0.36526302  0.62363659  0.86918273  1
  O  O388  1  0.86939654  0.12007687  0.37135730  1
  O  O389  1  0.86934733  0.12164485  0.87000313  1
  O  O390  1  0.87076845  0.62055003  0.36935124  1
  O  O391  1  0.87688258  0.61107410  0.87701022  1
  O  O392  1  0.13227773  0.38160672  0.12596011  1
  O  O393  1  0.12507690  0.38123480  0.63180604  1
  O  O394  1  0.12957390  0.87923688  0.13003359  1
  O  O395  1  0.13723299  0.87588084  0.62407886  1
  O  O396  1  0.63500539  0.37776007  0.12624880  1
  O  O397  1  0.62187163  0.38476584  0.63025357  1
  O  O398  1  0.62525279  0.88288154  0.13241654  1
  O  O399  1  0.63236811  0.87607919  0.63168045  1
  O  O400  1  0.11937101  0.25075334  0.25724059  1
  O  O401  1  0.11965502  0.25349359  0.75511342  1
  O  O402  1  0.11930192  0.75504100  0.25300150  1
  O  O403  1  0.11859665  0.75484234  0.75454118  1
  O  O404  1  0.61573177  0.25382774  0.25416378  1
  O  O405  1  0.61898993  0.25434247  0.75499150  1
  O  O406  1  0.62005045  0.75657898  0.25473976  1
  O  O407  1  0.62595542  0.75637885  0.75794134  1
  O  O408  1  0.37973015  0.24471446  0.24419552  1
  O  O409  1  0.38072409  0.24290002  0.74568152  1
  O  O410  1  0.38065788  0.75115484  0.23990208  1
  O  O411  1  0.37720753  0.74219305  0.74179370  1
  O  O412  1  0.88018718  0.24485904  0.24656757  1
  O  O413  1  0.88115406  0.24570168  0.74608802  1
  O  O414  1  0.88065445  0.74416445  0.24564800  1
  O  O415  1  0.87677037  0.74772443  0.74040537  1
  O  O416  1  0.37989961  0.49904484  0.48990869  1
  O  O417  1  0.38520782  0.49412904  0.99777936  1
  O  O418  1  0.38036456  0.99513159  0.49349672  1
  O  O419  1  0.37528551  0.99335186  0.99305267  1
  O  O420  1  0.88151626  0.49579540  0.49403324  1
  O  O421  1  0.88205077  0.49333456  0.99380622  1
  O  O422  1  0.87510183  0.99333894  0.49317943  1
  O  O423  1  0.87425612  1.00042129  0.99280529  1
  O  O424  1  0.12447934  0.00906955  0.00647221  1
  O  O425  1  0.12280783  0.00816938  0.50213880  1
  O  O426  1  0.11970019  0.50467062  0.00546233  1
  O  O427  1  0.11951716  0.50450086  0.50411431  1
  O  O428  1  0.62436157  0.00803557  0.00727566  1
  O  O429  1  0.61844645  0.01025249  0.50120272  1
  O  O430  1  0.61793700  0.50768707  -0.00081456  1
  O  O431  1  0.61784521  0.50213719  0.50976319  1
  O  O432  1  0.37087741  0.36941968  0.11845331  1
  O  O433  1  0.37322856  0.36548802  0.62356160  1
  O  O434  1  0.36968922  0.86841547  0.11983406  1
  O  O435  1  0.36845650  0.86966656  0.61931793  1
  O  O436  1  0.87073823  0.36917560  0.11948291  1
  O  O437  1  0.87643573  0.36988992  0.61897701  1
  O  O438  1  0.87125652  0.86660490  0.12409075  1
  O  O439  1  0.86925316  0.86939955  0.61960871  1
  O  O440  1  0.13115130  0.13018467  0.38025421  1
  O  O441  1  0.12567912  0.12906894  0.88365527  1
  O  O442  1  0.12555441  0.63103838  0.38011269  1
  O  O443  1  0.13304167  0.62339068  0.88018569  1
  O  O444  1  0.62941755  0.12624257  0.38508794  1
  O  O445  1  0.63034801  0.13077526  0.88012955  1
  O  O446  1  0.63207345  0.63312068  0.37603230  1
  O  O447  1  0.62549258  0.63032740  0.88618491  1
