# generated using pymatgen
data_V3Zn3O8
_symmetry_space_group_name_H-M   'P 1'
_cell_length_a   17.08575003
_cell_length_b   17.08415124
_cell_length_c   17.08569335
_cell_angle_alpha   90.00615952
_cell_angle_beta   90.00499853
_cell_angle_gamma   90.01118202
_symmetry_Int_Tables_number   1
_chemical_formula_structural   V3Zn3O8
_chemical_formula_sum   'V96 Zn96 O256'
_cell_volume   4987.23750051
_cell_formula_units_Z   32
loop_
 _symmetry_equiv_pos_site_id
 _symmetry_equiv_pos_as_xyz
  1  'x, y, z'
loop_
 _atom_site_type_symbol
 _atom_site_label
 _atom_site_symmetry_multiplicity
 _atom_site_fract_x
 _atom_site_fract_y
 _atom_site_fract_z
 _atom_site_occupancy
  V  V0  1  0.25088161  0.87383237  0.62552684  1
  V  V1  1  0.74854339  0.25179136  -0.00135648  1
  V  V2  1  0.12516225  0.62570017  0.00109915  1
  V  V3  1  0.74986837  0.62479755  0.37441113  1
  V  V4  1  0.75120252  -0.00030336  0.74875243  1
  V  V5  1  0.24956809  0.24963445  0.50086873  1
  V  V6  1  0.62541700  0.00052812  0.12445280  1
  V  V7  1  0.87549280  0.87465481  0.50001617  1
  V  V8  1  0.50116934  0.87351197  0.87422893  1
  V  V9  1  0.00058187  0.87544183  0.37513499  1
  V  V10  1  0.24963636  0.12429411  0.87602469  1
  V  V11  1  0.62704131  0.00170645  0.62416979  1
  V  V12  1  0.74835915  0.74998033  -0.00080935  1
  V  V13  1  0.24942629  0.37385302  0.12527347  1
  V  V14  1  0.87356849  0.50092750  0.87583787  1
  V  V15  1  0.62593371  0.12556288  0.50085420  1
  V  V16  1  0.62475352  0.12428071  -0.00132263  1
  V  V17  1  0.12602901  0.49927684  0.62859538  1
  V  V18  1  0.12419836  0.62506221  0.50118247  1
  V  V19  1  0.62679874  0.49883455  0.62400099  1
  V  V20  1  0.25042531  0.74937148  0.50020643  1
  V  V21  1  0.37635244  0.87550974  0.49982033  1
  V  V22  1  0.75112704  0.25190354  0.50003038  1
  V  V23  1  0.87378874  0.62495010  0.25068057  1
  V  V24  1  -0.00170290  0.50054060  0.00075573  1
  V  V25  1  0.25045895  0.12434162  0.37446015  1
  V  V26  1  0.62555430  0.37548290  0.24891864  1
  V  V27  1  -0.00031115  0.74942093  0.75040654  1
  V  V28  1  0.12452918  0.37444934  0.25086177  1
  V  V29  1  0.62627858  0.37405706  0.74912765  1
  V  V30  1  0.75046697  0.12520897  0.87421039  1
  V  V31  1  0.00017454  0.75053970  0.25035451  1
  V  V32  1  0.12439992  0.24985244  0.37510821  1
  V  V33  1  0.37550817  -0.00135813  0.87540816  1
  V  V34  1  0.62478729  0.62486572  0.49931733  1
  V  V35  1  0.49620994  0.37583393  0.87378340  1
  V  V36  1  0.62328660  0.50107102  0.12436860  1
  V  V37  1  -0.00064174  0.62573629  0.62550586  1
  V  V38  1  0.75200707  0.12541242  0.37338077  1
  V  V39  1  0.25116172  0.74993394  0.00227890  1
  V  V40  1  0.87729031  0.25113696  0.62476630  1
  V  V41  1  0.00085001  0.12532759  0.62560592  1
  V  V42  1  -0.00118142  0.37573936  0.37481615  1
  V  V43  1  0.12385165  0.49978511  0.12615847  1
  V  V44  1  0.12655961  0.87598637  0.24963465  1
  V  V45  1  0.37335239  0.61902502  0.75061380  1
  V  V46  1  0.00056745  -0.00028450  0.49946681  1
  V  V47  1  0.87519986  0.00173476  0.37357929  1
  V  V48  1  0.37601852  0.74999134  0.62495682  1
  V  V49  1  0.87436978  0.50034870  0.37464849  1
  V  V50  1  0.74881704  0.62493554  0.87462282  1
  V  V51  1  0.50047620  0.62532899  0.62376287  1
  V  V52  1  0.87422678  0.75037684  0.12527244  1
  V  V53  1  0.74950984  0.87596162  0.12537049  1
  V  V54  1  0.00186621  0.37463110  0.87432840  1
  V  V55  1  0.87513365  0.37584741  0.49960616  1
  V  V56  1  0.50065080  0.00000483  -0.00043892  1
  V  V57  1  -0.00120127  0.62520749  0.12567431  1
  V  V58  1  0.37522042  0.24923945  0.12456153  1
  V  V59  1  0.00008843  0.87425958  0.87534904  1
  V  V60  1  0.87474331  0.87541093  0.00021474  1
  V  V61  1  0.49956247  0.49905780  0.49862584  1
  V  V62  1  0.62479895  0.74925837  0.87412549  1
  V  V63  1  0.24909371  0.24926599  0.00006367  1
  V  V64  1  0.00041244  0.00072163  0.00033059  1
  V  V65  1  0.25083553  -0.00205198  0.75091166  1
  V  V66  1  0.37560820  0.00139521  0.37375131  1
  V  V67  1  0.12559983  -0.00056908  0.12553362  1
  V  V68  1  0.12511528  0.75020754  0.37527456  1
  V  V69  1  0.50103098  0.87666791  0.37540393  1
  V  V70  1  0.12557579  -0.00117495  0.62462477  1
  V  V71  1  0.12484867  0.12470550  -0.00002170  1
  V  V72  1  0.37506730  0.87397286  0.00079109  1
  V  V73  1  0.37593730  0.12346350  0.74948741  1
  V  V74  1  0.87426384  0.62522557  0.74986615  1
  V  V75  1  0.12553055  0.87325044  0.75076885  1
  V  V76  1  0.24949336  0.50026643  0.25184467  1
  V  V77  1  0.62536055  0.25037376  0.37460678  1
  V  V78  1  0.50076386  0.74954858  0.74989687  1
  V  V79  1  0.12506632  0.74855870  0.87667956  1
  V  V80  1  0.75072321  0.75074858  0.50033510  1
  V  V81  1  0.49883970  0.62542192  0.12440571  1
  V  V82  1  0.37455788  0.62488331  0.25216610  1
  V  V83  1  0.37529201  0.24669726  0.62634107  1
  V  V84  1  0.49972118  0.74995995  0.25058768  1
  V  V85  1  0.62519952  0.75113775  0.37536215  1
  V  V86  1  0.49933115  0.24799406  0.24973014  1
  V  V87  1  0.12491976  0.12475110  0.49989819  1
  V  V88  1  0.75125162  0.87557932  0.62421773  1
  V  V89  1  -0.00150228  0.24988049  0.24852171  1
  V  V90  1  0.24969158  0.62428952  0.37525899  1
  V  V91  1  0.37462905  0.37478625  0.50039079  1
  V  V92  1  0.87405594  0.25072719  0.12453734  1
  V  V93  1  0.87712922  0.12589875  0.74920149  1
  V  V94  1  0.62624697  0.87705811  0.25017437  1
  V  V95  1  0.87562999  0.00002298  0.87484522  1
  Zn  Zn96  1  0.62255447  0.62384135  -0.00221311  1
  Zn  Zn97  1  0.87506477  0.12402973  0.24824847  1
  Zn  Zn98  1  -0.00044099  0.50049169  0.50082285  1
  Zn  Zn99  1  0.50249912  0.24618674  0.74973646  1
  Zn  Zn100  1  0.75184817  0.00239767  0.24887978  1
  Zn  Zn101  1  0.25045769  0.00036231  0.24836191  1
  Zn  Zn102  1  0.37400434  0.12407615  0.24948723  1
  Zn  Zn103  1  0.37122462  0.50011342  0.88203543  1
  Zn  Zn104  1  0.25069926  0.62179878  0.87591498  1
  Zn  Zn105  1  0.87472339  0.74957912  0.62494525  1
  Zn  Zn106  1  0.37466152  0.49899695  0.37636522  1
  Zn  Zn107  1  0.12506121  0.25019632  0.87314390  1
  Zn  Zn108  1  0.00234805  0.25050138  0.75125377  1
  Zn  Zn109  1  0.37497954  0.75211850  0.12671529  1
  Zn  Zn110  1  0.75319277  0.37669979  0.62635995  1
  Zn  Zn111  1  0.62216837  0.24952692  0.87339946  1
  Zn  Zn112  1  0.74836634  0.37842258  0.12106831  1
  Zn  Zn113  1  0.50211091  0.00181646  0.50116780  1
  Zn  Zn114  1  0.50154678  0.12289407  0.62528652  1
  Zn  Zn115  1  0.49708436  0.49885221  -0.00127153  1
  Zn  Zn116  1  0.24834770  0.37582844  0.62829209  1
  Zn  Zn117  1  0.75047992  0.49981977  0.74953986  1
  Zn  Zn118  1  0.25336394  0.87638614  0.12815223  1
  Zn  Zn119  1  0.37428924  0.37656455  -0.00190596  1
  Zn  Zn120  1  0.62592764  0.87507078  0.74839096  1
  Zn  Zn121  1  0.24845355  0.49608816  0.75587114  1
  Zn  Zn122  1  0.49961520  0.37569119  0.37609800  1
  Zn  Zn123  1  0.49976748  0.12427752  0.12317190  1
  Zn  Zn124  1  0.12738534  0.37075151  0.74935246  1
  Zn  Zn125  1  -0.00043382  0.12548031  0.12535850  1
  Zn  Zn126  1  0.87243192  0.37668062  -0.00097187  1
  Zn  Zn127  1  0.74949158  0.50063476  0.24857999  1
  Zn  Zn128  1  0.18758675  0.18519791  0.18821904  1
  Zn  Zn129  1  0.18761513  0.18777915  0.68989769  1
  Zn  Zn130  1  0.18778133  0.68786977  0.18706881  1
  Zn  Zn131  1  0.18837186  0.68546416  0.68841614  1
  Zn  Zn132  1  0.68830472  0.18607424  0.18586863  1
  Zn  Zn133  1  0.69062455  0.18916452  0.68622099  1
  Zn  Zn134  1  0.68674380  0.68848210  0.18829166  1
  Zn  Zn135  1  0.68810363  0.68798325  0.68760729  1
  Zn  Zn136  1  0.31178734  0.31194429  0.31320235  1
  Zn  Zn137  1  0.30990332  0.31277159  0.81058502  1
  Zn  Zn138  1  0.31240753  0.81331769  0.31253024  1
  Zn  Zn139  1  0.31382582  0.80889443  0.81391738  1
  Zn  Zn140  1  0.81106581  0.31309480  0.31127027  1
  Zn  Zn141  1  0.81468029  0.31314733  0.81221705  1
  Zn  Zn142  1  0.81227869  0.81359871  0.31279689  1
  Zn  Zn143  1  0.81215189  0.81180298  0.81149352  1
  Zn  Zn144  1  0.18701749  0.43781857  0.44074290  1
  Zn  Zn145  1  0.18847897  0.43845459  0.93830841  1
  Zn  Zn146  1  0.18932827  0.93742873  0.43684155  1
  Zn  Zn147  1  0.18791205  0.93610645  0.93949186  1
  Zn  Zn148  1  0.68844203  0.43699187  0.43619411  1
  Zn  Zn149  1  0.68344167  0.43849689  0.93583824  1
  Zn  Zn150  1  0.68987374  0.93970305  0.43796708  1
  Zn  Zn151  1  0.68709753  0.93673804  0.93637752  1
  Zn  Zn152  1  0.31187413  0.06252453  0.06270813  1
  Zn  Zn153  1  0.31217454  0.06194406  0.56134101  1
  Zn  Zn154  1  0.31374777  0.56112348  0.06403405  1
  Zn  Zn155  1  0.31124660  0.56167427  0.56432916  1
  Zn  Zn156  1  0.81175567  0.06446342  0.06209703  1
  Zn  Zn157  1  0.81310042  0.06407348  0.56110156  1
  Zn  Zn158  1  0.81031022  0.56395026  0.06108714  1
  Zn  Zn159  1  0.81247945  0.56168751  0.56259322  1
  Zn  Zn160  1  0.43619277  0.43707208  0.18860089  1
  Zn  Zn161  1  0.44075070  0.43513354  0.68504250  1
  Zn  Zn162  1  0.43917819  0.93676246  0.18639238  1
  Zn  Zn163  1  0.44062869  0.93783068  0.68694794  1
  Zn  Zn164  1  0.93503767  0.43590531  0.18754644  1
  Zn  Zn165  1  0.93952186  0.43902599  0.68931303  1
  Zn  Zn166  1  0.93835528  0.93835740  0.18790315  1
  Zn  Zn167  1  0.93741683  0.93732564  0.68687843  1
  Zn  Zn168  1  0.06138648  0.06417332  0.31008650  1
  Zn  Zn169  1  0.06362087  0.06208316  0.81274494  1
  Zn  Zn170  1  0.06134595  0.56243369  0.31351208  1
  Zn  Zn171  1  0.06113040  0.56290791  0.81353821  1
  Zn  Zn172  1  0.56378871  0.06366763  0.31279293  1
  Zn  Zn173  1  0.56352623  0.06186063  0.81114944  1
  Zn  Zn174  1  0.56050361  0.56137646  0.31303478  1
  Zn  Zn175  1  0.56129129  0.55975910  0.81150858  1
  Zn  Zn176  1  0.43994427  0.18655903  0.43856876  1
  Zn  Zn177  1  0.43784161  0.18922152  0.93576482  1
  Zn  Zn178  1  0.43736104  0.68761241  0.43656280  1
  Zn  Zn179  1  0.43722969  0.68666401  0.93643534  1
  Zn  Zn180  1  0.93746276  0.18818115  0.43740335  1
  Zn  Zn181  1  0.93749254  0.18820208  0.93857809  1
  Zn  Zn182  1  0.93769184  0.68714215  0.43847939  1
  Zn  Zn183  1  0.93611867  0.68690599  0.93758904  1
  Zn  Zn184  1  0.06175127  0.31267770  0.06002478  1
  Zn  Zn185  1  0.06077025  0.31397741  0.56190514  1
  Zn  Zn186  1  0.06288630  0.81401907  0.06374724  1
  Zn  Zn187  1  0.06228497  0.81136168  0.56342490  1
  Zn  Zn188  1  0.56093634  0.31313103  0.06024069  1
  Zn  Zn189  1  0.56130027  0.31136731  0.56396110  1
  Zn  Zn190  1  0.56317531  0.81235671  0.06202944  1
  Zn  Zn191  1  0.56376804  0.81472412  0.56275815  1
  O  O192  1  0.12327401  0.11709818  0.11837659  1
  O  O193  1  0.12142998  0.11762748  0.61915995  1
  O  O194  1  0.11777360  0.61986035  0.12158984  1
  O  O195  1  0.11953590  0.61985404  0.62035574  1
  O  O196  1  0.62388797  0.11826033  0.11654644  1
  O  O197  1  0.62752474  0.11912770  0.61841088  1
  O  O198  1  0.61506611  0.61747492  0.12813933  1
  O  O199  1  0.61977097  0.62037424  0.61818460  1
  O  O200  1  0.37530260  0.37423715  0.38892673  1
  O  O201  1  0.38523245  0.37591304  0.87271303  1
  O  O202  1  0.38040917  0.88239767  0.38002006  1
  O  O203  1  0.38095702  0.87922711  0.88038852  1
  O  O204  1  0.87915292  0.38028073  0.37842896  1
  O  O205  1  0.88354757  0.38256518  0.87680207  1
  O  O206  1  0.88157429  0.88028113  0.38046086  1
  O  O207  1  0.88034110  0.88017211  0.88077174  1
  O  O208  1  0.25959841  0.00532005  0.37456449  1
  O  O209  1  0.25621631  0.00273942  0.87035764  1
  O  O210  1  0.24913998  0.50667112  0.36948939  1
  O  O211  1  0.25376605  0.50504202  0.87318118  1
  O  O212  1  0.75790580  0.00709037  0.37397391  1
  O  O213  1  0.75682285  0.00475133  0.86981025  1
  O  O214  1  0.75553274  0.50769945  0.37223488  1
  O  O215  1  0.75518639  0.50755895  0.87541821  1
  O  O216  1  0.24276496  0.49469545  0.13220392  1
  O  O217  1  0.23704134  0.50053296  0.62676686  1
  O  O218  1  0.24087108  0.99756326  0.12681693  1
  O  O219  1  0.24506308  0.99309625  0.63015127  1
  O  O220  1  0.73703205  0.50069997  0.12729373  1
  O  O221  1  0.74158088  0.49746110  0.62691510  1
  O  O222  1  0.74425246  0.99322463  0.12464565  1
  O  O223  1  0.74702627  0.99546152  0.62927760  1
  O  O224  1  0.00579533  0.36963876  0.25515222  1
  O  O225  1  0.00203853  0.37474088  0.76282701  1
  O  O226  1  0.00535651  0.86887337  0.25607338  1
  O  O227  1  0.00608039  0.87030507  0.75550931  1
  O  O228  1  0.50834456  0.36521748  0.25087290  1
  O  O229  1  0.50932282  0.37244823  0.75545441  1
  O  O230  1  0.50660526  0.86971636  0.25601871  1
  O  O231  1  0.50048366  0.86722261  0.75666265  1
  O  O232  1  0.49992061  0.13823359  0.24739985  1
  O  O233  1  0.49125270  0.12582782  0.74788561  1
  O  O234  1  0.49498495  0.63043467  0.24421028  1
  O  O235  1  0.49347961  0.63010279  0.74238157  1
  O  O236  1  0.99701730  0.13510818  0.24677586  1
  O  O237  1  0.99412506  0.12294590  0.74312437  1
  O  O238  1  0.99428884  0.63129353  0.24510425  1
  O  O239  1  0.99390952  0.63159315  0.74589355  1
  O  O240  1  0.36909078  0.25082376  0.01044364  1
  O  O241  1  0.37010487  0.25500080  0.50670617  1
  O  O242  1  0.36633122  0.75450077  0.00050388  1
  O  O243  1  0.36969586  0.75517923  0.50527630  1
  O  O244  1  0.86490071  0.25064141  0.00738341  1
  O  O245  1  0.87065792  0.25618211  0.50447063  1
  O  O246  1  0.86951327  0.75597776  0.00574096  1
  O  O247  1  0.86848042  0.75694627  0.50006462  1
  O  O248  1  0.12932086  0.24423555  0.49487174  1
  O  O249  1  0.13192135  0.24215865  0.99964994  1
  O  O250  1  0.13105072  0.74569061  0.49498721  1
  O  O251  1  0.13165435  0.74628295  0.99666697  1
  O  O252  1  0.63089968  0.24661946  0.49471789  1
  O  O253  1  0.63429190  0.24393149  0.99899681  1
  O  O254  1  0.63031752  0.74478740  0.49423602  1
  O  O255  1  0.63129900  0.74853452  0.99285877  1
  O  O256  1  0.49178838  0.24993043  0.13235618  1
  O  O257  1  0.48603265  0.24610418  0.62603735  1
  O  O258  1  0.50113097  0.74075763  0.13203228  1
  O  O259  1  0.49538297  0.74508252  0.62889499  1
  O  O260  1  0.99000898  0.25095303  0.12864086  1
  O  O261  1  0.99455764  0.24190142  0.62470788  1
  O  O262  1  0.99402182  0.74527330  0.13036912  1
  O  O263  1  0.99926407  0.74433493  0.63267628  1
  O  O264  1  0.00538029  0.25597752  0.36942925  1
  O  O265  1  0.00030649  0.26179862  0.87650641  1
  O  O266  1  0.00562629  0.75565359  0.36992889  1
  O  O267  1  0.00529042  0.75565221  0.87097522  1
  O  O268  1  0.50610764  0.25154437  0.36525624  1
  O  O269  1  0.50173449  0.26018167  0.87057940  1
  O  O270  1  0.50620895  0.75604787  0.37030940  1
  O  O271  1  0.50539394  0.75443786  0.86986278  1
  O  O272  1  0.24357383  0.12955113  0.49432148  1
  O  O273  1  0.24472165  0.12913910  0.99452834  1
  O  O274  1  0.24478702  0.63123171  0.49530440  1
  O  O275  1  0.24399906  0.63437131  1.00173637  1
  O  O276  1  0.74585063  0.13257930  0.49341616  1
  O  O277  1  0.74505153  0.13227474  0.99347201  1
  O  O278  1  0.74400854  0.63076959  0.49398687  1
  O  O279  1  0.74718366  0.63340104  0.99320599  1
  O  O280  1  0.24996713  0.36735433  0.00871156  1
  O  O281  1  0.25852672  0.36813228  0.50301337  1
  O  O282  1  0.25581348  0.86509264  0.00064203  1
  O  O283  1  0.25578157  0.86891280  0.50586273  1
  O  O284  1  0.74848872  0.36363775  -0.00100216  1
  O  O285  1  0.75725476  0.36871081  0.50040329  1
  O  O286  1  0.75587126  0.86975765  0.00500569  1
  O  O287  1  0.75639648  0.86990650  0.50415574  1
  O  O288  1  0.12912596  0.49460008  0.24535537  1
  O  O289  1  0.12439164  0.50228582  0.73839555  1
  O  O290  1  0.12476119  0.99381615  0.24303778  1
  O  O291  1  0.13113444  0.99275209  0.74453982  1
  O  O292  1  0.62364134  0.49132229  0.24275178  1
  O  O293  1  0.62562031  0.49059190  0.74233313  1
  O  O294  1  0.62616803  0.99393054  0.24327659  1
  O  O295  1  0.63420518  0.99892324  0.74275201  1
  O  O296  1  0.37545613  0.00132042  0.26196627  1
  O  O297  1  0.36938635  0.00249380  0.75543679  1
  O  O298  1  0.36705300  0.50522284  0.25286124  1
  O  O299  1  0.37598218  0.51272217  0.74313233  1
  O  O300  1  0.87386466  0.00225215  0.25751095  1
  O  O301  1  0.87102647  0.00528938  0.75546766  1
  O  O302  1  0.87231295  0.50681272  0.25530975  1
  O  O303  1  0.87339789  0.50782824  0.75760844  1
  O  O304  1  0.11999652  0.36924779  0.37062326  1
  O  O305  1  0.11246297  0.37605939  0.87555798  1
  O  O306  1  0.11971748  0.86955701  0.37083361  1
  O  O307  1  0.11945345  0.86949015  0.87016959  1
  O  O308  1  0.62334449  0.36918283  0.36497011  1
  O  O309  1  0.61601795  0.37490799  0.86465832  1
  O  O310  1  0.62108742  0.87080171  0.37087165  1
  O  O311  1  0.61894129  0.86820595  0.87200320  1
  O  O312  1  0.37633570  0.13707678  0.12759585  1
  O  O313  1  0.37448678  0.13141113  0.62969050  1
  O  O314  1  0.38444036  0.62661878  0.13354860  1
  O  O315  1  0.38090819  0.63149269  0.62966841  1
  O  O316  1  0.87614834  0.13800545  0.12528362  1
  O  O317  1  0.88172637  0.12994337  0.62910597  1
  O  O318  1  0.87937103  0.63122256  0.13055132  1
  O  O319  1  0.88113293  0.62661782  0.63114336  1
  O  O320  1  0.25710213  0.25393419  0.12176356  1
  O  O321  1  0.25986197  0.24813364  0.61838432  1
  O  O322  1  0.25097802  0.75209529  0.11378113  1
  O  O323  1  0.25548274  0.75523965  0.61988514  1
  O  O324  1  0.75586944  0.25074239  0.11440395  1
  O  O325  1  0.75990844  0.25245557  0.61719725  1
  O  O326  1  0.75472264  0.75572017  0.11974718  1
  O  O327  1  0.75112983  0.75655271  0.61745959  1
  O  O328  1  0.24351134  0.24459916  0.38106946  1
  O  O329  1  0.25017813  0.24174235  0.88276928  1
  O  O330  1  0.24402193  0.74470527  0.38102505  1
  O  O331  1  0.24404795  0.74759132  0.88617460  1
  O  O332  1  0.74450279  0.24574270  0.38013028  1
  O  O333  1  0.75127890  0.24365540  0.88468054  1
  O  O334  1  0.74436884  0.74531956  0.38053081  1
  O  O335  1  0.74489524  0.74540993  0.87987791  1
  O  O336  1  0.00633029  0.11750507  0.00027625  1
  O  O337  1  0.00613093  0.11901191  0.50506909  1
  O  O338  1  0.00455355  0.62132729  0.00708093  1
  O  O339  1  0.00692875  0.62536754  0.50655040  1
  O  O340  1  0.50650937  0.11788900  -0.00131276  1
  O  O341  1  0.51093451  0.12306831  0.50247571  1
  O  O342  1  0.50045408  0.62521243  0.01363831  1
  O  O343  1  0.50534176  0.62051137  0.50435068  1
  O  O344  1  0.49052377  0.37926981  0.49980437  1
  O  O345  1  0.49857657  0.37502841  0.98706159  1
  O  O346  1  0.49375168  0.87614510  0.49291455  1
  O  O347  1  0.49499501  0.87956291  0.99384375  1
  O  O348  1  0.99264023  0.37628488  0.49098087  1
  O  O349  1  0.99754108  0.38303537  0.99240797  1
  O  O350  1  0.99647182  0.87997721  0.49479672  1
  O  O351  1  0.99418530  0.87947940  0.99443463  1
  O  O352  1  0.49568298  0.49694631  0.38290247  1
  O  O353  1  0.49641486  0.48908159  0.87533374  1
  O  O354  1  0.49235559  0.99498633  0.37664495  1
  O  O355  1  0.49497447  0.99333357  0.87992285  1
  O  O356  1  0.99295859  0.49357354  0.37567799  1
  O  O357  1  0.99365859  0.49503427  0.88188530  1
  O  O358  1  0.99639099  0.99463065  0.38083739  1
  O  O359  1  0.99525158  0.99304672  0.88027080  1
  O  O360  1  0.00719377  0.00102889  0.11790470  1
  O  O361  1  0.00640584  0.00428512  0.61897233  1
  O  O362  1  0.00413205  0.50559525  0.12156624  1
  O  O363  1  0.00852029  0.50811916  0.62334326  1
  O  O364  1  0.50677370  0.00148463  0.11723527  1
  O  O365  1  0.51037676  0.00169072  0.62196597  1
  O  O366  1  0.50735490  0.50944109  0.12891085  1
  O  O367  1  0.50719633  0.50620836  0.61749730  1
  O  O368  1  0.24332023  0.37956235  0.24588732  1
  O  O369  1  0.24532542  0.37905503  0.74492045  1
  O  O370  1  0.24162882  0.87668223  0.24880182  1
  O  O371  1  0.24541042  0.87784619  0.74559609  1
  O  O372  1  0.73523493  0.37522722  0.24595616  1
  O  O373  1  0.73913601  0.37710126  0.74980116  1
  O  O374  1  0.74367061  0.87602918  0.24315249  1
  O  O375  1  0.75093470  0.88212962  0.74287574  1
  O  O376  1  0.25304279  0.12305352  0.25990685  1
  O  O377  1  0.25559524  0.11590644  0.75564908  1
  O  O378  1  0.25394525  0.62028545  0.25536889  1
  O  O379  1  0.26228241  0.62542595  0.75186083  1
  O  O380  1  0.75265398  0.12398308  0.25809559  1
  O  O381  1  0.75792220  0.11948564  0.75457700  1
  O  O382  1  0.75616145  0.62604835  0.25699057  1
  O  O383  1  0.75609949  0.62473243  0.75726915  1
  O  O384  1  0.37015386  0.11652896  0.37619178  1
  O  O385  1  0.36914947  0.11760699  0.87018882  1
  O  O386  1  0.36709270  0.62375069  0.37023962  1
  O  O387  1  0.37650626  0.62291306  0.86226529  1
  O  O388  1  0.86961170  0.11950914  0.37471033  1
  O  O389  1  0.87066252  0.11856535  0.86993782  1
  O  O390  1  0.86990841  0.62093151  0.36989209  1
  O  O391  1  0.86950666  0.62059938  0.86992997  1
  O  O392  1  0.12931296  0.38006247  0.13149583  1
  O  O393  1  0.12393780  0.38675016  0.62424918  1
  O  O394  1  0.12550955  0.88264448  0.13147838  1
  O  O395  1  0.13098767  0.87919001  0.63077929  1
  O  O396  1  0.62205474  0.38426263  0.13247779  1
  O  O397  1  0.62508826  0.37984872  0.63319721  1
  O  O398  1  0.63023852  0.88042006  0.12993384  1
  O  O399  1  0.63376689  0.88276510  0.62543046  1
  O  O400  1  0.11978156  0.25557621  0.25531825  1
  O  O401  1  0.11998423  0.25111724  0.75472371  1
  O  O402  1  0.11913898  0.75462744  0.25567094  1
  O  O403  1  0.12037815  0.75451017  0.75633338  1
  O  O404  1  0.61743503  0.25698445  0.25198252  1
  O  O405  1  0.62474797  0.26006886  0.75029567  1
  O  O406  1  0.61973149  0.75675569  0.25657031  1
  O  O407  1  0.61806188  0.75142324  0.75562628  1
  O  O408  1  0.38357766  0.25058128  0.24337256  1
  O  O409  1  0.37292427  0.24201248  0.73913049  1
  O  O410  1  0.38194477  0.74379492  0.25021999  1
  O  O411  1  0.38082062  0.74164043  0.74407059  1
  O  O412  1  0.87920379  0.25139263  0.23993123  1
  O  O413  1  0.87801420  0.24284324  0.74334735  1
  O  O414  1  0.88083453  0.74560081  0.24506013  1
  O  O415  1  0.88237714  0.74393630  0.74914333  1
  O  O416  1  0.37954802  0.49009418  0.50219910  1
  O  O417  1  0.37979640  0.49420568  1.00150603  1
  O  O418  1  0.37584106  0.99391938  0.49016627  1
  O  O419  1  0.38026424  0.99436604  0.99433064  1
  O  O420  1  0.87671143  0.49436447  0.49231473  1
  O  O421  1  0.88060514  0.50012082  0.99480205  1
  O  O422  1  0.88196071  0.99458341  0.49418984  1
  O  O423  1  0.88003348  0.99485885  0.99468833  1
  O  O424  1  0.11984067  0.00351955  0.00600703  1
  O  O425  1  0.12036438  0.00414598  0.50499883  1
  O  O426  1  0.11883527  0.50668795  0.00815444  1
  O  O427  1  0.12251191  0.50742217  0.50896179  1
  O  O428  1  0.62020210  0.00412092  0.00428484  1
  O  O429  1  0.62717424  0.00787447  0.50670222  1
  O  O430  1  0.61954158  0.50215305  0.01233021  1
  O  O431  1  0.61984953  0.50542610  0.50332505  1
  O  O432  1  0.36849769  0.36320055  0.12705895  1
  O  O433  1  0.37461806  0.36511727  0.61547314  1
  O  O434  1  0.37425382  0.87196483  0.11697864  1
  O  O435  1  0.37013932  0.86977715  0.62019881  1
  O  O436  1  0.86969200  0.36446799  0.12188124  1
  O  O437  1  0.87680128  0.36973234  0.61854286  1
  O  O438  1  0.87025471  0.86954732  0.11954032  1
  O  O439  1  0.86974441  0.87390459  0.61739390  1
  O  O440  1  0.12935022  0.13034422  0.38120873  1
  O  O441  1  0.13253505  0.12264268  0.88262265  1
  O  O442  1  0.12945595  0.63123809  0.38013974  1
  O  O443  1  0.12394444  0.63203941  0.88393294  1
  O  O444  1  0.63175965  0.13154123  0.38023428  1
  O  O445  1  0.63306185  0.12607827  0.88011742  1
  O  O446  1  0.62919942  0.63113028  0.37979761  1
  O  O447  1  0.62964304  0.63064100  0.87546097  1
