# generated using pymatgen
data_V3Zn3O8
_symmetry_space_group_name_H-M   'P 1'
_cell_length_a   17.08206950
_cell_length_b   17.08279431
_cell_length_c   17.08047894
_cell_angle_alpha   90.00551125
_cell_angle_beta   90.00017855
_cell_angle_gamma   90.00064340
_symmetry_Int_Tables_number   1
_chemical_formula_structural   V3Zn3O8
_chemical_formula_sum   'V96 Zn96 O256'
_cell_volume   4984.24564925
_cell_formula_units_Z   32
loop_
 _symmetry_equiv_pos_site_id
 _symmetry_equiv_pos_as_xyz
  1  'x, y, z'
loop_
 _atom_site_type_symbol
 _atom_site_label
 _atom_site_symmetry_multiplicity
 _atom_site_fract_x
 _atom_site_fract_y
 _atom_site_fract_z
 _atom_site_occupancy
  V  V0  1  0.74986545  0.87547644  0.62399871  1
  V  V1  1  0.50009016  0.49932165  0.50065376  1
  V  V2  1  0.87374187  0.37450206  0.00063898  1
  V  V3  1  0.12500369  0.00086094  0.12504602  1
  V  V4  1  0.49930690  0.74956049  0.74918462  1
  V  V5  1  0.74973520  0.62527961  0.37634142  1
  V  V6  1  0.75038541  0.87396697  0.12515206  1
  V  V7  1  0.49944029  0.37586917  0.87497705  1
  V  V8  1  0.87393085  0.87569624  0.50090003  1
  V  V9  1  0.87658496  0.24824349  0.62626443  1
  V  V10  1  0.12545738  0.74975669  0.37517729  1
  V  V11  1  -0.00000898  0.37517565  0.37363423  1
  V  V12  1  0.24942895  0.12575384  0.87516270  1
  V  V13  1  0.87570048  0.87375044  -0.00057107  1
  V  V14  1  0.49831744  0.87589599  0.87512290  1
  V  V15  1  0.50029907  0.12423818  0.12490623  1
  V  V16  1  0.00003956  0.37597108  0.87564049  1
  V  V17  1  0.62525477  -0.00015432  0.12420479  1
  V  V18  1  0.37599514  0.12432314  0.25086724  1
  V  V19  1  0.62413163  0.74977398  0.87504631  1
  V  V20  1  0.00025789  0.87535995  0.37548587  1
  V  V21  1  0.24961173  0.37556901  0.62427504  1
  V  V22  1  0.49911320  0.12412001  0.62521417  1
  V  V23  1  0.00088637  0.50056872  0.00082501  1
  V  V24  1  0.62373952  0.00136462  0.62632833  1
  V  V25  1  -0.00088769  0.74967714  0.24973844  1
  V  V26  1  0.75050748  0.62485529  0.87389519  1
  V  V27  1  0.37525916  0.49937916  0.87550045  1
  V  V28  1  0.12456873  0.50054597  0.12517373  1
  V  V29  1  0.75059024  0.24856324  0.49972254  1
  V  V30  1  0.62511726  0.37437637  0.24957481  1
  V  V31  1  0.49890568  0.50023983  -0.00039796  1
  V  V32  1  0.74942121  0.49945221  0.25042768  1
  V  V33  1  0.62557905  0.37515296  0.74913141  1
  V  V34  1  0.49965276  0.62558243  0.12578200  1
  V  V35  1  0.87525700  0.62524530  0.74978129  1
  V  V36  1  0.37418887  0.87549948  0.00010937  1
  V  V37  1  0.00111699  0.00100511  0.50066095  1
  V  V38  1  0.12376230  0.12520436  0.00177581  1
  V  V39  1  -0.00120349  0.25004058  0.74964097  1
  V  V40  1  0.12478108  0.37607509  0.24947856  1
  V  V41  1  0.37532256  0.50070132  0.37371523  1
  V  V42  1  0.50052637  0.74920887  0.24958883  1
  V  V43  1  0.62364174  0.87561254  0.75003082  1
  V  V44  1  0.37686393  -0.00120654  0.37445771  1
  V  V45  1  0.87510534  0.50086268  0.87432282  1
  V  V46  1  0.62572754  0.87563586  0.25081836  1
  V  V47  1  0.25068631  0.50239971  0.24995783  1
  V  V48  1  0.37565713  0.62525799  0.74917869  1
  V  V49  1  0.62627987  0.62450831  0.50143036  1
  V  V50  1  0.75024331  0.37430674  0.12321206  1
  V  V51  1  0.50044752  0.37434838  0.37576142  1
  V  V52  1  -0.00099231  0.62469069  0.12540366  1
  V  V53  1  0.24842398  0.87574484  0.62513691  1
  V  V54  1  0.87573170  0.00040360  0.37431228  1
  V  V55  1  0.50170992  0.87542406  0.37488131  1
  V  V56  1  0.24970151  0.62602501  0.87474921  1
  V  V57  1  0.62500491  0.12511642  -0.00127534  1
  V  V58  1  0.25094964  -0.00111999  0.25035241  1
  V  V59  1  0.87651162  0.12521048  0.24787401  1
  V  V60  1  0.12540303  0.62564970  0.49895619  1
  V  V61  1  0.87553754  0.37310874  0.49983349  1
  V  V62  1  0.62618862  0.24914983  0.37563513  1
  V  V63  1  0.87377573  0.49896916  0.37493708  1
  V  V64  1  0.62443011  0.62490539  -0.00026916  1
  V  V65  1  0.00004834  0.24949412  0.24767477  1
  V  V66  1  0.62586230  0.24957087  0.87656256  1
  V  V67  1  0.49993565  0.62422338  0.62512562  1
  V  V68  1  0.12530255  0.12524916  0.50029647  1
  V  V69  1  -0.00142360  0.62534669  0.62513444  1
  V  V70  1  0.37396745  0.37458196  0.50004220  1
  V  V71  1  0.49896109  -0.00092612  -0.00040241  1
  V  V72  1  0.74962589  0.00047953  0.75166503  1
  V  V73  1  0.37419180  0.25214765  0.12369829  1
  V  V74  1  0.12541807  0.87504449  0.25040796  1
  V  V75  1  0.12520864  0.37624581  0.74968577  1
  V  V76  1  0.37636222  0.87283016  0.50003564  1
  V  V77  1  0.75126554  0.00008131  0.24930797  1
  V  V78  1  0.87432442  0.00008734  0.87484543  1
  V  V79  1  0.50080934  0.24924397  0.25064904  1
  V  V80  1  0.37149948  0.12454894  0.75028904  1
  V  V81  1  0.74942331  0.74912810  0.00031780  1
  V  V82  1  0.62445742  0.49975593  0.12481846  1
  V  V83  1  0.74984216  0.37355929  0.62542822  1
  V  V84  1  0.24949318  0.75082297  -0.00080588  1
  V  V85  1  0.00042037  0.87405549  0.87391810  1
  V  V86  1  0.00015178  0.75004091  0.74951066  1
  V  V87  1  0.75037009  0.12562164  0.37488431  1
  V  V88  1  0.87496590  0.74897387  0.12576569  1
  V  V89  1  0.24985174  0.49994789  0.75002106  1
  V  V90  1  -0.00061989  0.49966892  0.50023801  1
  V  V91  1  0.25006199  0.87406657  0.12438504  1
  V  V92  1  0.25088425  0.12555708  0.37544124  1
  V  V93  1  0.37261303  0.24973059  0.62359435  1
  V  V94  1  0.12426585  0.25083034  0.87620301  1
  V  V95  1  0.12522583  0.75100117  0.87375947  1
  Zn  Zn96  1  0.24810655  0.25190710  0.49690699  1
  Zn  Zn97  1  0.75104821  0.75123606  0.50138646  1
  Zn  Zn98  1  0.25352064  0.62729978  0.37612790  1
  Zn  Zn99  1  0.87339446  0.75026335  0.62392236  1
  Zn  Zn100  1  0.62492940  0.12466083  0.50126670  1
  Zn  Zn101  1  0.24565425  -0.00076471  0.75001441  1
  Zn  Zn102  1  -0.00047708  -0.00083387  0.00119418  1
  Zn  Zn103  1  0.37456342  0.74947575  0.62412259  1
  Zn  Zn104  1  0.37306038  0.00081699  0.87545521  1
  Zn  Zn105  1  0.62628484  0.49813546  0.62601782  1
  Zn  Zn106  1  0.12476487  0.87749392  0.74819879  1
  Zn  Zn107  1  0.62763264  0.75319669  0.37697271  1
  Zn  Zn108  1  0.12543816  0.62509683  -0.00025640  1
  Zn  Zn109  1  0.87301628  0.24714634  0.12135833  1
  Zn  Zn110  1  0.49837675  0.25058825  0.75045753  1
  Zn  Zn111  1  0.87503625  0.12530695  0.75035335  1
  Zn  Zn112  1  0.50245351  -0.00067395  0.49961401  1
  Zn  Zn113  1  -0.00135604  0.12350573  0.12416160  1
  Zn  Zn114  1  0.75067917  0.12508632  0.87579223  1
  Zn  Zn115  1  0.37546686  0.62571267  0.25035092  1
  Zn  Zn116  1  0.12734156  0.25134539  0.37398191  1
  Zn  Zn117  1  0.12470537  0.50050189  0.62487172  1
  Zn  Zn118  1  0.12341493  0.00038231  0.62797598  1
  Zn  Zn119  1  0.25140535  0.37723753  0.12282840  1
  Zn  Zn120  1  0.75077575  0.50092578  0.74801348  1
  Zn  Zn121  1  0.75196215  0.24782939  0.00070895  1
  Zn  Zn122  1  0.25098599  0.74854360  0.49922830  1
  Zn  Zn123  1  0.87397946  0.62484844  0.25097266  1
  Zn  Zn124  1  0.37321154  0.37459555  -0.00088342  1
  Zn  Zn125  1  0.00027735  0.12309521  0.62803306  1
  Zn  Zn126  1  0.37300988  0.74808935  0.12539673  1
  Zn  Zn127  1  0.24918247  0.25320869  0.00284891  1
  Zn  Zn128  1  0.18846022  0.18764353  0.18927134  1
  Zn  Zn129  1  0.18589392  0.18987614  0.68597706  1
  Zn  Zn130  1  0.18572653  0.68671623  0.18659756  1
  Zn  Zn131  1  0.18765393  0.69029881  0.68585123  1
  Zn  Zn132  1  0.68864371  0.18798256  0.18624608  1
  Zn  Zn133  1  0.68934723  0.18695259  0.69015712  1
  Zn  Zn134  1  0.68602515  0.68675699  0.18858179  1
  Zn  Zn135  1  0.68836265  0.68920277  0.68681132  1
  Zn  Zn136  1  0.31176895  0.31336333  0.31138116  1
  Zn  Zn137  1  0.31154832  0.31154163  0.81186364  1
  Zn  Zn138  1  0.31290304  0.81091114  0.31395547  1
  Zn  Zn139  1  0.31271215  0.81278495  0.81131511  1
  Zn  Zn140  1  0.81337353  0.31146330  0.31058510  1
  Zn  Zn141  1  0.81211493  0.31273561  0.81320943  1
  Zn  Zn142  1  0.81309840  0.81179552  0.31372113  1
  Zn  Zn143  1  0.81260822  0.81226229  0.81071539  1
  Zn  Zn144  1  0.18706718  0.43926364  0.43549542  1
  Zn  Zn145  1  0.18947469  0.43701309  0.93967566  1
  Zn  Zn146  1  0.18874571  0.93825391  0.43891916  1
  Zn  Zn147  1  0.18629817  0.93843096  0.93688658  1
  Zn  Zn148  1  0.68725101  0.43688239  0.43870286  1
  Zn  Zn149  1  0.68848853  0.43817471  0.93711168  1
  Zn  Zn150  1  0.68698316  0.94086205  0.43938932  1
  Zn  Zn151  1  0.68717252  0.93650784  0.93775532  1
  Zn  Zn152  1  0.31156494  0.06324101  0.06251724  1
  Zn  Zn153  1  0.31095870  0.05918773  0.56067898  1
  Zn  Zn154  1  0.31367753  0.56505679  0.06311196  1
  Zn  Zn155  1  0.31255908  0.56116664  0.56295964  1
  Zn  Zn156  1  0.81193518  0.06307661  0.06094083  1
  Zn  Zn157  1  0.81341140  0.06290722  0.56389987  1
  Zn  Zn158  1  0.81321152  0.56164520  0.06230788  1
  Zn  Zn159  1  0.81303366  0.55928929  0.56468545  1
  Zn  Zn160  1  0.43798519  0.43759831  0.18816061  1
  Zn  Zn161  1  0.43780902  0.43790624  0.68727945  1
  Zn  Zn162  1  0.43701332  0.93558542  0.18615268  1
  Zn  Zn163  1  0.43449382  0.93923196  0.68788338  1
  Zn  Zn164  1  0.93558553  0.43743023  0.18679608  1
  Zn  Zn165  1  0.93769423  0.43777640  0.68690702  1
  Zn  Zn166  1  0.93918011  0.93775922  0.18604637  1
  Zn  Zn167  1  0.93774419  0.93755376  0.68704447  1
  Zn  Zn168  1  0.06381893  0.06346113  0.31378610  1
  Zn  Zn169  1  0.06129355  0.06135201  0.81118133  1
  Zn  Zn170  1  0.06174268  0.56320801  0.31247854  1
  Zn  Zn171  1  0.06332703  0.56364428  0.81249010  1
  Zn  Zn172  1  0.56386135  0.06226052  0.31258826  1
  Zn  Zn173  1  0.56057709  0.06279180  0.81238971  1
  Zn  Zn174  1  0.56335123  0.56235184  0.31382550  1
  Zn  Zn175  1  0.56252451  0.56158311  0.81179532  1
  Zn  Zn176  1  0.43713760  0.18787869  0.43941534  1
  Zn  Zn177  1  0.43928025  0.18838119  0.93780381  1
  Zn  Zn178  1  0.43980657  0.68748736  0.43529031  1
  Zn  Zn179  1  0.43583652  0.68832087  0.93772417  1
  Zn  Zn180  1  0.93911439  0.18727440  0.43573447  1
  Zn  Zn181  1  0.93792524  0.18764601  0.93701247  1
  Zn  Zn182  1  0.93654309  0.68913356  0.43887632  1
  Zn  Zn183  1  0.93877919  0.68702162  0.93753681  1
  Zn  Zn184  1  0.06244872  0.31377520  0.06397838  1
  Zn  Zn185  1  0.06339973  0.31100308  0.56295136  1
  Zn  Zn186  1  0.06311866  0.81184337  0.06107638  1
  Zn  Zn187  1  0.06175187  0.81170636  0.56291085  1
  Zn  Zn188  1  0.56117615  0.31318885  0.06121245  1
  Zn  Zn189  1  0.56147911  0.30926186  0.56294649  1
  Zn  Zn190  1  0.56184536  0.81256565  0.06301003  1
  Zn  Zn191  1  0.56297337  0.81069082  0.56297986  1
  O  O192  1  0.12712255  0.11998131  0.11633698  1
  O  O193  1  0.12432725  0.12427906  0.61201753  1
  O  O194  1  0.11668833  0.61811291  0.12325935  1
  O  O195  1  0.11840717  0.62437403  0.61454325  1
  O  O196  1  0.61940539  0.11914769  0.12023262  1
  O  O197  1  0.61415068  0.12134946  0.62835821  1
  O  O198  1  0.62058408  0.61909296  0.11882877  1
  O  O199  1  0.62063258  0.62227915  0.61656308  1
  O  O200  1  0.38173983  0.38011280  0.37954252  1
  O  O201  1  0.38185462  0.38072000  0.87375476  1
  O  O202  1  0.38084485  0.87946329  0.38117530  1
  O  O203  1  0.38061967  0.87803086  0.88132923  1
  O  O204  1  0.87960695  0.37975641  0.38033818  1
  O  O205  1  0.88054585  0.38114202  0.88024890  1
  O  O206  1  0.88030736  0.88170885  0.37936163  1
  O  O207  1  0.87910455  0.88087659  0.88021608  1
  O  O208  1  0.25755244  0.00426170  0.36867515  1
  O  O209  1  0.25111615  0.01523980  0.87466872  1
  O  O210  1  0.25603880  0.50151880  0.36479277  1
  O  O211  1  0.25563263  0.50565305  0.86938319  1
  O  O212  1  0.75578863  0.00570986  0.36805511  1
  O  O213  1  0.75882637  -0.00303854  0.87007774  1
  O  O214  1  0.75377716  0.50602675  0.37050647  1
  O  O215  1  0.75689906  0.50763411  0.87383521  1
  O  O216  1  0.24489741  0.50107766  0.13443268  1
  O  O217  1  0.24913651  0.49321790  0.63280444  1
  O  O218  1  0.24494195  0.99437003  0.13131106  1
  O  O219  1  0.24861854  0.98756112  0.62514247  1
  O  O220  1  0.74317101  0.49549499  0.13036165  1
  O  O221  1  0.74698389  0.48898249  0.62755820  1
  O  O222  1  0.74486474  0.99331078  0.12991901  1
  O  O223  1  0.74378988  0.99551611  0.63183965  1
  O  O224  1  0.00375275  0.36866753  0.25424236  1
  O  O225  1  0.00530905  0.37084152  0.75648090  1
  O  O226  1  0.00602962  0.86993001  0.25576692  1
  O  O227  1  -0.00019987  0.86716902  0.75647657  1
  O  O228  1  0.50634793  0.36932042  0.25620186  1
  O  O229  1  0.50913117  0.37333710  0.75527929  1
  O  O230  1  0.50590071  0.86824311  0.25397648  1
  O  O231  1  0.50401812  0.87061284  0.75488170  1
  O  O232  1  0.49544770  0.12964543  0.24450917  1
  O  O233  1  0.48945491  0.12646004  0.74208020  1
  O  O234  1  0.50312808  0.63394444  0.24516701  1
  O  O235  1  0.49579968  0.62917384  0.74516279  1
  O  O236  1  0.99585729  0.13378315  0.25034917  1
  O  O237  1  0.99761387  0.13528752  0.74957416  1
  O  O238  1  0.99721121  0.63194600  0.24436296  1
  O  O239  1  0.99491376  0.62979803  0.74500763  1
  O  O240  1  0.37571900  0.24901096  0.01294885  1
  O  O241  1  0.37263386  0.25748987  0.50572952  1
  O  O242  1  0.36798879  0.75761085  0.00137701  1
  O  O243  1  0.37593395  0.76192105  0.49914796  1
  O  O244  1  0.87319925  0.25824336  0.00038544  1
  O  O245  1  0.87070807  0.25508691  0.50394900  1
  O  O246  1  0.86861493  0.75415145  0.00537733  1
  O  O247  1  0.87251589  0.75991399  0.50210067  1
  O  O248  1  0.12597490  0.23953247  0.49533889  1
  O  O249  1  0.12532503  0.24163200  0.99573731  1
  O  O250  1  0.12323968  0.73991754  0.49325650  1
  O  O251  1  0.13206002  0.74876198  0.99240943  1
  O  O252  1  0.63212335  0.24819781  0.49327949  1
  O  O253  1  0.62363625  0.24470498  0.99078609  1
  O  O254  1  0.62725213  0.73666152  0.49773107  1
  O  O255  1  0.62961679  0.74464061  0.99480312  1
  O  O256  1  0.49446680  0.24394802  0.13105257  1
  O  O257  1  0.49231310  0.24014884  0.62735096  1
  O  O258  1  0.50118828  0.74506685  0.13448297  1
  O  O259  1  0.49930452  0.74254048  0.63233152  1
  O  O260  1  0.99803867  0.24890710  0.13776109  1
  O  O261  1  0.99338115  0.25050572  0.63242693  1
  O  O262  1  0.99458736  0.74562263  0.13011294  1
  O  O263  1  0.99745854  0.74327784  0.63175452  1
  O  O264  1  0.00045755  0.25661810  0.36283819  1
  O  O265  1  0.00530695  0.25720075  0.87003476  1
  O  O266  1  0.00451801  0.75619650  0.36914706  1
  O  O267  1  0.00513693  0.75445738  0.86977356  1
  O  O268  1  0.50549757  0.25439893  0.37011118  1
  O  O269  1  0.51001918  0.25585049  0.87351487  1
  O  O270  1  0.50461713  0.75612770  0.36530308  1
  O  O271  1  0.50549596  0.75559164  0.86988006  1
  O  O272  1  0.24215115  0.12476976  0.49354042  1
  O  O273  1  0.24122743  0.12801663  0.99282089  1
  O  O274  1  0.23825860  0.62539019  0.49913339  1
  O  O275  1  0.24950158  0.63229596  0.99253022  1
  O  O276  1  0.75001739  0.13151649  0.49267349  1
  O  O277  1  0.73991563  0.12649343  0.99666125  1
  O  O278  1  0.74238646  0.62209983  0.49271111  1
  O  O279  1  0.74389613  0.63012213  0.99483973  1
  O  O280  1  0.25533607  0.37059748  0.00489500  1
  O  O281  1  0.25620609  0.37644661  0.50503338  1
  O  O282  1  0.25440347  0.87090491  0.00461453  1
  O  O283  1  0.26038767  0.87354101  0.50552456  1
  O  O284  1  0.75590750  0.37552171  0.00597799  1
  O  O285  1  0.75563908  0.36802174  0.50439883  1
  O  O286  1  0.75434501  0.86778896  0.00606222  1
  O  O287  1  0.75568829  0.87623341  0.50572935  1
  O  O288  1  0.13157995  0.49605603  0.24576628  1
  O  O289  1  0.13171239  0.49395705  0.74920698  1
  O  O290  1  0.13153811  0.99433869  0.24601007  1
  O  O291  1  0.12780492  0.99633823  0.74619884  1
  O  O292  1  0.62918404  0.49336733  0.24469947  1
  O  O293  1  0.62680728  0.48669908  0.74975771  1
  O  O294  1  0.63136569  0.99515513  0.24351725  1
  O  O295  1  0.62908434  0.99409508  0.74653230  1
  O  O296  1  0.37082769  0.00456811  0.25429469  1
  O  O297  1  0.37053699  0.01430588  0.75280378  1
  O  O298  1  0.36705975  0.50018375  0.25512480  1
  O  O299  1  0.37015753  0.50568725  0.75604938  1
  O  O300  1  0.87017763  0.00419173  0.25466810  1
  O  O301  1  0.86894206  -0.00166981  0.76099448  1
  O  O302  1  0.86712523  0.50103293  0.25725080  1
  O  O303  1  0.87462422  0.50655231  0.75728118  1
  O  O304  1  0.11737493  0.37498116  0.36751498  1
  O  O305  1  0.11973402  0.37022426  0.87023362  1
  O  O306  1  0.12001283  0.87057071  0.36997225  1
  O  O307  1  0.11860166  0.86873367  0.87393674  1
  O  O308  1  0.62004851  0.36906469  0.36975282  1
  O  O309  1  0.62056393  0.36877255  0.86846527  1
  O  O310  1  0.62053810  0.87620254  0.36867021  1
  O  O311  1  0.61866122  0.86910910  0.87011138  1
  O  O312  1  0.38073981  0.13138380  0.13138603  1
  O  O313  1  0.37894689  0.12824229  0.63152930  1
  O  O314  1  0.38466940  0.62815564  0.12871011  1
  O  O315  1  0.38186984  0.62603863  0.63077481  1
  O  O316  1  0.87792538  0.12602279  0.13159594  1
  O  O317  1  0.87809321  0.13344096  0.62776590  1
  O  O318  1  0.87997478  0.63139683  0.12720271  1
  O  O319  1  0.88075240  0.62553707  0.63112166  1
  O  O320  1  0.26344674  0.25132086  0.12788148  1
  O  O321  1  0.25577166  0.25803887  0.62214919  1
  O  O322  1  0.24939502  0.75668724  0.11889751  1
  O  O323  1  0.25419983  0.76067697  0.62068878  1
  O  O324  1  0.75096373  0.25897740  0.12207392  1
  O  O325  1  0.75601474  0.25421449  0.61964322  1
  O  O326  1  0.75407148  0.75428242  0.12028831  1
  O  O327  1  0.75175125  0.75991216  0.62278352  1
  O  O328  1  0.24873819  0.24163373  0.37498560  1
  O  O329  1  0.24341517  0.24000301  0.87635694  1
  O  O330  1  0.24116815  0.74717949  0.37698748  1
  O  O331  1  0.24507843  0.74551944  0.87920613  1
  O  O332  1  0.74560428  0.24529881  0.37935675  1
  O  O333  1  0.73658112  0.24940757  0.87726639  1
  O  O334  1  0.74846381  0.73767061  0.37644949  1
  O  O335  1  0.74374419  0.74522513  0.88073044  1
  O  O336  1  0.01323285  0.12351248  0.00082564  1
  O  O337  1  0.00963312  0.11944117  0.49780169  1
  O  O338  1  0.00080294  0.61812612  0.00699572  1
  O  O339  1  0.00593556  0.61989038  0.50422825  1
  O  O340  1  0.50527511  0.11874958  0.00569989  1
  O  O341  1  0.49956534  0.12298750  0.51374898  1
  O  O342  1  0.50578888  0.62071185  0.00475516  1
  O  O343  1  0.50849349  0.61973770  0.50396696  1
  O  O344  1  0.49493545  0.37907335  0.49508833  1
  O  O345  1  0.49861179  0.38310839  0.99296590  1
  O  O346  1  0.49285807  0.87539045  0.49449954  1
  O  O347  1  0.49487163  0.87950251  0.99510149  1
  O  O348  1  0.99494225  0.37912233  0.49386822  1
  O  O349  1  0.99472972  0.38101547  0.99482867  1
  O  O350  1  0.99523506  0.88101553  0.49368541  1
  O  O351  1  0.99277398  0.87492245  0.99286821  1
  O  O352  1  0.49586644  0.49308131  0.37990102  1
  O  O353  1  0.49480579  0.49610811  0.88035278  1
  O  O354  1  0.49460210  0.99343022  0.37496584  1
  O  O355  1  0.49823080  0.99366432  0.88192394  1
  O  O356  1  0.99308092  0.49471644  0.37951899  1
  O  O357  1  0.99512241  0.49523740  0.88060789  1
  O  O358  1  0.99473548  0.99413460  0.37919630  1
  O  O359  1  0.98926257  0.99309698  0.87671189  1
  O  O360  1  0.00913594  0.00240953  0.12212427  1
  O  O361  1  0.00149575  0.00216342  0.61542976  1
  O  O362  1  0.00427674  0.50501002  0.12072028  1
  O  O363  1  0.00072231  0.50633934  0.61746464  1
  O  O364  1  0.50586251  0.00453784  0.12026262  1
  O  O365  1  0.50429931  0.00972951  0.62654070  1
  O  O366  1  0.50592781  0.50524759  0.12056499  1
  O  O367  1  0.50181243  0.50606818  0.61799965  1
  O  O368  1  0.24464519  0.38692218  0.24855252  1
  O  O369  1  0.24473250  0.38037958  0.74522865  1
  O  O370  1  0.24487281  0.87971843  0.24527600  1
  O  O371  1  0.25084769  0.87687224  0.73873408  1
  O  O372  1  0.74380215  0.38009267  0.24498001  1
  O  O373  1  0.74038852  0.37470671  0.74488339  1
  O  O374  1  0.74589971  0.88018382  0.24500586  1
  O  O375  1  0.74249185  0.88024544  0.74502408  1
  O  O376  1  0.25645005  0.11798296  0.25518896  1
  O  O377  1  0.25590235  0.12684683  0.75798095  1
  O  O378  1  0.25029187  0.61363244  0.25179772  1
  O  O379  1  0.25581153  0.62041338  0.75440161  1
  O  O380  1  0.75559749  0.11932344  0.25451654  1
  O  O381  1  0.75274285  0.11583281  0.75510293  1
  O  O382  1  0.74810463  0.61833130  0.26053408  1
  O  O383  1  0.75566138  0.62444793  0.75657285  1
  O  O384  1  0.37216310  0.11896868  0.37001116  1
  O  O385  1  0.36671967  0.12803800  0.86752672  1
  O  O386  1  0.37442580  0.61632690  0.37240347  1
  O  O387  1  0.37003760  0.61951138  0.86876298  1
  O  O388  1  0.86969854  0.11939854  0.36824955  1
  O  O389  1  0.87350260  0.11178676  0.87586036  1
  O  O390  1  0.86445155  0.61827583  0.37651757  1
  O  O391  1  0.87002222  0.62038373  0.87003316  1
  O  O392  1  0.12611592  0.38299907  0.13267125  1
  O  O393  1  0.13114286  0.37708403  0.63143736  1
  O  O394  1  0.13061256  0.88022877  0.13070416  1
  O  O395  1  0.13624149  0.87586633  0.62330165  1
  O  O396  1  0.62858657  0.38078916  0.13018274  1
  O  O397  1  0.62952056  0.37173951  0.63439481  1
  O  O398  1  0.63108238  0.88070865  0.12963502  1
  O  O399  1  0.62825575  0.88116569  0.63119592  1
  O  O400  1  0.11634666  0.25602165  0.25051579  1
  O  O401  1  0.11934521  0.25686656  0.75636412  1
  O  O402  1  0.11893974  0.75585582  0.25484484  1
  O  O403  1  0.11780728  0.75172844  0.75655726  1
  O  O404  1  0.62003329  0.25487552  0.25533911  1
  O  O405  1  0.62345772  0.25900741  0.75895482  1
  O  O406  1  0.61667223  0.75691468  0.25150699  1
  O  O407  1  0.61887929  0.75564735  0.75614426  1
  O  O408  1  0.38214024  0.24428379  0.24380534  1
  O  O409  1  0.37497020  0.23924272  0.74383476  1
  O  O410  1  0.38848897  0.74938202  0.24867172  1
  O  O411  1  0.38284073  0.74252815  0.74946296  1
  O  O412  1  0.88410550  0.24412290  0.24842842  1
  O  O413  1  0.88124327  0.25065755  0.74524102  1
  O  O414  1  0.88105064  0.74903909  0.24363928  1
  O  O415  1  0.88200066  0.74248877  0.74944544  1
  O  O416  1  0.38114023  0.49403210  0.49410580  1
  O  O417  1  0.38196485  0.49994854  0.99326515  1
  O  O418  1  0.37794854  0.98847920  0.49289685  1
  O  O419  1  0.38144129  0.99458320  0.99967977  1
  O  O420  1  0.87995926  0.49235095  0.49448708  1
  O  O421  1  0.88113721  0.49494323  0.99412244  1
  O  O422  1  0.88050629  0.99605166  0.49279131  1
  O  O423  1  0.87457167  0.99211141  0.99124576  1
  O  O424  1  0.12491198  0.00994988  0.00555374  1
  O  O425  1  0.11927514  0.00968823  0.49895165  1
  O  O426  1  0.11814677  0.50107364  0.00667520  1
  O  O427  1  0.11766507  0.50987975  0.49978169  1
  O  O428  1  0.61914548  0.00377747  0.00569002  1
  O  O429  1  0.62193648  0.00503722  0.50989046  1
  O  O430  1  0.61916164  0.50595327  0.00491689  1
  O  O431  1  0.61881600  0.50821244  0.50137591  1
  O  O432  1  0.37733998  0.36265665  0.12507788  1
  O  O433  1  0.37003513  0.36985091  0.62014339  1
  O  O434  1  0.36756414  0.87306338  0.11839093  1
  O  O435  1  0.36929664  0.87454726  0.61547774  1
  O  O436  1  0.86776953  0.37502430  0.11778749  1
  O  O437  1  0.86997323  0.36853012  0.61897225  1
  O  O438  1  0.86944789  0.86909967  0.11988857  1
  O  O439  1  0.86711558  0.87628975  0.61799014  1
  O  O440  1  0.13257081  0.12536038  0.38358599  1
  O  O441  1  0.13117869  0.13041362  0.88269237  1
  O  O442  1  0.12318161  0.63026506  0.38508255  1
  O  O443  1  0.13232902  0.63228902  0.87613671  1
  O  O444  1  0.63208033  0.13141289  0.37540755  1
  O  O445  1  0.62295192  0.13447713  0.87951862  1
  O  O446  1  0.63399004  0.62330146  0.38474510  1
  O  O447  1  0.62954095  0.63035266  0.88011360  1
