# generated using pymatgen
data_V3Zn3O8
_symmetry_space_group_name_H-M   'P 1'
_cell_length_a   17.09034552
_cell_length_b   17.09045927
_cell_length_c   17.08976122
_cell_angle_alpha   90.01177695
_cell_angle_beta   89.99499329
_cell_angle_gamma   90.00310613
_symmetry_Int_Tables_number   1
_chemical_formula_structural   V3Zn3O8
_chemical_formula_sum   'V96 Zn96 O256'
_cell_volume   4991.60901175
_cell_formula_units_Z   32
loop_
 _symmetry_equiv_pos_site_id
 _symmetry_equiv_pos_as_xyz
  1  'x, y, z'
loop_
 _atom_site_type_symbol
 _atom_site_label
 _atom_site_symmetry_multiplicity
 _atom_site_fract_x
 _atom_site_fract_y
 _atom_site_fract_z
 _atom_site_occupancy
  V  V0  1  0.37580884  0.75040812  0.62380539  1
  V  V1  1  0.62646100  0.87510799  0.24983349  1
  V  V2  1  0.12346784  0.75060433  0.87455286  1
  V  V3  1  0.25087967  0.25085816  -0.00024305  1
  V  V4  1  0.37485518  0.62631707  0.74830980  1
  V  V5  1  0.62570273  -0.00044963  0.62525257  1
  V  V6  1  0.87614622  0.49857957  0.37769821  1
  V  V7  1  0.37370600  0.37585852  -0.00094861  1
  V  V8  1  0.12271909  0.62410974  0.50276798  1
  V  V9  1  0.50083279  0.87584511  0.37394850  1
  V  V10  1  0.37622385  0.75068104  0.12467818  1
  V  V11  1  0.12444830  0.87458167  0.24956377  1
  V  V12  1  0.50115641  0.00069946  0.49953901  1
  V  V13  1  0.25025710  0.24956074  0.50104217  1
  V  V14  1  0.37562760  0.25049483  0.62524972  1
  V  V15  1  0.12464131  0.12430152  0.50054145  1
  V  V16  1  -0.00148967  0.49858534  0.00085183  1
  V  V17  1  -0.00092110  0.12532298  0.62624949  1
  V  V18  1  0.25017391  0.75114162  0.49806471  1
  V  V19  1  0.50015231  0.37467021  0.37351536  1
  V  V20  1  0.87585134  -0.00154057  0.87587827  1
  V  V21  1  0.75080712  -0.00084269  0.24981234  1
  V  V22  1  0.74916758  0.62238397  0.87375273  1
  V  V23  1  0.50069663  0.00047549  -0.00092529  1
  V  V24  1  0.25024456  0.12547580  0.37506297  1
  V  V25  1  0.75099293  0.75056843  0.49972967  1
  V  V26  1  0.62461514  0.49866279  0.12676718  1
  V  V27  1  0.74991539  0.24839584  0.00210014  1
  V  V28  1  0.25014884  0.87652270  0.62387333  1
  V  V29  1  0.00012902  0.24968783  0.25088037  1
  V  V30  1  0.62505018  0.74988026  0.87394503  1
  V  V31  1  0.87442093  0.37344532  0.00234253  1
  V  V32  1  0.37512856  -0.00026638  0.87374140  1
  V  V33  1  0.37576766  0.12597950  0.24941101  1
  V  V34  1  0.87527607  0.12639339  0.75034673  1
  V  V35  1  0.00040246  0.74921230  0.24922600  1
  V  V36  1  0.62444896  0.25091620  0.87512445  1
  V  V37  1  0.25030912  0.12570849  0.87489767  1
  V  V38  1  0.25034135  0.87635122  0.12410758  1
  V  V39  1  0.37540895  0.00087606  0.37475566  1
  V  V40  1  0.75021424  0.62412290  0.37343776  1
  V  V41  1  0.37577458  0.12510162  0.74936011  1
  V  V42  1  0.75310341  0.25348498  0.50292545  1
  V  V43  1  0.49916020  0.75075331  0.24792683  1
  V  V44  1  0.49924100  0.12619672  0.12544176  1
  V  V45  1  0.87571071  -0.00058577  0.37577289  1
  V  V46  1  0.24986821  0.00052395  0.24967922  1
  V  V47  1  0.00001887  0.37538172  0.37746631  1
  V  V48  1  0.12508468  0.00011915  0.62486768  1
  V  V49  1  0.62510318  0.74944600  0.37398650  1
  V  V50  1  0.00015170  -0.00022082  0.00071505  1
  V  V51  1  0.12419901  0.87482130  0.75044014  1
  V  V52  1  0.50185510  0.25045314  0.75030246  1
  V  V53  1  -0.00077500  0.62443165  0.12556754  1
  V  V54  1  0.37554852  0.87551896  0.49929210  1
  V  V55  1  0.75028062  0.12536579  0.37543952  1
  V  V56  1  0.25032189  0.50056984  0.25005336  1
  V  V57  1  0.62527409  0.87425391  0.74964508  1
  V  V58  1  0.12542461  0.75051372  0.37354190  1
  V  V59  1  0.62629185  0.12537563  0.50031579  1
  V  V60  1  0.37457505  0.50039249  0.37433724  1
  V  V61  1  0.12474251  0.00101921  0.12470511  1
  V  V62  1  0.12399752  0.37570265  0.75059129  1
  V  V63  1  0.87538200  0.12499479  0.25083753  1
  V  V64  1  0.87505074  0.87454677  0.50037611  1
  V  V65  1  0.12445256  0.62476421  -0.00027582  1
  V  V66  1  0.87528109  0.62384585  0.25023283  1
  V  V67  1  0.37518950  0.87534618  -0.00174321  1
  V  V68  1  0.25029399  0.37483182  0.12436685  1
  V  V69  1  0.24952021  0.62553219  0.87512605  1
  V  V70  1  0.12545972  0.37509380  0.25071500  1
  V  V71  1  0.75094199  -0.00082595  0.75074416  1
  V  V72  1  0.24956710  0.37650906  0.62588392  1
  V  V73  1  0.00075887  0.12425740  0.12529379  1
  V  V74  1  0.24972573  0.75079607  -0.00002247  1
  V  V75  1  0.62428003  0.25073498  0.37455360  1
  V  V76  1  0.12332252  0.25013654  0.87502622  1
  V  V77  1  -0.00039914  -0.00120467  0.49963233  1
  V  V78  1  0.75063258  0.74919687  0.00022193  1
  V  V79  1  0.62470122  0.12457357  0.00063832  1
  V  V80  1  0.50086288  0.12555956  0.62467597  1
  V  V81  1  0.62598220  0.49836048  0.62561579  1
  V  V82  1  0.12473204  0.49972409  0.12505609  1
  V  V83  1  0.12529424  0.25009598  0.37560084  1
  V  V84  1  0.87311807  0.49904272  0.87415641  1
  V  V85  1  0.75134608  0.87389230  0.12449445  1
  V  V86  1  0.49930495  0.50145697  0.49900471  1
  V  V87  1  0.62412876  0.62519107  0.49917851  1
  V  V88  1  0.00040790  0.87457524  0.87512785  1
  V  V89  1  0.25085080  0.62492410  0.37335259  1
  V  V90  1  0.25018846  0.00059064  0.74935466  1
  V  V91  1  0.50075613  0.87413287  0.87357995  1
  V  V92  1  0.49968161  0.50104501  0.00015759  1
  V  V93  1  0.75100517  0.87349771  0.62414201  1
  V  V94  1  0.37469154  0.50095294  0.87467116  1
  V  V95  1  0.87443025  0.25013538  0.12581516  1
  Zn  Zn96  1  0.75078989  0.12319594  0.87688681  1
  Zn  Zn97  1  -0.00260363  0.25124956  0.74992988  1
  Zn  Zn98  1  0.62272393  0.62464394  0.00088742  1
  Zn  Zn99  1  0.74821319  0.49732750  0.24989940  1
  Zn  Zn100  1  0.49873419  0.37599100  0.87247185  1
  Zn  Zn101  1  0.75356579  0.37551769  0.62983542  1
  Zn  Zn102  1  0.87818663  0.62594127  0.74755071  1
  Zn  Zn103  1  0.62660437  0.37312851  0.24938214  1
  Zn  Zn104  1  0.50139131  0.75040621  0.74731540  1
  Zn  Zn105  1  0.49934239  0.62631555  0.12599161  1
  Zn  Zn106  1  -0.00035594  0.87429467  0.37451024  1
  Zn  Zn107  1  0.12321230  0.50321630  0.62774366  1
  Zn  Zn108  1  0.37454694  0.25137232  0.12586893  1
  Zn  Zn109  1  0.87670074  0.87389855  0.00021431  1
  Zn  Zn110  1  0.50001742  0.62600989  0.62422324  1
  Zn  Zn111  1  0.62612133  0.00038228  0.12426216  1
  Zn  Zn112  1  0.37403353  0.37606937  0.50058521  1
  Zn  Zn113  1  0.37539708  0.62577637  0.24766566  1
  Zn  Zn114  1  0.87738561  0.74653959  0.62739869  1
  Zn  Zn115  1  0.87858912  0.37589363  0.50572911  1
  Zn  Zn116  1  -0.00245945  0.37385133  0.87469941  1
  Zn  Zn117  1  0.00192395  0.49821682  0.50475067  1
  Zn  Zn118  1  0.74902369  0.49717649  0.74869991  1
  Zn  Zn119  1  0.87483082  0.74730777  0.12507614  1
  Zn  Zn120  1  -0.00219367  0.74755729  0.74775947  1
  Zn  Zn121  1  0.87619605  0.25513763  0.62778441  1
  Zn  Zn122  1  0.49999102  0.25058915  0.24947297  1
  Zn  Zn123  1  0.12576536  0.12568053  0.00028298  1
  Zn  Zn124  1  -0.00381635  0.62375508  0.62875715  1
  Zn  Zn125  1  0.62507341  0.37655466  0.74942286  1
  Zn  Zn126  1  0.25000808  0.50077639  0.74987635  1
  Zn  Zn127  1  0.74816510  0.37372797  0.12902241  1
  Zn  Zn128  1  0.18764273  0.18813572  0.18713172  1
  Zn  Zn129  1  0.18710679  0.18887764  0.68807676  1
  Zn  Zn130  1  0.18794722  0.68748649  0.18655591  1
  Zn  Zn131  1  0.18822008  0.69063319  0.68740131  1
  Zn  Zn132  1  0.68597709  0.18800953  0.18858389  1
  Zn  Zn133  1  0.68920906  0.18702835  0.68840645  1
  Zn  Zn134  1  0.68584657  0.68374998  0.18682571  1
  Zn  Zn135  1  0.68900935  0.68580412  0.68677170  1
  Zn  Zn136  1  0.31471892  0.31269512  0.31151636  1
  Zn  Zn137  1  0.31268859  0.31296995  0.81249724  1
  Zn  Zn138  1  0.31291980  0.81284256  0.31122107  1
  Zn  Zn139  1  0.31130503  0.81168628  0.81135173  1
  Zn  Zn140  1  0.81101025  0.31506520  0.31313305  1
  Zn  Zn141  1  0.80725743  0.31417141  0.81372058  1
  Zn  Zn142  1  0.81454982  0.81088306  0.31277607  1
  Zn  Zn143  1  0.81439784  0.81138279  0.81169114  1
  Zn  Zn144  1  0.18783114  0.43849555  0.43851843  1
  Zn  Zn145  1  0.18831189  0.43842371  0.93667676  1
  Zn  Zn146  1  0.18655111  0.93741412  0.43617982  1
  Zn  Zn147  1  0.18631701  0.93867630  0.93751282  1
  Zn  Zn148  1  0.68752880  0.43752590  0.43806268  1
  Zn  Zn149  1  0.68751390  0.43397557  0.94242300  1
  Zn  Zn150  1  0.68862046  0.93712175  0.43714134  1
  Zn  Zn151  1  0.68788205  0.93715800  0.93711898  1
  Zn  Zn152  1  0.31313688  0.06395589  0.06119451  1
  Zn  Zn153  1  0.31346468  0.06306683  0.56213851  1
  Zn  Zn154  1  0.31327395  0.56386310  0.06318589  1
  Zn  Zn155  1  0.31121037  0.56237441  0.56093149  1
  Zn  Zn156  1  0.81356031  0.06233881  0.06272631  1
  Zn  Zn157  1  0.81329831  0.06274552  0.56389125  1
  Zn  Zn158  1  0.81045230  0.56147656  0.06262352  1
  Zn  Zn159  1  0.81153468  0.56416032  0.56253865  1
  Zn  Zn160  1  0.43697505  0.43814863  0.18715108  1
  Zn  Zn161  1  0.43996513  0.43804145  0.68788547  1
  Zn  Zn162  1  0.43779081  0.93875075  0.18631752  1
  Zn  Zn163  1  0.43872864  0.93712998  0.68707677  1
  Zn  Zn164  1  0.93677454  0.43669009  0.18967560  1
  Zn  Zn165  1  0.93973972  0.43986222  0.68553625  1
  Zn  Zn166  1  0.93696012  0.93604158  0.18727542  1
  Zn  Zn167  1  0.93746977  0.93636323  0.68767584  1
  Zn  Zn168  1  0.06225306  0.06179648  0.31293927  1
  Zn  Zn169  1  0.06149346  0.06199824  0.81311057  1
  Zn  Zn170  1  0.06219604  0.56294770  0.31480357  1
  Zn  Zn171  1  0.05996234  0.56138601  0.81241090  1
  Zn  Zn172  1  0.56445757  0.06297237  0.31121077  1
  Zn  Zn173  1  0.56335173  0.06323933  0.81276188  1
  Zn  Zn174  1  0.56058192  0.56352173  0.30999377  1
  Zn  Zn175  1  0.56110843  0.56427405  0.81183043  1
  Zn  Zn176  1  0.43735931  0.18915345  0.43848804  1
  Zn  Zn177  1  0.43754014  0.18851627  0.93783548  1
  Zn  Zn178  1  0.43759194  0.68699171  0.43517999  1
  Zn  Zn179  1  0.43775262  0.68756279  0.93654023  1
  Zn  Zn180  1  0.93726871  0.18734721  0.43880195  1
  Zn  Zn181  1  0.93792926  0.18560396  0.93831566  1
  Zn  Zn182  1  0.93826335  0.68836950  0.43705006  1
  Zn  Zn183  1  0.93688437  0.68682933  0.93629968  1
  Zn  Zn184  1  0.06158067  0.31273176  0.06217760  1
  Zn  Zn185  1  0.06083026  0.31099081  0.56444747  1
  Zn  Zn186  1  0.06182685  0.81237230  0.06265822  1
  Zn  Zn187  1  0.05990292  0.81027322  0.56343208  1
  Zn  Zn188  1  0.56150783  0.31409959  0.06089335  1
  Zn  Zn189  1  0.56321596  0.31455666  0.56008784  1
  Zn  Zn190  1  0.56421237  0.81294667  0.06162769  1
  Zn  Zn191  1  0.56281561  0.81154465  0.56223820  1
  O  O192  1  0.11865681  0.11866953  0.12505884  1
  O  O193  1  0.12082209  0.11931439  0.62032808  1
  O  O194  1  0.11993523  0.61889359  0.11903467  1
  O  O195  1  0.13131465  0.62578047  0.61203697  1
  O  O196  1  0.61531584  0.12265602  0.12009662  1
  O  O197  1  0.61980572  0.11871225  0.62011434  1
  O  O198  1  0.62054040  0.61418867  0.12080156  1
  O  O199  1  0.62323263  0.61713918  0.61754193  1
  O  O200  1  0.38274767  0.38081359  0.37728805  1
  O  O201  1  0.37460526  0.38295215  0.88082964  1
  O  O202  1  0.38050973  0.88157591  0.37995090  1
  O  O203  1  0.37944844  0.88035161  0.87879265  1
  O  O204  1  0.88201378  0.38367140  0.37587342  1
  O  O205  1  0.87392323  0.38319060  0.88334735  1
  O  O206  1  0.87569328  0.88248486  0.38127333  1
  O  O207  1  0.88186619  0.88187658  0.87715796  1
  O  O208  1  0.25539897  0.00604864  0.36978345  1
  O  O209  1  0.25545935  0.00511247  0.86886483  1
  O  O210  1  0.25490598  0.50419972  0.36898310  1
  O  O211  1  0.25691320  0.50865022  0.87493545  1
  O  O212  1  0.75564189  0.00572813  0.36993512  1
  O  O213  1  0.75680459  0.00040290  0.86851928  1
  O  O214  1  0.75887149  0.50606986  0.37483874  1
  O  O215  1  0.75618737  0.50766712  0.88094750  1
  O  O216  1  0.24365523  0.49473351  0.12934044  1
  O  O217  1  0.24743117  0.48701205  0.62588990  1
  O  O218  1  0.24566483  0.99577421  0.12991328  1
  O  O219  1  0.24538940  0.99600196  0.62953887  1
  O  O220  1  0.73686946  0.49796415  0.12415593  1
  O  O221  1  0.73700891  0.49981654  0.62431226  1
  O  O222  1  0.74989201  0.99002437  0.13058317  1
  O  O223  1  0.74384931  0.99421190  0.62999630  1
  O  O224  1  0.00661149  0.36846089  0.25631742  1
  O  O225  1  0.01234120  0.37196237  0.75330144  1
  O  O226  1  0.00701096  0.86829106  0.25003523  1
  O  O227  1  0.00853117  0.87668263  0.75770525  1
  O  O228  1  0.49967028  0.37346633  0.26310889  1
  O  O229  1  0.50394010  0.36614643  0.75262133  1
  O  O230  1  0.50613188  0.87221984  0.25498981  1
  O  O231  1  0.50699140  0.87432147  0.75580431  1
  O  O232  1  0.49461476  0.12295066  0.24071280  1
  O  O233  1  0.49463373  0.12901261  0.74344538  1
  O  O234  1  0.49609203  0.63599437  0.24810421  1
  O  O235  1  0.48588537  0.62895846  0.74841363  1
  O  O236  1  0.99502228  0.13027120  0.24577891  1
  O  O237  1  0.99040311  0.12349565  0.74492617  1
  O  O238  1  0.99630491  0.62968177  0.24448592  1
  O  O239  1  0.99792686  0.62875798  0.74952795  1
  O  O240  1  0.36811294  0.25735435  0.00018316  1
  O  O241  1  0.36773279  0.25076620  0.50768595  1
  O  O242  1  0.36918930  0.75690681  0.00345882  1
  O  O243  1  0.36969302  0.75670039  0.50285597  1
  O  O244  1  0.87067513  0.25279759  0.00604350  1
  O  O245  1  0.86403423  0.24913517  0.50138136  1
  O  O246  1  0.86175757  0.75112461  0.00156890  1
  O  O247  1  0.86707327  0.75735310  0.49780266  1
  O  O248  1  0.13061720  0.24284311  0.49493596  1
  O  O249  1  0.13104668  0.25052878  0.98991973  1
  O  O250  1  0.13215517  0.74500483  0.49323892  1
  O  O251  1  0.13084804  0.74450723  0.99535256  1
  O  O252  1  0.63284613  0.24376387  0.49508067  1
  O  O253  1  0.62846188  0.24416512  0.99355778  1
  O  O254  1  0.63009214  0.74602131  0.49258608  1
  O  O255  1  0.63552115  0.74963570  0.99360730  1
  O  O256  1  0.49817754  0.23677917  0.12441382  1
  O  O257  1  0.49624248  0.24424170  0.62867241  1
  O  O258  1  0.49420099  0.75209029  0.12955286  1
  O  O259  1  0.49148669  0.74781722  0.62588760  1
  O  O260  1  0.99543033  0.24430232  0.13165842  1
  O  O261  1  0.99744632  0.23987760  0.62912219  1
  O  O262  1  0.99868729  0.74229935  0.13047109  1
  O  O263  1  0.99709202  0.74510162  0.62816557  1
  O  O264  1  0.00618312  0.25360419  0.36999255  1
  O  O265  1  0.01187319  0.25110262  0.87415998  1
  O  O266  1  0.00801632  0.75156675  0.36675138  1
  O  O267  1  0.00773475  0.75745051  0.87757366  1
  O  O268  1  0.50527698  0.25885901  0.37708298  1
  O  O269  1  0.50842264  0.24948656  0.86954061  1
  O  O270  1  0.50529913  0.75769832  0.36937152  1
  O  O271  1  0.50673614  0.75714139  0.87426377  1
  O  O272  1  0.24447193  0.12917116  0.49482134  1
  O  O273  1  0.24875306  0.13147758  0.99251404  1
  O  O274  1  0.24395735  0.63207575  0.49281207  1
  O  O275  1  0.24417012  0.63130510  0.99528964  1
  O  O276  1  0.74527918  0.13113709  0.49505820  1
  O  O277  1  0.74311537  0.12997183  1.00006265  1
  O  O278  1  0.74306255  0.63163899  0.49183871  1
  O  O279  1  0.74777463  0.63365474  0.99193194  1
  O  O280  1  0.25424317  0.37105134  0.00548172  1
  O  O281  1  0.24878571  0.36776689  0.51006491  1
  O  O282  1  0.25540032  0.87092331  0.00433992  1
  O  O283  1  0.25608120  0.87175990  0.50403048  1
  O  O284  1  0.75709398  0.36547110  0.00509644  1
  O  O285  1  0.75151863  0.36204506  0.49938108  1
  O  O286  1  0.74990620  0.86683499  0.00824855  1
  O  O287  1  0.75471501  0.87054574  0.50464074  1
  O  O288  1  0.12995509  0.49433088  0.24505421  1
  O  O289  1  0.12970873  0.48716715  0.75203786  1
  O  O290  1  0.13080408  0.99520999  0.24487785  1
  O  O291  1  0.13156255  0.99556664  0.74449929  1
  O  O292  1  0.62332324  0.49844805  0.23849565  1
  O  O293  1  0.62299589  0.50090858  0.73820739  1
  O  O294  1  0.63345292  0.99291695  0.24922778  1
  O  O295  1  0.63023000  0.99511411  0.74464832  1
  O  O296  1  0.36901829  0.00491358  0.25590489  1
  O  O297  1  0.36995100  0.00526177  0.75395626  1
  O  O298  1  0.36735695  0.50179622  0.25575163  1
  O  O299  1  0.37370982  0.51007871  0.75487395  1
  O  O300  1  0.87023661  0.00537799  0.25529811  1
  O  O301  1  0.87047944  0.00705962  0.75545606  1
  O  O302  1  0.87576913  0.50569955  0.26156649  1
  O  O303  1  0.87276199  0.49908512  0.76635986  1
  O  O304  1  0.12122917  0.36917167  0.36980300  1
  O  O305  1  0.12730759  0.36601752  0.86729301  1
  O  O306  1  0.12476970  0.86888641  0.36710045  1
  O  O307  1  0.12095758  0.87071080  0.86990424  1
  O  O308  1  0.61439451  0.37020993  0.37581328  1
  O  O309  1  0.62268006  0.36024643  0.87722174  1
  O  O310  1  0.62032387  0.86974946  0.36982043  1
  O  O311  1  0.62041237  0.87008902  0.86876579  1
  O  O312  1  0.38370971  0.12499966  0.13006863  1
  O  O313  1  0.38099150  0.12983600  0.63003424  1
  O  O314  1  0.37643535  0.63535712  0.12670875  1
  O  O315  1  0.37317966  0.63108782  0.63266819  1
  O  O316  1  0.88137673  0.12994885  0.13211105  1
  O  O317  1  0.88067291  0.12332771  0.63628608  1
  O  O318  1  0.88161317  0.62353620  0.13140652  1
  O  O319  1  0.87538160  0.62711860  0.62862046  1
  O  O320  1  0.24983516  0.25709072  0.11819600  1
  O  O321  1  0.25545546  0.25664910  0.62115027  1
  O  O322  1  0.25437297  0.75743261  0.11889397  1
  O  O323  1  0.25611363  0.75852096  0.61764851  1
  O  O324  1  0.75729462  0.24861730  0.11985709  1
  O  O325  1  0.75056222  0.24918170  0.61356083  1
  O  O326  1  0.74879283  0.75674234  0.11716452  1
  O  O327  1  0.74879209  0.75732325  0.61641511  1
  O  O328  1  0.24480148  0.24486691  0.38023692  1
  O  O329  1  0.24249521  0.24509744  0.87921581  1
  O  O330  1  0.24562354  0.74594300  0.37889291  1
  O  O331  1  0.24423375  0.74572398  0.88150672  1
  O  O332  1  0.74516743  0.24374070  0.38299830  1
  O  O333  1  0.74016375  0.24568699  0.88306280  1
  O  O334  1  0.74365681  0.74482061  0.37911947  1
  O  O335  1  0.74534178  0.74303737  0.88285198  1
  O  O336  1  0.00279936  0.11838817  0.00798228  1
  O  O337  1  0.00585017  0.11881269  0.50533214  1
  O  O338  1  0.00523001  0.61895139  0.00565336  1
  O  O339  1  0.01484898  0.62563847  0.49741713  1
  O  O340  1  0.50328727  0.11971708  0.00732346  1
  O  O341  1  0.50586018  0.11985511  0.50518325  1
  O  O342  1  0.49964571  0.61265696  0.00079859  1
  O  O343  1  0.50664139  0.61901526  0.49867060  1
  O  O344  1  0.49740640  0.38139315  0.48903720  1
  O  O345  1  0.49213597  0.38560751  0.99777734  1
  O  O346  1  0.49552612  0.88146971  0.49366654  1
  O  O347  1  0.49489974  0.88069477  0.99360926  1
  O  O348  1  1.00001427  0.37596754  0.49161565  1
  O  O349  1  0.99327412  0.38108506  0.99860736  1
  O  O350  1  0.99410118  0.88242168  0.49777780  1
  O  O351  1  0.99897257  0.88170393  0.99465783  1
  O  O352  1  0.49532221  0.49286936  0.37896271  1
  O  O353  1  0.49425431  0.49940677  0.88416649  1
  O  O354  1  0.49546991  0.99567786  0.38016651  1
  O  O355  1  0.49409318  0.99474217  0.87897741  1
  O  O356  1  0.99210883  0.49390506  0.37618611  1
  O  O357  1  0.98904444  0.49825487  0.88347168  1
  O  O358  1  0.99377141  0.99923792  0.38155323  1
  O  O359  1  0.99632514  0.99429123  0.88140981  1
  O  O360  1  0.00495826  0.00478703  0.12134389  1
  O  O361  1  0.00660004  0.00505087  0.61917616  1
  O  O362  1  0.00586830  0.50456826  0.12093941  1
  O  O363  1  0.00724966  0.50510179  0.62097456  1
  O  O364  1  0.50089785  0.00958067  0.11819757  1
  O  O365  1  0.50562731  0.00556604  0.61901955  1
  O  O366  1  0.50526148  0.50088832  0.11583116  1
  O  O367  1  0.50748722  0.50241909  0.61702552  1
  O  O368  1  0.24417003  0.38006007  0.24486171  1
  O  O369  1  0.24278417  0.37418035  0.74130233  1
  O  O370  1  0.24500990  0.88157417  0.24371956  1
  O  O371  1  0.24524994  0.88176675  0.74396870  1
  O  O372  1  0.74530269  0.37927559  0.24697005  1
  O  O373  1  0.74201360  0.37930054  0.74784382  1
  O  O374  1  0.74637357  0.87811674  0.24269280  1
  O  O375  1  0.74392857  0.88042748  0.74440359  1
  O  O376  1  0.25471324  0.11972189  0.25573340  1
  O  O377  1  0.25645123  0.11989354  0.75418320  1
  O  O378  1  0.24976104  0.61824134  0.25580321  1
  O  O379  1  0.25921996  0.62492153  0.75579022  1
  O  O380  1  0.75598613  0.11939559  0.25553485  1
  O  O381  1  0.75958402  0.11739217  0.75115830  1
  O  O382  1  0.75680119  0.62253848  0.25635899  1
  O  O383  1  0.75042068  0.62132193  0.76541471  1
  O  O384  1  0.36998637  0.11961377  0.37088507  1
  O  O385  1  0.37059837  0.11919432  0.86863028  1
  O  O386  1  0.36762643  0.61890348  0.37254379  1
  O  O387  1  0.36910484  0.62218435  0.86705964  1
  O  O388  1  0.86994537  0.11929373  0.36958947  1
  O  O389  1  0.87530318  0.11770152  0.86581073  1
  O  O390  1  0.87084840  0.61724608  0.37020794  1
  O  O391  1  0.86483077  0.61411259  0.87930923  1
  O  O392  1  0.12963462  0.38053419  0.13100348  1
  O  O393  1  0.13455432  0.37073940  0.63477017  1
  O  O394  1  0.13140779  0.88104326  0.13000567  1
  O  O395  1  0.13160458  0.88155255  0.62916552  1
  O  O396  1  0.62358570  0.38489498  0.12658460  1
  O  O397  1  0.62598863  0.38761318  0.62303711  1
  O  O398  1  0.63641660  0.87650359  0.13047146  1
  O  O399  1  0.63014670  0.88101239  0.62921818  1
  O  O400  1  0.12023429  0.25516003  0.25622620  1
  O  O401  1  0.12582557  0.25756987  0.75983692  1
  O  O402  1  0.12083721  0.75519342  0.25364363  1
  O  O403  1  0.12709097  0.75876151  0.75824849  1
  O  O404  1  0.62057730  0.25059544  0.25961606  1
  O  O405  1  0.61988077  0.24639682  0.75996210  1
  O  O406  1  0.62008274  0.75600947  0.25503436  1
  O  O407  1  0.62471565  0.75638487  0.75594487  1
  O  O408  1  0.37821676  0.24127552  0.24700224  1
  O  O409  1  0.38083978  0.24364915  0.74502755  1
  O  O410  1  0.38137972  0.75243251  0.24232087  1
  O  O411  1  0.37452401  0.74222412  0.74328685  1
  O  O412  1  0.88102166  0.24390474  0.24671079  1
  O  O413  1  0.87430748  0.23726853  0.75228286  1
  O  O414  1  0.88207619  0.74166785  0.24914450  1
  O  O415  1  0.87792560  0.74609220  0.74797649  1
  O  O416  1  0.38045031  0.49850453  0.49272408  1
  O  O417  1  0.38122231  0.49617347  0.99517881  1
  O  O418  1  0.38109507  0.99565080  0.49455199  1
  O  O419  1  0.37994618  0.99468680  0.99266487  1
  O  O420  1  0.87672466  0.50027139  0.48605874  1
  O  O421  1  0.87889481  0.49383055  0.99443104  1
  O  O422  1  0.87982233  0.99555337  0.49479606  1
  O  O423  1  0.88231428  0.99877831  0.99421474  1
  O  O424  1  0.11927756  0.00226470  0.00723454  1
  O  O425  1  0.12075689  0.00526345  0.50507306  1
  O  O426  1  0.11942029  0.50486406  0.00517932  1
  O  O427  1  0.12644801  0.51279251  0.50006838  1
  O  O428  1  0.61795256  0.00584976  0.00024548  1
  O  O429  1  0.62049146  0.00522633  0.50494556  1
  O  O430  1  0.61429012  0.49876538  0.00696098  1
  O  O431  1  0.61946502  0.50617517  0.50554999  1
  O  O432  1  0.36763771  0.37420928  0.11798462  1
  O  O433  1  0.36536266  0.36920694  0.62538905  1
  O  O434  1  0.36934471  0.87201954  0.11758795  1
  O  O435  1  0.36980198  0.87193697  0.61845253  1
  O  O436  1  0.87537938  0.36712922  0.12016312  1
  O  O437  1  0.87168109  0.37283519  0.62273347  1
  O  O438  1  0.86216634  0.87110941  0.12414315  1
  O  O439  1  0.86708108  0.87615888  0.61735955  1
  O  O440  1  0.13076246  0.13000983  0.38035116  1
  O  O441  1  0.13136116  0.13449407  0.87414598  1
  O  O442  1  0.13188177  0.63110297  0.38155948  1
  O  O443  1  0.13033528  0.62990801  0.88164944  1
  O  O444  1  0.63060836  0.12940890  0.38125223  1
  O  O445  1  0.62487303  0.13444914  0.88173176  1
  O  O446  1  0.62983468  0.63039332  0.37890869  1
  O  O447  1  0.63339493  0.63011007  0.87768034  1
