# generated using pymatgen
data_V3Zn3O8
_symmetry_space_group_name_H-M   'P 1'
_cell_length_a   17.08911608
_cell_length_b   17.08949656
_cell_length_c   17.08879722
_cell_angle_alpha   89.99806768
_cell_angle_beta   90.00300170
_cell_angle_gamma   90.00265792
_symmetry_Int_Tables_number   1
_chemical_formula_structural   V3Zn3O8
_chemical_formula_sum   'V96 Zn96 O256'
_cell_volume   4990.68735342
_cell_formula_units_Z   32
loop_
 _symmetry_equiv_pos_site_id
 _symmetry_equiv_pos_as_xyz
  1  'x, y, z'
loop_
 _atom_site_type_symbol
 _atom_site_label
 _atom_site_symmetry_multiplicity
 _atom_site_fract_x
 _atom_site_fract_y
 _atom_site_fract_z
 _atom_site_occupancy
  V  V0  1  0.12474782  0.49991205  0.62405982  1
  V  V1  1  0.00154895  0.62364273  0.12273592  1
  V  V2  1  0.62562446  0.12550292  0.50065532  1
  V  V3  1  0.37485505  0.00004581  0.87434550  1
  V  V4  1  0.74985059  0.49951173  0.25064779  1
  V  V5  1  -0.00125751  0.62545835  0.62501248  1
  V  V6  1  0.12542526  0.62584619  0.49861323  1
  V  V7  1  0.37504111  0.74935097  0.62543962  1
  V  V8  1  0.37497635  0.87453533  0.00050040  1
  V  V9  1  -0.00006031  0.50070215  0.49968253  1
  V  V10  1  0.37554328  0.37545202  0.49872354  1
  V  V11  1  0.75049605  0.00033637  0.25060619  1
  V  V12  1  0.25007299  0.87562350  0.62435603  1
  V  V13  1  0.87359577  0.75004803  0.12589953  1
  V  V14  1  0.75041780  0.87461381  0.62469630  1
  V  V15  1  0.74769307  0.74825559  0.00013598  1
  V  V16  1  0.87540109  0.24981583  0.62507578  1
  V  V17  1  0.62438426  0.87420035  0.75117357  1
  V  V18  1  0.37519620  0.25020753  0.62575438  1
  V  V19  1  0.50057396  0.75019544  0.25150494  1
  V  V20  1  0.74910181  0.62553759  0.37625231  1
  V  V21  1  0.87486707  0.49958617  0.37529532  1
  V  V22  1  0.00076106  0.12445075  0.62500480  1
  V  V23  1  0.25063268  0.12442786  0.37434776  1
  V  V24  1  0.50071247  0.24896645  0.24977360  1
  V  V25  1  0.49972763  -0.00015577  0.50013917  1
  V  V26  1  0.00078851  0.12365507  0.12468896  1
  V  V27  1  0.37476706  0.62510262  0.74972964  1
  V  V28  1  0.00036371  0.25060844  0.74968600  1
  V  V29  1  0.87479743  0.37523029  0.49979709  1
  V  V30  1  0.24973117  0.37451159  0.62405732  1
  V  V31  1  0.74964259  0.37557423  0.62602973  1
  V  V32  1  0.50042277  0.25104465  0.75026431  1
  V  V33  1  0.12465149  0.74951310  0.87550458  1
  V  V34  1  0.37565575  0.87490443  0.49960290  1
  V  V35  1  0.49896482  0.75007361  0.75061766  1
  V  V36  1  0.24921781  0.37406928  0.12471357  1
  V  V37  1  0.37602660  0.24901703  0.12537645  1
  V  V38  1  0.37441254  0.62411566  0.24987317  1
  V  V39  1  0.62441212  0.87438598  0.25091877  1
  V  V40  1  0.87712450  0.37604360  -0.00001765  1
  V  V41  1  0.62547790  0.37523608  0.75097449  1
  V  V42  1  0.87480029  0.62504753  0.25098795  1
  V  V43  1  0.12567276  0.24938172  0.37591651  1
  V  V44  1  0.62530829  0.37379036  0.25042312  1
  V  V45  1  0.24915689  0.87609010  0.12557099  1
  V  V46  1  0.50028998  0.50065203  0.49963199  1
  V  V47  1  0.87460929  0.12474384  0.75095882  1
  V  V48  1  0.25052214  0.12466311  0.87474386  1
  V  V49  1  0.75034471  0.00021511  0.75104394  1
  V  V50  1  0.37485735  0.37547832  -0.00111066  1
  V  V51  1  0.12530438  0.37592226  0.24939496  1
  V  V52  1  0.00038845  0.37565906  0.87420162  1
  V  V53  1  0.62392303  0.50099070  0.12280747  1
  V  V54  1  0.75003518  0.25024960  0.50003440  1
  V  V55  1  0.24933370  0.74875625  0.49913343  1
  V  V56  1  0.24990109  0.50058999  0.24919864  1
  V  V57  1  0.49974000  0.12612853  0.62579214  1
  V  V58  1  0.75033549  0.12470263  0.87495414  1
  V  V59  1  0.24930311  0.74986877  -0.00092772  1
  V  V60  1  0.00004009  0.87528270  0.37482133  1
  V  V61  1  0.62483546  0.62629003  0.50029169  1
  V  V62  1  0.37504585  0.00050255  0.37498956  1
  V  V63  1  0.62497783  0.25021800  0.87537834  1
  V  V64  1  0.87609630  0.87705948  -0.00183923  1
  V  V65  1  0.62479406  0.00033115  0.62558269  1
  V  V66  1  0.50002147  0.12499757  0.12518851  1
  V  V67  1  0.12446070  0.87448118  0.74964169  1
  V  V68  1  0.74930037  0.49999314  0.75054769  1
  V  V69  1  0.75197181  0.37414404  0.12497824  1
  V  V70  1  0.12562910  0.87634274  0.24929196  1
  V  V71  1  0.37455330  0.75034906  0.12506287  1
  V  V72  1  0.37545538  0.49924987  0.87539837  1
  V  V73  1  0.87521769  0.00063352  0.37435489  1
  V  V74  1  0.00077290  0.37430792  0.37432578  1
  V  V75  1  0.12521645  0.12381028  -0.00062305  1
  V  V76  1  0.75142032  0.12473720  0.37465773  1
  V  V77  1  0.87615637  0.49995464  0.87566266  1
  V  V78  1  0.25094583  0.24929633  -0.00064670  1
  V  V79  1  0.87446106  0.62581558  0.74980133  1
  V  V80  1  0.74979461  0.87507418  0.12553454  1
  V  V81  1  0.62584329  0.12539861  -0.00054036  1
  V  V82  1  0.50040657  -0.00078967  0.00024565  1
  V  V83  1  -0.00067925  0.75105820  0.25084824  1
  V  V84  1  0.00075032  0.00020165  0.50031112  1
  V  V85  1  0.12500019  0.00048241  0.62434549  1
  V  V86  1  0.87603810  0.24952260  0.12517208  1
  V  V87  1  0.12411051  0.37513297  0.74929196  1
  V  V88  1  0.62515849  0.25035138  0.37459306  1
  V  V89  1  0.25054248  0.00053377  0.74958372  1
  V  V90  1  0.25049025  0.50061600  0.74915275  1
  V  V91  1  0.50039764  0.87409419  0.87518409  1
  V  V92  1  0.74885571  0.62529571  0.87639402  1
  V  V93  1  0.62511762  0.00028682  0.12528761  1
  V  V94  1  0.87379005  0.87445803  0.50101802  1
  V  V95  1  -0.00074887  0.75023969  0.74934403  1
  Zn  Zn96  1  0.37538069  0.12331176  0.24932903  1
  Zn  Zn97  1  0.62140220  0.62537950  -0.00065938  1
  Zn  Zn98  1  0.50160282  0.37512519  0.87668314  1
  Zn  Zn99  1  0.62322927  0.74745434  0.87688585  1
  Zn  Zn100  1  0.50075113  0.62387957  0.12310447  1
  Zn  Zn101  1  0.00338125  0.50069892  -0.00110377  1
  Zn  Zn102  1  0.50086452  0.62524032  0.62570771  1
  Zn  Zn103  1  0.49940123  0.50088443  0.00053169  1
  Zn  Zn104  1  0.62416515  0.50084722  0.62701475  1
  Zn  Zn105  1  0.49968031  0.37424260  0.37366892  1
  Zn  Zn106  1  0.12616719  0.62344467  -0.00031329  1
  Zn  Zn107  1  0.24806124  0.62554249  0.37465909  1
  Zn  Zn108  1  0.37537318  0.49892698  0.37366937  1
  Zn  Zn109  1  0.87703436  0.12484528  0.24984078  1
  Zn  Zn110  1  0.24929466  0.62470433  0.87651889  1
  Zn  Zn111  1  0.25107456  0.24947192  0.50031342  1
  Zn  Zn112  1  0.00026538  0.24974460  0.25035660  1
  Zn  Zn113  1  0.74998244  0.24986635  -0.00067926  1
  Zn  Zn114  1  0.12588458  0.25072050  0.87353424  1
  Zn  Zn115  1  -0.00141624  0.87733289  0.87406437  1
  Zn  Zn116  1  0.00096393  -0.00145458  -0.00232470  1
  Zn  Zn117  1  0.12594249  0.12501879  0.50012130  1
  Zn  Zn118  1  0.12598094  0.74893381  0.37519548  1
  Zn  Zn119  1  0.37497716  0.12573390  0.74989867  1
  Zn  Zn120  1  0.87743677  0.00086273  0.87505566  1
  Zn  Zn121  1  0.12423932  0.49926662  0.12120329  1
  Zn  Zn122  1  0.25240500  -0.00013086  0.24851156  1
  Zn  Zn123  1  0.12622557  0.00003924  0.12468629  1
  Zn  Zn124  1  0.50105820  0.87577114  0.37604648  1
  Zn  Zn125  1  0.87276080  0.74995684  0.62447068  1
  Zn  Zn126  1  0.74958924  0.75055575  0.50049970  1
  Zn  Zn127  1  0.62594235  0.75262381  0.37637024  1
  Zn  Zn128  1  0.18796454  0.18826236  0.18869157  1
  Zn  Zn129  1  0.18771411  0.18756590  0.68781666  1
  Zn  Zn130  1  0.18682428  0.68961808  0.18690920  1
  Zn  Zn131  1  0.18772574  0.68681149  0.68704001  1
  Zn  Zn132  1  0.68875980  0.18668026  0.18763093  1
  Zn  Zn133  1  0.68734741  0.18837272  0.68867295  1
  Zn  Zn134  1  0.68736328  0.68668851  0.18809359  1
  Zn  Zn135  1  0.68664381  0.68877714  0.68688903  1
  Zn  Zn136  1  0.31332034  0.31184083  0.31207898  1
  Zn  Zn137  1  0.31215852  0.31272128  0.81178214  1
  Zn  Zn138  1  0.31184593  0.81240747  0.31471984  1
  Zn  Zn139  1  0.31188343  0.81270233  0.81281172  1
  Zn  Zn140  1  0.81269716  0.31162732  0.31114281  1
  Zn  Zn141  1  0.81229746  0.31197930  0.81348371  1
  Zn  Zn142  1  0.81148326  0.81213343  0.31486026  1
  Zn  Zn143  1  0.81075558  0.81077200  0.81347286  1
  Zn  Zn144  1  0.18835705  0.43846718  0.43590798  1
  Zn  Zn145  1  0.18649718  0.43864633  0.93757694  1
  Zn  Zn146  1  0.18750905  0.93708291  0.43685186  1
  Zn  Zn147  1  0.18754256  0.93714345  0.93719992  1
  Zn  Zn148  1  0.68633780  0.43810689  0.43783110  1
  Zn  Zn149  1  0.69013583  0.43636472  0.93815776  1
  Zn  Zn150  1  0.68731582  0.93719483  0.43707958  1
  Zn  Zn151  1  0.68848976  0.93689184  0.93672994  1
  Zn  Zn152  1  0.31231804  0.06132127  0.06288290  1
  Zn  Zn153  1  0.31264606  0.06389241  0.56099750  1
  Zn  Zn154  1  0.31096097  0.56401843  0.06212155  1
  Zn  Zn155  1  0.31266828  0.56350182  0.56295829  1
  Zn  Zn156  1  0.81183688  0.06237822  0.06184524  1
  Zn  Zn157  1  0.81320316  0.06116566  0.56293026  1
  Zn  Zn158  1  0.81306099  0.56203773  0.06145873  1
  Zn  Zn159  1  0.81119039  0.56252497  0.56389402  1
  Zn  Zn160  1  0.43834532  0.43475453  0.18641670  1
  Zn  Zn161  1  0.43925998  0.43758240  0.68707355  1
  Zn  Zn162  1  0.43714772  0.93696143  0.18913870  1
  Zn  Zn163  1  0.43723976  0.93735654  0.68751245  1
  Zn  Zn164  1  0.93877668  0.43814073  0.18850930  1
  Zn  Zn165  1  0.93648911  0.43845403  0.68821897  1
  Zn  Zn166  1  0.93785878  0.93907118  0.18601158  1
  Zn  Zn167  1  0.93688898  0.93726713  0.68766502  1
  Zn  Zn168  1  0.06276741  0.06211900  0.31146437  1
  Zn  Zn169  1  0.06128405  0.06087921  0.81403647  1
  Zn  Zn170  1  0.06327575  0.56299377  0.31187291  1
  Zn  Zn171  1  0.06193287  0.56298721  0.81170027  1
  Zn  Zn172  1  0.56257787  0.06315163  0.31310011  1
  Zn  Zn173  1  0.56242227  0.06339244  0.81247501  1
  Zn  Zn174  1  0.56211687  0.56246719  0.31366578  1
  Zn  Zn175  1  0.56210497  0.56352512  0.81345675  1
  Zn  Zn176  1  0.43817420  0.18754403  0.43772836  1
  Zn  Zn177  1  0.43815041  0.18743205  0.93677614  1
  Zn  Zn178  1  0.43618970  0.68656958  0.43569297  1
  Zn  Zn179  1  0.43857757  0.68442545  0.93819341  1
  Zn  Zn180  1  0.93845653  0.18679265  0.43827007  1
  Zn  Zn181  1  0.93809412  0.18917594  0.93715636  1
  Zn  Zn182  1  0.93673756  0.68947888  0.43832393  1
  Zn  Zn183  1  0.93638835  0.68989987  0.93702357  1
  Zn  Zn184  1  0.06277203  0.31114723  0.06089122  1
  Zn  Zn185  1  0.06241216  0.31224428  0.56135650  1
  Zn  Zn186  1  0.06163520  0.81062176  0.06311374  1
  Zn  Zn187  1  0.06178633  0.81187545  0.56264244  1
  Zn  Zn188  1  0.56173307  0.31411588  0.06114176  1
  Zn  Zn189  1  0.56264828  0.31374829  0.56386731  1
  Zn  Zn190  1  0.56227694  0.81148510  0.06390663  1
  Zn  Zn191  1  0.56174356  0.81197829  0.56429965  1
  O  O192  1  0.11808638  0.12623158  0.11699968  1
  O  O193  1  0.11893347  0.11890079  0.62314842  1
  O  O194  1  0.11192076  0.62650576  0.12505821  1
  O  O195  1  0.11882008  0.61831364  0.61956469  1
  O  O196  1  0.62032409  0.11933486  0.11946762  1
  O  O197  1  0.62043905  0.12034535  0.61963285  1
  O  O198  1  0.62619248  0.61143079  0.12569461  1
  O  O199  1  0.62296948  0.62230720  0.61341093  1
  O  O200  1  0.37695282  0.37562996  0.38663084  1
  O  O201  1  0.37436939  0.38416222  0.87988758  1
  O  O202  1  0.37618855  0.88262043  0.38242895  1
  O  O203  1  0.38009368  0.88055193  0.88108608  1
  O  O204  1  0.87978085  0.37949983  0.38023821  1
  O  O205  1  0.88037723  0.38000865  0.87945148  1
  O  O206  1  0.88023065  0.88190605  0.37994171  1
  O  O207  1  0.87429277  0.87500974  0.88704525  1
  O  O208  1  0.25603745  0.00870580  0.37467068  1
  O  O209  1  0.25558429  0.00429268  0.86959242  1
  O  O210  1  0.25235428  0.50105009  0.36040053  1
  O  O211  1  0.25945655  0.50046191  0.86752778  1
  O  O212  1  0.75559692  0.00569898  0.37034370  1
  O  O213  1  0.75117227  0.00698973  0.86793069  1
  O  O214  1  0.75573876  0.50450098  0.37005629  1
  O  O215  1  0.75696906  0.50484636  0.86956398  1
  O  O216  1  0.24945398  0.49364987  0.13506012  1
  O  O217  1  0.24411990  0.49405109  0.62950025  1
  O  O218  1  0.24779613  0.99195162  0.12806562  1
  O  O219  1  0.24525127  0.99533654  0.62926491  1
  O  O220  1  0.74463358  0.49401207  0.13163890  1
  O  O221  1  0.74958929  0.49256936  0.63279197  1
  O  O222  1  0.74412755  0.99514646  0.13086031  1
  O  O223  1  0.74346060  0.99585570  0.63116301  1
  O  O224  1  0.00696089  0.37435324  0.25733916  1
  O  O225  1  0.00444035  0.37016050  0.75363974  1
  O  O226  1  0.00637394  0.87111195  0.25346234  1
  O  O227  1  0.00710858  0.86841842  0.74980884  1
  O  O228  1  0.50713380  0.36686597  0.25135530  1
  O  O229  1  0.50759398  0.36857522  0.75088128  1
  O  O230  1  0.50531938  0.86569153  0.25063240  1
  O  O231  1  0.50433715  0.87058939  0.75569625  1
  O  O232  1  0.50056679  0.13134144  0.24216753  1
  O  O233  1  0.49912048  0.13188330  0.74293806  1
  O  O234  1  0.49150291  0.63216959  0.24817839  1
  O  O235  1  0.49290903  0.63156401  0.74853948  1
  O  O236  1  0.99962235  0.12733641  0.23754604  1
  O  O237  1  0.99501700  0.13034664  0.74418023  1
  O  O238  1  0.99369192  0.63038423  0.24335355  1
  O  O239  1  0.99428271  0.62987093  0.74404540  1
  O  O240  1  0.37025041  0.25486994  0.00539857  1
  O  O241  1  0.37605214  0.26066541  0.50623004  1
  O  O242  1  0.37022771  0.75602353  0.00505402  1
  O  O243  1  0.37048420  0.75451419  0.50539450  1
  O  O244  1  0.87454906  0.25613253  0.01083684  1
  O  O245  1  0.86984064  0.25581440  0.50503749  1
  O  O246  1  0.86793320  0.75823411  0.00630842  1
  O  O247  1  0.87248252  0.75904025  0.50300485  1
  O  O248  1  0.12710724  0.25033028  0.48706667  1
  O  O249  1  0.13204408  0.23934115  0.99816570  1
  O  O250  1  0.13125487  0.74367239  0.50031489  1
  O  O251  1  0.12995858  0.75076864  0.99034441  1
  O  O252  1  0.63088254  0.24502664  0.49553683  1
  O  O253  1  0.62617012  0.24318670  0.99431615  1
  O  O254  1  0.62343815  0.73825498  0.49787810  1
  O  O255  1  0.63315745  0.74823991  0.99995316  1
  O  O256  1  0.49583524  0.24427129  0.12955842  1
  O  O257  1  0.49558825  0.24524688  0.63026314  1
  O  O258  1  0.49321153  0.74954031  0.13651009  1
  O  O259  1  0.49181771  0.74959170  0.63268316  1
  O  O260  1  0.99248775  0.24151132  0.12574022  1
  O  O261  1  0.99439796  0.24508209  0.62917188  1
  O  O262  1  0.99284393  0.74250897  0.13156202  1
  O  O263  1  0.99875483  0.74261074  0.63188764  1
  O  O264  1  0.00861225  0.25497037  0.37408858  1
  O  O265  1  0.00152948  0.25721134  0.86677573  1
  O  O266  1  0.00043900  0.75784291  0.36784471  1
  O  O267  1  0.00891175  0.75247893  0.86861580  1
  O  O268  1  0.50831817  0.24953622  0.36874983  1
  O  O269  1  0.50690432  0.25085166  0.86815377  1
  O  O270  1  0.49975110  0.75156792  0.36150029  1
  O  O271  1  0.49949722  0.75726464  0.86896874  1
  O  O272  1  0.24732556  0.12800027  0.48758416  1
  O  O273  1  0.24312105  0.12949869  0.99562463  1
  O  O274  1  0.24358567  0.63017729  0.49936286  1
  O  O275  1  0.24746363  0.63527118  0.99798728  1
  O  O276  1  0.74532052  0.13063420  0.49541296  1
  O  O277  1  0.74303417  0.12607549  0.99389642  1
  O  O278  1  0.74017263  0.62313915  0.49496649  1
  O  O279  1  0.75047846  0.63157197  0.99425385  1
  O  O280  1  0.25457434  0.36851464  0.00517459  1
  O  O281  1  0.25986599  0.37632437  0.50549399  1
  O  O282  1  0.25582801  0.86984854  0.00515814  1
  O  O283  1  0.25557398  0.86988414  0.50601598  1
  O  O284  1  0.75921930  0.37207665  0.00761041  1
  O  O285  1  0.75560060  0.36991301  0.50507139  1
  O  O286  1  0.75651525  0.86952244  0.00648422  1
  O  O287  1  0.75561937  0.87619400  0.50672297  1
  O  O288  1  0.13439450  0.49475427  0.24723680  1
  O  O289  1  0.12983433  0.49509332  0.74317525  1
  O  O290  1  0.12628444  0.98671436  0.24823041  1
  O  O291  1  0.13075459  0.99425376  0.74423404  1
  O  O292  1  0.63063908  0.49417377  0.24361406  1
  O  O293  1  0.63146517  0.49381933  0.74955783  1
  O  O294  1  0.63008785  0.99491190  0.24449564  1
  O  O295  1  0.62975092  0.99473080  0.74440900  1
  O  O296  1  0.37379858  0.00218572  0.25961165  1
  O  O297  1  0.36850521  0.00082607  0.75640158  1
  O  O298  1  0.36793487  0.50702734  0.24807793  1
  O  O299  1  0.37027075  0.50354588  0.75608911  1
  O  O300  1  0.86831851  0.00081561  0.25615810  1
  O  O301  1  0.86787284  0.00736187  0.75020967  1
  O  O302  1  0.86923917  0.50474347  0.25631226  1
  O  O303  1  0.86911651  0.50561648  0.75590018  1
  O  O304  1  0.12116668  0.36795703  0.37036534  1
  O  O305  1  0.11905790  0.37400588  0.86661371  1
  O  O306  1  0.11834991  0.87408952  0.36580935  1
  O  O307  1  0.12491824  0.86474619  0.86885345  1
  O  O308  1  0.62537732  0.36759220  0.36853036  1
  O  O309  1  0.62523992  0.36865857  0.86901640  1
  O  O310  1  0.62183365  0.87345277  0.36699358  1
  O  O311  1  0.61774974  0.87405137  0.86876261  1
  O  O312  1  0.38193725  0.13106491  0.12496570  1
  O  O313  1  0.38176138  0.13182797  0.62528958  1
  O  O314  1  0.37517015  0.63099281  0.13615065  1
  O  O315  1  0.37647159  0.63204315  0.63160227  1
  O  O316  1  0.88324949  0.13309962  0.12325861  1
  O  O317  1  0.88022491  0.13072037  0.63050595  1
  O  O318  1  0.88108339  0.63001554  0.13175792  1
  O  O319  1  0.88115623  0.62505088  0.63172837  1
  O  O320  1  0.25615927  0.25412825  0.11968887  1
  O  O321  1  0.25581559  0.25664607  0.62272145  1
  O  O322  1  0.25521499  0.75682759  0.11939339  1
  O  O323  1  0.25528648  0.75649402  0.61988640  1
  O  O324  1  0.76033258  0.25471988  0.12450021  1
  O  O325  1  0.75612448  0.25490509  0.61949782  1
  O  O326  1  0.75517152  0.75544169  0.12169184  1
  O  O327  1  0.75157984  0.75936952  0.62241173  1
  O  O328  1  0.24242197  0.24267537  0.37575681  1
  O  O329  1  0.24919108  0.24320125  0.88101559  1
  O  O330  1  0.24750808  0.74732411  0.38395818  1
  O  O331  1  0.24070509  0.75033320  0.88010130  1
  O  O332  1  0.74576541  0.24484443  0.38065738  1
  O  O333  1  0.74322604  0.24274547  0.87600519  1
  O  O334  1  0.74706954  0.74101151  0.37819176  1
  O  O335  1  0.74759183  0.74264382  0.88212613  1
  O  O336  1  0.00930517  0.12687138  0.00759235  1
  O  O337  1  0.00119163  0.11807102  0.50735334  1
  O  O338  1  -0.00115722  0.62664652  0.01230824  1
  O  O339  1  0.00421039  0.61908726  0.50503820  1
  O  O340  1  0.50592140  0.11831502  0.00529561  1
  O  O341  1  0.50657964  0.12033433  0.50636254  1
  O  O342  1  0.50293471  0.61934215  0.00602256  1
  O  O343  1  0.50684380  0.61706232  0.49905927  1
  O  O344  1  0.49228166  0.38288868  0.49989564  1
  O  O345  1  0.49036881  0.37909591  0.99726582  1
  O  O346  1  0.49382033  0.88195521  0.49967490  1
  O  O347  1  0.49442134  0.88001122  0.99592021  1
  O  O348  1  0.99409412  0.38119812  0.49455481  1
  O  O349  1  0.99458855  0.37563155  0.99273430  1
  O  O350  1  0.99484910  0.88111331  0.49493068  1
  O  O351  1  0.98718340  0.87439325  1.00149807  1
  O  O352  1  0.49794921  0.49645899  0.38669280  1
  O  O353  1  0.48592825  0.49767512  0.87504203  1
  O  O354  1  0.49314521  1.00148537  0.38303402  1
  O  O355  1  0.49504265  0.99470559  0.88082095  1
  O  O356  1  0.99431437  0.49448148  0.38020727  1
  O  O357  1  0.99310765  0.49370873  0.87384525  1
  O  O358  1  0.99486452  0.99528061  0.38003191  1
  O  O359  1  0.99549185  0.99516207  0.87982542  1
  O  O360  1  0.00170941  0.01215646  0.12036565  1
  O  O361  1  0.00560201  0.00515332  0.62035874  1
  O  O362  1  0.00006072  0.51222432  0.12491592  1
  O  O363  1  0.00497318  0.50478049  0.61917378  1
  O  O364  1  0.50529390  0.00436484  0.11950822  1
  O  O365  1  0.50531328  0.00567217  0.62006400  1
  O  O366  1  0.51289821  0.49932941  0.12610743  1
  O  O367  1  0.50186786  0.50255900  0.61209722  1
  O  O368  1  0.24646517  0.38221068  0.24462285  1
  O  O369  1  0.24418617  0.38075623  0.74310682  1
  O  O370  1  0.24065375  0.87351341  0.24468129  1
  O  O371  1  0.24459859  0.88056490  0.74360613  1
  O  O372  1  0.74545604  0.38028699  0.24487507  1
  O  O373  1  0.74587048  0.38007725  0.74530828  1
  O  O374  1  0.74503847  0.88020283  0.24468787  1
  O  O375  1  0.74429545  0.88059153  0.74545312  1
  O  O376  1  0.25137691  0.12294058  0.26241950  1
  O  O377  1  0.25120797  0.11803848  0.75635942  1
  O  O378  1  0.25727965  0.61774115  0.24785209  1
  O  O379  1  0.25647265  0.61771675  0.75061246  1
  O  O380  1  0.75178528  0.11786594  0.25665726  1
  O  O381  1  0.75500561  0.12006451  0.75452187  1
  O  O382  1  0.75596136  0.61907537  0.25574978  1
  O  O383  1  0.75478746  0.61989808  0.75547355  1
  O  O384  1  0.36611543  0.12013856  0.37513060  1
  O  O385  1  0.36853503  0.11744092  0.87456741  1
  O  O386  1  0.37175909  0.62255402  0.36066209  1
  O  O387  1  0.37218278  0.61545885  0.86853416  1
  O  O388  1  0.86941875  0.11926137  0.37348295  1
  O  O389  1  0.86865258  0.12563459  0.86856628  1
  O  O390  1  0.87049008  0.61840080  0.37054227  1
  O  O391  1  0.86989310  0.61991942  0.86926199  1
  O  O392  1  0.13169374  0.37366835  0.13164778  1
  O  O393  1  0.12906506  0.38090228  0.62886636  1
  O  O394  1  0.12948371  0.87501689  0.13335223  1
  O  O395  1  0.13083333  0.88074042  0.62989832  1
  O  O396  1  0.63194768  0.38107830  0.13073685  1
  O  O397  1  0.63305052  0.37583798  0.63195939  1
  O  O398  1  0.63054261  0.88133216  0.13061865  1
  O  O399  1  0.62956014  0.88181361  0.63093195  1
  O  O400  1  0.12516971  0.25647627  0.26127014  1
  O  O401  1  0.11807971  0.25736430  0.74976800  1
  O  O402  1  0.11852630  0.76128969  0.25082071  1
  O  O403  1  0.12073151  0.75480166  0.75665108  1
  O  O404  1  0.62126461  0.25443006  0.25460818  1
  O  O405  1  0.62049104  0.25551878  0.75557916  1
  O  O406  1  0.61535744  0.75441939  0.24944378  1
  O  O407  1  0.61705260  0.75706657  0.75151652  1
  O  O408  1  0.38198621  0.24831998  0.24291670  1
  O  O409  1  0.38163575  0.24959161  0.74293926  1
  O  O410  1  0.38065309  0.74347284  0.24542506  1
  O  O411  1  0.37880667  0.74575121  0.74510358  1
  O  O412  1  0.87785704  0.24824698  0.23762303  1
  O  O413  1  0.88030537  0.24503498  0.74351807  1
  O  O414  1  0.87913603  0.74493599  0.24525984  1
  O  O415  1  0.88120079  0.74324590  0.74914789  1
  O  O416  1  0.38238206  0.49273498  0.49903200  1
  O  O417  1  0.37158892  0.49421488  0.99066688  1
  O  O418  1  0.38045640  0.99457110  0.49538002  1
  O  O419  1  0.38093009  0.99368949  0.99467141  1
  O  O420  1  0.88009633  0.49456378  0.49473257  1
  O  O421  1  0.87791298  0.49349345  0.99303555  1
  O  O422  1  0.88088109  0.99489438  0.49425848  1
  O  O423  1  0.87381539  0.98755907  0.99967902  1
  O  O424  1  0.12553656  0.01273622  0.00189076  1
  O  O425  1  0.11818589  0.00016331  0.50666245  1
  O  O426  1  0.12161937  0.50544153  0.00347687  1
  O  O427  1  0.11917716  0.50421658  0.50468007  1
  O  O428  1  0.61961309  0.00433534  0.00589139  1
  O  O429  1  0.62019554  0.00625337  0.50592441  1
  O  O430  1  0.62623504  0.49858679  0.01257885  1
  O  O431  1  0.61677996  0.50779946  0.50094479  1
  O  O432  1  0.36868175  0.36868971  0.11935366  1
  O  O433  1  0.36994988  0.37087349  0.61693933  1
  O  O434  1  0.36993502  0.86964187  0.11970767  1
  O  O435  1  0.36898342  0.87007364  0.61943316  1
  O  O436  1  0.87278472  0.36773431  0.12132503  1
  O  O437  1  0.87031822  0.36937286  0.61939166  1
  O  O438  1  0.86906796  0.86988417  0.11876540  1
  O  O439  1  0.86789373  0.87570093  0.61854123  1
  O  O440  1  0.13183655  0.13273851  0.37507346  1
  O  O441  1  0.13094847  0.12656480  0.88385827  1
  O  O442  1  0.12620857  0.62755233  0.38279591  1
  O  O443  1  0.12618449  0.63834668  0.87442120  1
  O  O444  1  0.63191699  0.13005520  0.38154612  1
  O  O445  1  0.63026561  0.12982031  0.88029621  1
  O  O446  1  0.63077294  0.62518129  0.38402084  1
  O  O447  1  0.63375007  0.62593118  0.87823198  1
