# generated using pymatgen
data_V3Zn3O8
_symmetry_space_group_name_H-M   'P 1'
_cell_length_a   17.09031160
_cell_length_b   17.08681559
_cell_length_c   17.08888110
_cell_angle_alpha   89.99207249
_cell_angle_beta   90.00463242
_cell_angle_gamma   89.99442409
_symmetry_Int_Tables_number   1
_chemical_formula_structural   V3Zn3O8
_chemical_formula_sum   'V96 Zn96 O256'
_cell_volume   4990.27793044
_cell_formula_units_Z   32
loop_
 _symmetry_equiv_pos_site_id
 _symmetry_equiv_pos_as_xyz
  1  'x, y, z'
loop_
 _atom_site_type_symbol
 _atom_site_label
 _atom_site_symmetry_multiplicity
 _atom_site_fract_x
 _atom_site_fract_y
 _atom_site_fract_z
 _atom_site_occupancy
  V  V0  1  0.24885804  0.87527381  0.62461381  1
  V  V1  1  0.24939125  0.62512313  0.87492798  1
  V  V2  1  0.12594389  0.12445171  -0.00097535  1
  V  V3  1  0.74950370  0.12555734  0.87467894  1
  V  V4  1  0.24924591  0.87557117  0.12389060  1
  V  V5  1  0.87411949  0.62348536  0.75085678  1
  V  V6  1  0.12486368  0.37418163  0.75040880  1
  V  V7  1  0.37439571  0.87543571  -0.00097564  1
  V  V8  1  0.62401443  0.50146451  0.12545439  1
  V  V9  1  0.25268229  0.12277069  0.37275527  1
  V  V10  1  0.62597197  0.25066144  0.37525292  1
  V  V11  1  0.12473005  0.49951444  0.62502694  1
  V  V12  1  0.87367653  0.87403676  0.00026423  1
  V  V13  1  0.37504148  0.50061090  0.37547628  1
  V  V14  1  0.62357564  0.74951654  0.87510490  1
  V  V15  1  0.87615974  0.12530692  0.74909248  1
  V  V16  1  0.74982983  0.00029518  0.24950061  1
  V  V17  1  0.62505866  0.37588999  0.25137079  1
  V  V18  1  0.50067947  0.25064638  0.75071710  1
  V  V19  1  0.25091318  0.37455850  0.62595105  1
  V  V20  1  0.49939845  0.75027687  0.75028101  1
  V  V21  1  0.12360386  0.87485109  0.24836560  1
  V  V22  1  0.12562697  0.37515202  0.25101241  1
  V  V23  1  0.25033202  0.12538966  0.87509243  1
  V  V24  1  0.74926338  0.49965965  0.25137277  1
  V  V25  1  0.12280886  0.12269369  0.50132885  1
  V  V26  1  0.62390936  0.87462186  0.24994952  1
  V  V27  1  0.75123286  0.12445677  0.37418488  1
  V  V28  1  0.74917169  0.75005786  0.00000551  1
  V  V29  1  0.74868321  0.37642524  0.62652306  1
  V  V30  1  -0.00047750  0.87501438  0.37535572  1
  V  V31  1  0.62618603  0.12504741  0.50005339  1
  V  V32  1  0.49902777  0.87477253  0.87426774  1
  V  V33  1  0.87426822  -0.00025341  0.87485395  1
  V  V34  1  0.87607066  0.50060173  0.37559695  1
  V  V35  1  0.74938141  0.87458363  0.12353669  1
  V  V36  1  0.25089555  0.00035161  0.24915527  1
  V  V37  1  0.25008098  0.50011007  0.25024844  1
  V  V38  1  0.12467953  0.87536199  0.74912914  1
  V  V39  1  0.87669535  0.37434188  0.49990037  1
  V  V40  1  0.75065907  0.37401531  0.12496614  1
  V  V41  1  -0.00043286  0.74932421  0.75039783  1
  V  V42  1  0.75137076  0.87417098  0.62484017  1
  V  V43  1  -0.00043969  0.12558853  0.12488017  1
  V  V44  1  -0.00033899  -0.00022391  -0.00024981  1
  V  V45  1  0.75013243  0.00080364  0.74967870  1
  V  V46  1  0.37480728  0.62509018  0.74986372  1
  V  V47  1  0.62625339  -0.00001231  0.62571741  1
  V  V48  1  0.25127620  0.37454976  0.12481169  1
  V  V49  1  0.37354039  0.75002855  0.12569798  1
  V  V50  1  0.62327700  0.75201021  0.37364175  1
  V  V51  1  0.24870064  0.74992364  -0.00134832  1
  V  V52  1  0.24875418  0.75022963  0.49823463  1
  V  V53  1  0.37525141  0.49941555  0.87627308  1
  V  V54  1  -0.00057741  0.62338526  0.62527041  1
  V  V55  1  0.37436301  0.12489061  0.74982586  1
  V  V56  1  0.25069272  0.24916374  0.49987357  1
  V  V57  1  0.37450097  0.62680495  0.24983388  1
  V  V58  1  0.12584219  0.25101589  0.37383898  1
  V  V59  1  0.62382051  0.62530374  0.50134764  1
  V  V60  1  0.25004024  0.49935060  0.75064496  1
  V  V61  1  -0.00008139  0.49940969  0.00079750  1
  V  V62  1  0.62396080  0.62381005  0.00144798  1
  V  V63  1  0.37545257  -0.00062797  0.87437415  1
  V  V64  1  0.75104124  0.24967461  0.49959074  1
  V  V65  1  -0.00005693  0.24830202  0.74925587  1
  V  V66  1  0.62472481  0.00016857  0.12374790  1
  V  V67  1  0.37614541  0.37566375  0.50016364  1
  V  V68  1  -0.00235398  0.74864929  0.24863900  1
  V  V69  1  0.62513891  0.25088920  0.87393290  1
  V  V70  1  0.50014692  0.62524485  0.62493873  1
  V  V71  1  0.50011816  0.24943264  0.24976147  1
  V  V72  1  -0.00085337  0.87401761  0.87494333  1
  V  V73  1  0.87425815  0.74967040  0.62503602  1
  V  V74  1  0.75003334  0.62385908  0.87516610  1
  V  V75  1  0.12479033  -0.00051563  0.12349554  1
  V  V76  1  0.50017297  0.37660886  0.87692338  1
  V  V77  1  0.00106838  0.24996356  0.24819308  1
  V  V78  1  0.75142911  0.25107085  0.00083774  1
  V  V79  1  0.49835742  -0.00257944  0.49852559  1
  V  V80  1  0.12427963  0.50037957  0.12554138  1
  V  V81  1  0.12518437  0.62425267  0.50106213  1
  V  V82  1  0.62475669  0.12485468  -0.00038628  1
  V  V83  1  0.87605130  -0.00011752  0.37448049  1
  V  V84  1  -0.00082815  0.62406720  0.12564508  1
  V  V85  1  0.50022131  0.37560267  0.37635915  1
  V  V86  1  0.25187725  0.25095891  0.00069551  1
  V  V87  1  -0.00022857  0.37569500  0.87532562  1
  V  V88  1  0.50080990  0.12625293  0.12538312  1
  V  V89  1  0.87490199  0.49965480  0.87598456  1
  V  V90  1  0.37419526  0.75070013  0.62407011  1
  V  V91  1  0.50070745  0.12517482  0.62529631  1
  V  V92  1  0.24872726  -0.00016525  0.74845652  1
  V  V93  1  0.74909852  0.62513414  0.37561622  1
  V  V94  1  0.12475674  0.74910823  0.87480833  1
  V  V95  1  0.37569864  0.25026973  0.62530635  1
  Zn  Zn96  1  0.49979255  0.62600180  0.12433903  1
  Zn  Zn97  1  0.37391358  0.87583765  0.49768515  1
  Zn  Zn98  1  0.87610969  0.37334066  0.00174802  1
  Zn  Zn99  1  0.62405319  0.50108813  0.62770213  1
  Zn  Zn100  1  0.62387856  0.87519804  0.75061821  1
  Zn  Zn101  1  0.12425657  0.62486186  0.00002067  1
  Zn  Zn102  1  0.00211181  0.37522323  0.37537987  1
  Zn  Zn103  1  0.12205811  -0.00070498  0.62422618  1
  Zn  Zn104  1  0.00232062  0.49854273  0.49967085  1
  Zn  Zn105  1  0.37572711  0.37709708  0.00305885  1
  Zn  Zn106  1  0.49697060  0.87580751  0.37309785  1
  Zn  Zn107  1  0.37672525  0.25066223  0.12705031  1
  Zn  Zn108  1  0.12360205  0.74764799  0.37487408  1
  Zn  Zn109  1  0.87354497  0.62488206  0.24989679  1
  Zn  Zn110  1  -0.00154525  0.12156550  0.62421589  1
  Zn  Zn111  1  0.87283966  0.74691472  0.12451838  1
  Zn  Zn112  1  0.87533082  0.25010870  0.12516266  1
  Zn  Zn113  1  0.87501518  0.12728451  0.24774546  1
  Zn  Zn114  1  0.62587476  0.37824013  0.74931344  1
  Zn  Zn115  1  0.74855949  0.49933887  0.75064335  1
  Zn  Zn116  1  0.12548073  0.25019254  0.87488825  1
  Zn  Zn117  1  0.49951622  0.50007150  0.50216915  1
  Zn  Zn118  1  0.37669009  0.12467765  0.24804783  1
  Zn  Zn119  1  0.37644049  -0.00280136  0.37245450  1
  Zn  Zn120  1  0.87677447  0.87345502  0.50058198  1
  Zn  Zn121  1  0.49952533  0.00068416  -0.00064129  1
  Zn  Zn122  1  0.87587000  0.24744354  0.62331501  1
  Zn  Zn123  1  0.49737045  0.75318961  0.24891024  1
  Zn  Zn124  1  0.75203568  0.75108255  0.49941897  1
  Zn  Zn125  1  -0.00036947  -0.00094957  0.50215900  1
  Zn  Zn126  1  0.49759506  0.50145997  0.00330631  1
  Zn  Zn127  1  0.24790214  0.62554544  0.37548859  1
  Zn  Zn128  1  0.18650389  0.18737766  0.18579991  1
  Zn  Zn129  1  0.18638809  0.18758769  0.68678060  1
  Zn  Zn130  1  0.18613068  0.68726480  0.18702881  1
  Zn  Zn131  1  0.18713581  0.68766797  0.68678798  1
  Zn  Zn132  1  0.68725434  0.18776604  0.18775650  1
  Zn  Zn133  1  0.68835834  0.19025133  0.68710682  1
  Zn  Zn134  1  0.68774484  0.68687134  0.18818951  1
  Zn  Zn135  1  0.68742399  0.68823522  0.68950605  1
  Zn  Zn136  1  0.31449854  0.31156245  0.31167265  1
  Zn  Zn137  1  0.31427865  0.31239171  0.81447362  1
  Zn  Zn138  1  0.31261910  0.81534465  0.31465195  1
  Zn  Zn139  1  0.31215701  0.81239594  0.81160801  1
  Zn  Zn140  1  0.81430285  0.31223853  0.31106849  1
  Zn  Zn141  1  0.81482726  0.31282141  0.81291142  1
  Zn  Zn142  1  0.81130169  0.81271788  0.31126552  1
  Zn  Zn143  1  0.81156409  0.81142125  0.81179464  1
  Zn  Zn144  1  0.19002970  0.43810883  0.43746249  1
  Zn  Zn145  1  0.18546027  0.43740419  0.93819032  1
  Zn  Zn146  1  0.18587816  0.93698297  0.43607992  1
  Zn  Zn147  1  0.18755546  0.93722509  0.93545316  1
  Zn  Zn148  1  0.68806428  0.43899105  0.43990248  1
  Zn  Zn149  1  0.68717335  0.43790125  0.93934693  1
  Zn  Zn150  1  0.68772021  0.93716845  0.43862150  1
  Zn  Zn151  1  0.68555918  0.93738433  0.93706704  1
  Zn  Zn152  1  0.31554464  0.06368275  0.06314572  1
  Zn  Zn153  1  0.31232983  0.06185686  0.56282543  1
  Zn  Zn154  1  0.31171943  0.56263911  0.06192834  1
  Zn  Zn155  1  0.31258475  0.56291790  0.56279557  1
  Zn  Zn156  1  0.81303436  0.06383181  0.06252237  1
  Zn  Zn157  1  0.81502031  0.06161568  0.56199282  1
  Zn  Zn158  1  0.81338273  0.56145235  0.06306844  1
  Zn  Zn159  1  0.81088078  0.56221249  0.56184859  1
  Zn  Zn160  1  0.43767818  0.43779352  0.18751761  1
  Zn  Zn161  1  0.43932542  0.43900485  0.68832259  1
  Zn  Zn162  1  0.43787871  0.93898817  0.18761474  1
  Zn  Zn163  1  0.43605307  0.93638897  0.68617532  1
  Zn  Zn164  1  0.93716603  0.43551071  0.18805991  1
  Zn  Zn165  1  0.93649282  0.43725646  0.68805739  1
  Zn  Zn166  1  0.93559089  0.93746024  0.18658151  1
  Zn  Zn167  1  0.93844576  0.93893169  0.68662241  1
  Zn  Zn168  1  0.06403843  0.06333607  0.31122386  1
  Zn  Zn169  1  0.06345293  0.06210112  0.81339490  1
  Zn  Zn170  1  0.06249232  0.56308130  0.31415693  1
  Zn  Zn171  1  0.06223251  0.56197288  0.81283912  1
  Zn  Zn172  1  0.56432912  0.06302205  0.31195698  1
  Zn  Zn173  1  0.56231518  0.06193902  0.81220264  1
  Zn  Zn174  1  0.55953175  0.56342598  0.31260459  1
  Zn  Zn175  1  0.56433526  0.56086596  0.81135738  1
  Zn  Zn176  1  0.43833184  0.18690342  0.43741025  1
  Zn  Zn177  1  0.43743481  0.18789726  0.93856541  1
  Zn  Zn178  1  0.43715342  0.68804291  0.43681350  1
  Zn  Zn179  1  0.43751425  0.68681774  0.93883108  1
  Zn  Zn180  1  0.93880120  0.18843222  0.43347488  1
  Zn  Zn181  1  0.93668795  0.18864441  0.93714486  1
  Zn  Zn182  1  0.93736820  0.68725584  0.43993699  1
  Zn  Zn183  1  0.93668369  0.68584899  0.93930435  1
  Zn  Zn184  1  0.06451076  0.31285934  0.06258517  1
  Zn  Zn185  1  0.06284344  0.31049695  0.56326161  1
  Zn  Zn186  1  0.06161513  0.81117029  0.06213519  1
  Zn  Zn187  1  0.06256799  0.81138174  0.56296138  1
  Zn  Zn188  1  0.56520008  0.31268955  0.06248883  1
  Zn  Zn189  1  0.56347379  0.31250231  0.56210050  1
  Zn  Zn190  1  0.55949744  0.81136157  0.06261765  1
  Zn  Zn191  1  0.56420162  0.81248875  0.56314632  1
  O  O192  1  0.12014581  0.11773707  0.11775823  1
  O  O193  1  0.12505446  0.12451392  0.61213132  1
  O  O194  1  0.11778506  0.61777452  0.12423433  1
  O  O195  1  0.11935086  0.61898831  0.62153832  1
  O  O196  1  0.62061309  0.11961020  0.11936017  1
  O  O197  1  0.62080110  0.12049556  0.61944491  1
  O  O198  1  0.62435359  0.61908272  0.11997618  1
  O  O199  1  0.61983032  0.62873365  0.61534748  1
  O  O200  1  0.38046462  0.37980360  0.38091010  1
  O  O201  1  0.38443710  0.38051176  0.87603771  1
  O  O202  1  0.37931901  0.87951204  0.38031457  1
  O  O203  1  0.37883438  0.87974617  0.87922978  1
  O  O204  1  0.87341648  0.38361479  0.38466038  1
  O  O205  1  0.88250463  0.38203208  0.87659821  1
  O  O206  1  0.88264833  0.88277507  0.37416496  1
  O  O207  1  0.87961358  0.88002370  0.87979268  1
  O  O208  1  0.24870036  0.00889471  0.36856398  1
  O  O209  1  0.25588824  0.00516658  0.86843878  1
  O  O210  1  0.25759773  0.50144737  0.36784167  1
  O  O211  1  0.25432467  0.50463576  0.86930968  1
  O  O212  1  0.75714347  0.00371829  0.37017524  1
  O  O213  1  0.75464724  0.00541359  0.86971857  1
  O  O214  1  0.75717057  0.50449528  0.37128154  1
  O  O215  1  0.75696826  0.50662438  0.87547032  1
  O  O216  1  0.24414647  0.49476702  0.13076978  1
  O  O217  1  0.24560495  0.49392752  0.63162451  1
  O  O218  1  0.24404224  0.99495014  0.12825635  1
  O  O219  1  0.24787115  0.99378545  0.63135466  1
  O  O220  1  0.74421053  0.49466704  0.13218517  1
  O  O221  1  0.74900882  0.48815419  0.62518594  1
  O  O222  1  0.74436541  0.99494068  0.12925824  1
  O  O223  1  0.74659199  0.99317077  0.62979942  1
  O  O224  1  0.00852348  0.36787385  0.25119992  1
  O  O225  1  0.00459816  0.36712924  0.75436978  1
  O  O226  1  0.00320314  0.86786452  0.25546124  1
  O  O227  1  0.00406762  0.86887006  0.75618381  1
  O  O228  1  0.50638818  0.36983670  0.25710922  1
  O  O229  1  0.50001921  0.36870607  0.76017713  1
  O  O230  1  0.50893642  0.87433498  0.25232689  1
  O  O231  1  0.49997043  0.86808573  0.75574301  1
  O  O232  1  0.50253256  0.13149348  0.24344996  1
  O  O233  1  0.49403517  0.13018763  0.74458745  1
  O  O234  1  0.48511499  0.62757027  0.24875988  1
  O  O235  1  0.49367046  0.63094900  0.74551624  1
  O  O236  1  1.00225528  0.13248532  0.24288647  1
  O  O237  1  0.99571559  0.13341951  0.75183247  1
  O  O238  1  0.99887344  0.63424401  0.24601789  1
  O  O239  1  0.99448889  0.63041370  0.74507193  1
  O  O240  1  0.36159154  0.25125219  0.00116677  1
  O  O241  1  0.37034232  0.25475974  0.50573703  1
  O  O242  1  0.36730473  0.75566554  0.00461979  1
  O  O243  1  0.36449493  0.74947196  0.50581318  1
  O  O244  1  0.86666050  0.25189232  0.00244893  1
  O  O245  1  0.86995810  0.25911548  0.49784280  1
  O  O246  1  0.86754221  0.75685792  0.00035942  1
  O  O247  1  0.87164302  0.75266369  0.50878416  1
  O  O248  1  0.13168947  0.24302798  0.49475662  1
  O  O249  1  0.13600413  0.24354051  0.99838695  1
  O  O250  1  0.13384556  0.74309083  0.50116297  1
  O  O251  1  0.13077954  0.74943476  0.99238898  1
  O  O252  1  0.63083633  0.24394179  0.49426487  1
  O  O253  1  0.63163790  0.24399944  0.99290937  1
  O  O254  1  0.62686338  0.74188587  0.49134082  1
  O  O255  1  0.63019532  0.74472440  0.99451491  1
  O  O256  1  0.50298783  0.24387667  0.13184320  1
  O  O257  1  0.49532126  0.24462848  0.62991756  1
  O  O258  1  0.48902644  0.74788823  0.12825650  1
  O  O259  1  0.49420021  0.74554105  0.63013203  1
  O  O260  1  1.00200914  0.24345794  0.13105687  1
  O  O261  1  0.99860104  0.24811176  0.63844480  1
  O  O262  1  0.99835045  0.74511062  0.13379670  1
  O  O263  1  0.99433133  0.74417555  0.63159814  1
  O  O264  1  0.00850379  0.25201565  0.36609674  1
  O  O265  1  0.00187416  0.25540932  0.86496680  1
  O  O266  1  -0.00106161  0.75847837  0.36643086  1
  O  O267  1  0.00430981  0.75471390  0.87009291  1
  O  O268  1  0.50690166  0.25496479  0.37119950  1
  O  O269  1  0.50408315  0.25716467  0.87026709  1
  O  O270  1  0.51251179  0.75194595  0.37331911  1
  O  O271  1  0.50355979  0.75502364  0.86945602  1
  O  O272  1  0.24317468  0.12933866  0.49213881  1
  O  O273  1  0.24571831  0.13175944  0.99560032  1
  O  O274  1  0.24389966  0.63503048  0.50187915  1
  O  O275  1  0.24779264  0.63221396  0.99260238  1
  O  O276  1  0.74572513  0.12943319  0.49438853  1
  O  O277  1  0.74443282  0.12994538  0.99360523  1
  O  O278  1  0.73994169  0.62757965  0.49455186  1
  O  O279  1  0.74465014  0.63072231  0.99479586  1
  O  O280  1  0.24892683  0.36563838  0.00501480  1
  O  O281  1  0.25609961  0.36836617  0.50647023  1
  O  O282  1  0.25455466  0.86985985  0.00410951  1
  O  O283  1  0.24756361  0.86584020  0.50574362  1
  O  O284  1  0.74993462  0.36797070  0.00704308  1
  O  O285  1  0.75789042  0.37001300  0.50589262  1
  O  O286  1  0.75413485  0.86984931  0.00373953  1
  O  O287  1  0.75182659  0.87492506  0.51384912  1
  O  O288  1  0.13037962  0.49509795  0.24589014  1
  O  O289  1  0.13086140  0.49410249  0.74458079  1
  O  O290  1  0.13011195  0.99431280  0.24249204  1
  O  O291  1  0.13158861  0.99300714  0.75004675  1
  O  O292  1  0.63013352  0.49510559  0.24718668  1
  O  O293  1  0.63070386  0.49651135  0.74557963  1
  O  O294  1  0.63149916  0.99454774  0.24429494  1
  O  O295  1  0.63217473  0.99958956  0.74317807  1
  O  O296  1  0.36598474  0.00405016  0.25147853  1
  O  O297  1  0.36881020  0.00595280  0.75407139  1
  O  O298  1  0.36936609  0.50793466  0.25483739  1
  O  O299  1  0.36863987  0.50568837  0.75544686  1
  O  O300  1  0.86886184  0.00050209  0.25967281  1
  O  O301  1  0.86978722  0.00531161  0.75663330  1
  O  O302  1  0.86867046  0.49820386  0.26222554  1
  O  O303  1  0.87381255  0.50674719  0.75758421  1
  O  O304  1  0.12604333  0.36890405  0.36942897  1
  O  O305  1  0.11823955  0.37398943  0.86696588  1
  O  O306  1  0.11388296  0.87439460  0.36696544  1
  O  O307  1  0.11872979  0.86912155  0.86902410  1
  O  O308  1  0.62077133  0.37030787  0.37183992  1
  O  O309  1  0.61591683  0.36928351  0.87410210  1
  O  O310  1  0.62629837  0.86616673  0.36999604  1
  O  O311  1  0.61791327  0.86810804  0.87336167  1
  O  O312  1  0.38540680  0.12833801  0.12646794  1
  O  O313  1  0.38025782  0.13105518  0.63025943  1
  O  O314  1  0.37270582  0.63080517  0.13478485  1
  O  O315  1  0.37957476  0.63086281  0.63085177  1
  O  O316  1  0.88406183  0.12627301  0.12754826  1
  O  O317  1  0.87741684  0.12754533  0.63243969  1
  O  O318  1  0.88275226  0.62624330  0.12971022  1
  O  O319  1  0.87929217  0.62912480  0.63042028  1
  O  O320  1  0.24999665  0.25506632  0.11586144  1
  O  O321  1  0.25637470  0.25509022  0.62033129  1
  O  O322  1  0.25296046  0.75664002  0.11886634  1
  O  O323  1  0.25428438  0.75475466  0.61771143  1
  O  O324  1  0.74914913  0.25615587  0.11907026  1
  O  O325  1  0.75262413  0.25875294  0.61745123  1
  O  O326  1  0.75051516  0.75662710  0.11835416  1
  O  O327  1  0.75537131  0.75965805  0.62679758  1
  O  O328  1  0.24592490  0.24179289  0.37966721  1
  O  O329  1  0.24913850  0.24412372  0.88341018  1
  O  O330  1  0.24628458  0.75024492  0.38729220  1
  O  O331  1  0.24450382  0.74509248  0.87874403  1
  O  O332  1  0.74525487  0.24482206  0.37965709  1
  O  O333  1  0.74495513  0.24467498  0.87936276  1
  O  O334  1  0.74020869  0.74509935  0.37566910  1
  O  O335  1  0.74393541  0.74459993  0.88023930  1
  O  O336  1  0.00585483  0.11873339  0.00319155  1
  O  O337  1  0.01224032  0.12606420  0.49812834  1
  O  O338  1  0.00209399  0.61831487  0.00699696  1
  O  O339  1  0.00705781  0.62309928  0.50811084  1
  O  O340  1  0.50742028  0.12501693  0.00624914  1
  O  O341  1  0.50624474  0.11851574  0.50607505  1
  O  O342  1  0.50840429  0.62298736  0.00232259  1
  O  O343  1  0.50828748  0.62612197  0.50572214  1
  O  O344  1  0.49374882  0.37562945  0.49431698  1
  O  O345  1  0.49885176  0.37459055  0.98754245  1
  O  O346  1  0.50107545  0.88738875  0.50068064  1
  O  O347  1  0.49170705  0.87620198  0.99238125  1
  O  O348  1  0.98906978  0.37529138  0.49889419  1
  O  O349  1  1.00045430  0.38091268  0.99352549  1
  O  O350  1  0.99999703  0.87507555  0.48637851  1
  O  O351  1  0.99440813  0.88016819  0.99432170  1
  O  O352  1  0.49287760  0.49309070  0.37727409  1
  O  O353  1  0.49449235  0.49065493  0.87484885  1
  O  O354  1  0.50152001  1.00163491  0.38748705  1
  O  O355  1  0.49271155  0.99381063  0.87499444  1
  O  O356  1  0.98857623  0.49708699  0.37722161  1
  O  O357  1  0.99530504  0.49550146  0.88046998  1
  O  O358  1  0.99237837  0.99091485  0.37130772  1
  O  O359  1  0.99433325  0.99359011  0.88027056  1
  O  O360  1  0.00544498  0.00381917  0.11888189  1
  O  O361  1  0.00384746  0.00297115  0.62000105  1
  O  O362  1  0.00512956  0.50411039  0.12158548  1
  O  O363  1  0.00681098  0.50554847  0.62446962  1
  O  O364  1  0.50758172  0.00758634  0.12257431  1
  O  O365  1  0.50552791  0.00582782  0.61877474  1
  O  O366  1  0.50884849  0.50202021  0.12409042  1
  O  O367  1  0.50211864  0.50919161  0.62248020  1
  O  O368  1  0.24523789  0.37984729  0.24494010  1
  O  O369  1  0.24574552  0.37907514  0.74534808  1
  O  O370  1  0.24287939  0.87969629  0.24351903  1
  O  O371  1  0.24416770  0.87971082  0.74497921  1
  O  O372  1  0.74326215  0.37999105  0.24658719  1
  O  O373  1  0.75098612  0.37371526  0.73771675  1
  O  O374  1  0.74409873  0.88072744  0.24335887  1
  O  O375  1  0.74946977  0.88152823  0.74058510  1
  O  O376  1  0.24779084  0.11998606  0.25888140  1
  O  O377  1  0.25505015  0.12088890  0.75466250  1
  O  O378  1  0.25834861  0.61985906  0.25125889  1
  O  O379  1  0.25517359  0.61939606  0.75463538  1
  O  O380  1  0.75047053  0.11813748  0.25682730  1
  O  O381  1  0.75553870  0.12090575  0.75538204  1
  O  O382  1  0.75158458  0.61775092  0.25806119  1
  O  O383  1  0.75725317  0.62520071  0.75743579  1
  O  O384  1  0.36174798  0.12359693  0.37517516  1
  O  O385  1  0.37009870  0.11975403  0.86893398  1
  O  O386  1  0.37206997  0.62052257  0.36615164  1
  O  O387  1  0.36889319  0.62037947  0.86863688  1
  O  O388  1  0.87010209  0.11552135  0.37235128  1
  O  O389  1  0.86894281  0.11855779  0.87001369  1
  O  O390  1  0.86908636  0.61473620  0.37691881  1
  O  O391  1  0.86987757  0.61993442  0.87022813  1
  O  O392  1  0.13159488  0.38132052  0.13174700  1
  O  O393  1  0.13172275  0.37919323  0.63008507  1
  O  O394  1  0.12959524  0.88056099  0.12843238  1
  O  O395  1  0.13085015  0.87492382  0.63242925  1
  O  O396  1  0.63080771  0.38100913  0.13223760  1
  O  O397  1  0.63641810  0.37637488  0.62345505  1
  O  O398  1  0.63023851  0.88003936  0.12880604  1
  O  O399  1  0.63504459  0.88057018  0.62766203  1
  O  O400  1  0.12112554  0.25565962  0.25446167  1
  O  O401  1  0.11690274  0.25521672  0.75151115  1
  O  O402  1  0.11377852  0.75595518  0.25077016  1
  O  O403  1  0.11899653  0.75519016  0.75512903  1
  O  O404  1  0.62093267  0.25653903  0.25735557  1
  O  O405  1  0.61786015  0.25162560  0.75650173  1
  O  O406  1  0.62426528  0.75508737  0.25909022  1
  O  O407  1  0.61695631  0.75074617  0.75760934  1
  O  O408  1  0.38488418  0.24645944  0.24893954  1
  O  O409  1  0.38024665  0.24412042  0.74457988  1
  O  O410  1  0.37155675  0.74198320  0.24501016  1
  O  O411  1  0.37906113  0.74391948  0.74428877  1
  O  O412  1  0.88541303  0.24814386  0.24838267  1
  O  O413  1  0.88505148  0.24382582  0.74975740  1
  O  O414  1  0.88628849  0.74881406  0.24849992  1
  O  O415  1  0.88115178  0.74363779  0.74573032  1
  O  O416  1  0.37485261  0.49339623  0.49403353  1
  O  O417  1  0.37672971  0.49796012  0.99167157  1
  O  O418  1  0.38733101  1.00057131  0.49993971  1
  O  O419  1  0.37511449  0.99316103  0.99198765  1
  O  O420  1  0.87471538  0.49120145  0.49135701  1
  O  O421  1  0.88249311  0.49794468  0.99342023  1
  O  O422  1  0.87734161  0.99740971  0.48545744  1
  O  O423  1  0.87991029  0.99439007  0.99362222  1
  O  O424  1  0.11927488  0.00372412  0.00391196  1
  O  O425  1  0.12352447  0.01169187  0.49908091  1
  O  O426  1  0.11839476  0.50181389  0.00768637  1
  O  O427  1  0.12581074  0.50516997  0.50772905  1
  O  O428  1  0.62383086  0.00711570  0.00572510  1
  O  O429  1  0.61855625  0.00613698  0.50601161  1
  O  O430  1  0.62409572  0.50693672  0.00781329  1
  O  O431  1  0.62292483  0.51464218  0.50033734  1
  O  O432  1  0.36726845  0.37221889  0.12296628  1
  O  O433  1  0.37041828  0.36949299  0.62090837  1
  O  O434  1  0.36760708  0.87079401  0.11936111  1
  O  O435  1  0.36695927  0.86773676  0.62227308  1
  O  O436  1  0.86552125  0.37285127  0.12338080  1
  O  O437  1  0.86767855  0.37393617  0.61452262  1
  O  O438  1  0.86711050  0.87429704  0.11739849  1
  O  O439  1  0.86666682  0.86957727  0.62534891  1
  O  O440  1  0.13456841  0.13008378  0.38158672  1
  O  O441  1  0.13293927  0.12551200  0.88187175  1
  O  O442  1  0.12734952  0.62720673  0.38457177  1
  O  O443  1  0.13171434  0.63157821  0.87469600  1
  O  O444  1  0.63211864  0.13076899  0.38089340  1
  O  O445  1  0.63016422  0.13042057  0.87918859  1
  O  O446  1  0.62810259  0.63284632  0.38136565  1
  O  O447  1  0.63039758  0.63034184  0.88092912  1
