# generated using pymatgen
data_V3Zn3O8
_symmetry_space_group_name_H-M   'P 1'
_cell_length_a   17.08723530
_cell_length_b   17.08715129
_cell_length_c   17.08757426
_cell_angle_alpha   90.00679704
_cell_angle_beta   90.00338627
_cell_angle_gamma   89.99936298
_symmetry_Int_Tables_number   1
_chemical_formula_structural   V3Zn3O8
_chemical_formula_sum   'V96 Zn96 O256'
_cell_volume   4989.09617257
_cell_formula_units_Z   32
loop_
 _symmetry_equiv_pos_site_id
 _symmetry_equiv_pos_as_xyz
  1  'x, y, z'
loop_
 _atom_site_type_symbol
 _atom_site_label
 _atom_site_symmetry_multiplicity
 _atom_site_fract_x
 _atom_site_fract_y
 _atom_site_fract_z
 _atom_site_occupancy
  V  V0  1  0.50187066  -0.00076885  0.49946427  1
  V  V1  1  0.49939368  0.25001659  0.24998610  1
  V  V2  1  0.37491344  0.74987750  0.62369496  1
  V  V3  1  0.50064304  0.62549962  0.12411565  1
  V  V4  1  0.87338302  0.25185897  0.12431611  1
  V  V5  1  0.62493442  0.62456773  -0.00035459  1
  V  V6  1  0.62660738  0.87572570  0.75013306  1
  V  V7  1  0.87522356  0.49868293  0.37410664  1
  V  V8  1  0.62552772  0.87410750  0.24961396  1
  V  V9  1  0.12550566  -0.00148793  0.62645596  1
  V  V10  1  0.50031003  0.12392529  0.62318415  1
  V  V11  1  0.62513646  0.74992629  0.87494686  1
  V  V12  1  0.74985142  0.62487265  0.87496431  1
  V  V13  1  0.37260103  0.37450254  0.00027099  1
  V  V14  1  -0.00159046  0.24961210  0.75033052  1
  V  V15  1  0.37664478  -0.00116972  0.37575844  1
  V  V16  1  0.49819475  0.37700363  0.87360032  1
  V  V17  1  0.12570731  0.24968485  0.37547020  1
  V  V18  1  0.25049308  0.12456603  0.37618688  1
  V  V19  1  0.00151990  0.37390773  0.37496717  1
  V  V20  1  -0.00207664  0.12512882  0.62701328  1
  V  V21  1  0.25110856  0.49971910  0.24884662  1
  V  V22  1  0.37513502  0.37591573  0.49958790  1
  V  V23  1  0.62488289  0.00087354  0.12420854  1
  V  V24  1  0.24856525  0.37418306  0.62527595  1
  V  V25  1  0.49932606  0.25088976  0.74836755  1
  V  V26  1  0.24966642  0.24974474  0.49946175  1
  V  V27  1  0.12605956  0.87373931  0.25116447  1
  V  V28  1  0.24945000  0.12612838  0.87571830  1
  V  V29  1  0.50041721  0.00105228  0.00031130  1
  V  V30  1  -0.00148484  0.49963433  0.00008051  1
  V  V31  1  0.12499691  0.24976884  0.87650394  1
  V  V32  1  0.50085860  0.74992927  0.74863320  1
  V  V33  1  0.12324881  0.75172031  0.87419721  1
  V  V34  1  0.62539123  0.24914315  0.87698638  1
  V  V35  1  0.87563534  0.75045673  0.12516904  1
  V  V36  1  0.75070623  0.24981131  0.50187114  1
  V  V37  1  0.87634445  -0.00073265  0.37524092  1
  V  V38  1  0.37497473  0.12458155  0.74938036  1
  V  V39  1  0.49932147  0.50073404  -0.00205416  1
  V  V40  1  0.49898455  0.37570601  0.37470203  1
  V  V41  1  0.37430538  0.24969910  0.62456790  1
  V  V42  1  0.87452714  0.37382049  0.50051431  1
  V  V43  1  0.12415678  0.62553795  -0.00063670  1
  V  V44  1  -0.00168372  0.37532082  0.87566235  1
  V  V45  1  0.37594961  0.12529606  0.24984182  1
  V  V46  1  0.12341030  0.49917384  0.62474764  1
  V  V47  1  0.25020465  0.87408697  0.62384704  1
  V  V48  1  0.74976384  0.49813831  0.24979519  1
  V  V49  1  0.74868449  0.50035779  0.74899900  1
  V  V50  1  0.50135657  0.87466565  0.37459981  1
  V  V51  1  0.00085953  0.87591920  0.87416766  1
  V  V52  1  -0.00060193  0.49931489  0.49938845  1
  V  V53  1  0.75074606  0.12408640  0.37631974  1
  V  V54  1  0.00159847  0.25001652  0.25214520  1
  V  V55  1  0.12543455  0.00068907  0.12574362  1
  V  V56  1  0.62414413  0.37631048  0.74835634  1
  V  V57  1  0.00166053  0.00185244  0.00129057  1
  V  V58  1  0.24849522  0.62535446  0.87288292  1
  V  V59  1  0.87477079  0.00390599  0.87653128  1
  V  V60  1  0.87436805  0.49971979  0.87597633  1
  V  V61  1  0.00156107  0.74975965  0.24959325  1
  V  V62  1  0.37488203  0.87499938  -0.00122161  1
  V  V63  1  0.49940367  0.12484327  0.12562425  1
  V  V64  1  -0.00261343  0.62566469  0.62593456  1
  V  V65  1  0.74988756  0.62461151  0.37424156  1
  V  V66  1  0.49995523  0.50001885  0.49988925  1
  V  V67  1  -0.00035848  -0.00112493  0.50113928  1
  V  V68  1  0.62388281  0.37461467  0.24979927  1
  V  V69  1  0.75145798  0.75006996  0.50018682  1
  V  V70  1  0.00194708  0.87369241  0.37487144  1
  V  V71  1  0.49967518  0.87486494  0.87442935  1
  V  V72  1  0.62449359  0.50031128  0.62426775  1
  V  V73  1  0.75088807  0.87520130  0.12472697  1
  V  V74  1  0.24963296  0.75011933  -0.00144615  1
  V  V75  1  0.87504245  0.62606700  0.74976771  1
  V  V76  1  0.62567392  0.12402412  0.50020080  1
  V  V77  1  0.75040198  0.75045860  0.00126525  1
  V  V78  1  0.12358841  0.37468193  0.75024270  1
  V  V79  1  0.75098078  -0.00026068  0.24937187  1
  V  V80  1  0.25064795  0.87500417  0.12525539  1
  V  V81  1  0.74922177  0.00105646  0.75123441  1
  V  V82  1  0.50027568  0.62535243  0.62395406  1
  V  V83  1  0.87496050  0.87367768  0.50054666  1
  V  V84  1  0.37515958  0.62433074  0.24960728  1
  V  V85  1  0.12530550  0.49931640  0.12501634  1
  V  V86  1  0.62560508  0.49901756  0.12507024  1
  V  V87  1  0.24857588  0.50088380  0.75067838  1
  V  V88  1  0.50117422  0.75008042  0.24967829  1
  V  V89  1  0.12687201  0.62626350  0.49838375  1
  V  V90  1  0.87597028  0.12455031  0.25093541  1
  V  V91  1  0.37567200  0.74999591  0.12390582  1
  V  V92  1  -0.00018141  0.62575401  0.12521863  1
  V  V93  1  0.37486692  0.00025063  0.87347034  1
  V  V94  1  0.25131427  -0.00091906  0.25134969  1
  V  V95  1  0.00177136  0.12463698  0.12632059  1
  Zn  Zn96  1  0.74893923  0.37415934  0.12359285  1
  Zn  Zn97  1  -0.00170667  0.75088691  0.74926201  1
  Zn  Zn98  1  0.12747398  0.37457699  0.24854081  1
  Zn  Zn99  1  0.87649521  0.62391537  0.24919391  1
  Zn  Zn100  1  0.37251454  0.24962118  0.12434276  1
  Zn  Zn101  1  0.37648732  0.87384270  0.49861531  1
  Zn  Zn102  1  0.74838768  0.12701294  0.87804584  1
  Zn  Zn103  1  0.25111737  0.74845862  0.49767090  1
  Zn  Zn104  1  0.62649009  -0.00153398  0.62482967  1
  Zn  Zn105  1  0.87511063  0.75242559  0.62887920  1
  Zn  Zn106  1  0.12528617  0.12497862  0.50069421  1
  Zn  Zn107  1  0.75069425  0.37520791  0.62477797  1
  Zn  Zn108  1  0.12825498  0.74949129  0.37527784  1
  Zn  Zn109  1  0.87099676  0.12887452  0.75169307  1
  Zn  Zn110  1  0.62454073  0.24981761  0.37492859  1
  Zn  Zn111  1  0.62530232  0.12682554  0.00085473  1
  Zn  Zn112  1  0.87461142  0.87686334  0.00138221  1
  Zn  Zn113  1  0.25004137  -0.00128163  0.74993719  1
  Zn  Zn114  1  0.74900815  0.25052939  0.00054650  1
  Zn  Zn115  1  0.25180133  0.62680740  0.37512392  1
  Zn  Zn116  1  0.37381560  0.50207923  0.37564342  1
  Zn  Zn117  1  0.24880741  0.25113671  0.00321254  1
  Zn  Zn118  1  0.37429818  0.62359801  0.75066342  1
  Zn  Zn119  1  0.24827987  0.37168748  0.12415645  1
  Zn  Zn120  1  0.87171779  0.37489371  0.00072222  1
  Zn  Zn121  1  0.62505463  0.74919510  0.37466294  1
  Zn  Zn122  1  0.87448600  0.25187502  0.62772914  1
  Zn  Zn123  1  0.12758851  0.12766488  0.00278747  1
  Zn  Zn124  1  0.75082213  0.87476638  0.62535285  1
  Zn  Zn125  1  0.62454326  0.62562769  0.49936501  1
  Zn  Zn126  1  0.12501045  0.87292922  0.74945937  1
  Zn  Zn127  1  0.37366075  0.50227485  0.87294842  1
  Zn  Zn128  1  0.18956607  0.18865588  0.18827648  1
  Zn  Zn129  1  0.18599629  0.18686992  0.68921624  1
  Zn  Zn130  1  0.18772809  0.68652954  0.18694730  1
  Zn  Zn131  1  0.18465022  0.68821895  0.68792939  1
  Zn  Zn132  1  0.68651781  0.18714586  0.18897961  1
  Zn  Zn133  1  0.68602584  0.18599575  0.68817994  1
  Zn  Zn134  1  0.68832152  0.68659221  0.18777016  1
  Zn  Zn135  1  0.68782447  0.68714402  0.68553334  1
  Zn  Zn136  1  0.31342338  0.31340615  0.31225552  1
  Zn  Zn137  1  0.31195282  0.31293362  0.81341699  1
  Zn  Zn138  1  0.31327363  0.80994742  0.31452841  1
  Zn  Zn139  1  0.31144379  0.81199566  0.80936217  1
  Zn  Zn140  1  0.81197081  0.31242967  0.31298938  1
  Zn  Zn141  1  0.81130100  0.31428037  0.81148097  1
  Zn  Zn142  1  0.81501250  0.81160408  0.31197364  1
  Zn  Zn143  1  0.81389554  0.81426537  0.81431943  1
  Zn  Zn144  1  0.18826305  0.43838760  0.43513016  1
  Zn  Zn145  1  0.18678615  0.43823325  0.93686145  1
  Zn  Zn146  1  0.18766599  0.93680404  0.43966452  1
  Zn  Zn147  1  0.18698885  0.93953973  0.93847215  1
  Zn  Zn148  1  0.68542363  0.43648762  0.43702590  1
  Zn  Zn149  1  0.68865800  0.43403061  0.93893010  1
  Zn  Zn150  1  0.68736803  0.93648899  0.43637668  1
  Zn  Zn151  1  0.68727569  0.93749544  0.93824523  1
  Zn  Zn152  1  0.31343351  0.06264046  0.06204141  1
  Zn  Zn153  1  0.31381497  0.06151418  0.56078402  1
  Zn  Zn154  1  0.31225369  0.56124741  0.06146429  1
  Zn  Zn155  1  0.31260435  0.56165960  0.56488933  1
  Zn  Zn156  1  0.81083708  0.06741700  0.06017884  1
  Zn  Zn157  1  0.81308501  0.06129084  0.56429948  1
  Zn  Zn158  1  0.81255807  0.56294260  0.06371363  1
  Zn  Zn159  1  0.81266486  0.56249792  0.56263040  1
  Zn  Zn160  1  0.43738120  0.43740189  0.18542684  1
  Zn  Zn161  1  0.43548957  0.43916294  0.68673945  1
  Zn  Zn162  1  0.43808125  0.93746757  0.18784279  1
  Zn  Zn163  1  0.43792222  0.93755118  0.68659182  1
  Zn  Zn164  1  0.93851010  0.43638128  0.18881328  1
  Zn  Zn165  1  0.93510939  0.43770059  0.68713112  1
  Zn  Zn166  1  0.93817101  0.93619312  0.18784065  1
  Zn  Zn167  1  0.93421325  0.93781379  0.68868982  1
  Zn  Zn168  1  0.06448242  0.06236861  0.31324550  1
  Zn  Zn169  1  0.06344979  0.06290003  0.81137792  1
  Zn  Zn170  1  0.06408030  0.56220002  0.31206574  1
  Zn  Zn171  1  0.06138570  0.56309934  0.81234356  1
  Zn  Zn172  1  0.56414338  0.06275474  0.31284189  1
  Zn  Zn173  1  0.56162893  0.06383551  0.81206460  1
  Zn  Zn174  1  0.56256789  0.56119055  0.31298469  1
  Zn  Zn175  1  0.56161682  0.56335683  0.81092298  1
  Zn  Zn176  1  0.43770678  0.18820506  0.43649617  1
  Zn  Zn177  1  0.43817178  0.18878612  0.93784083  1
  Zn  Zn178  1  0.43781902  0.68632732  0.43615662  1
  Zn  Zn179  1  0.43581822  0.68672390  0.93531028  1
  Zn  Zn180  1  0.93776489  0.18676914  0.44005576  1
  Zn  Zn181  1  0.93999496  0.18743956  0.94029459  1
  Zn  Zn182  1  0.93781719  0.68742223  0.43653480  1
  Zn  Zn183  1  0.93621441  0.68830311  0.93822494  1
  Zn  Zn184  1  0.06202087  0.31341941  0.06238541  1
  Zn  Zn185  1  0.06223027  0.31082582  0.56160357  1
  Zn  Zn186  1  0.06237371  0.81397291  0.06181845  1
  Zn  Zn187  1  0.06117717  0.81009209  0.56334156  1
  Zn  Zn188  1  0.55844881  0.31370609  0.06314488  1
  Zn  Zn189  1  0.56359644  0.31293912  0.56145279  1
  Zn  Zn190  1  0.56365843  0.81338598  0.06230669  1
  Zn  Zn191  1  0.56643095  0.81358769  0.56207651  1
  O  O192  1  0.11952608  0.11759136  0.12695454  1
  O  O193  1  0.11614326  0.11588517  0.62486444  1
  O  O194  1  0.11920617  0.62032476  0.11768686  1
  O  O195  1  0.11830646  0.61832088  0.61770017  1
  O  O196  1  0.61731441  0.11771001  0.12580575  1
  O  O197  1  0.61733700  0.12275885  0.61856253  1
  O  O198  1  0.61989505  0.61997703  0.11878074  1
  O  O199  1  0.61777820  0.61853702  0.62302452  1
  O  O200  1  0.38108907  0.37758382  0.38265823  1
  O  O201  1  0.38051732  0.37742201  0.88216035  1
  O  O202  1  0.38307729  0.88106907  0.37561762  1
  O  O203  1  0.37974883  0.87910639  0.87913479  1
  O  O204  1  0.88139140  0.37926131  0.38099599  1
  O  O205  1  0.88131401  0.38243894  0.87535178  1
  O  O206  1  0.88228003  0.88089164  0.37939585  1
  O  O207  1  0.88324714  0.88643668  0.87851422  1
  O  O208  1  0.25591548  0.00377564  0.37089635  1
  O  O209  1  0.25586561  0.00822484  0.87292916  1
  O  O210  1  0.25185892  0.50325178  0.36229758  1
  O  O211  1  0.24754908  0.50796213  0.86769459  1
  O  O212  1  0.75721340  0.00421478  0.36912989  1
  O  O213  1  0.75843275  -0.00009033  0.86933156  1
  O  O214  1  0.75478722  0.50669662  0.37095912  1
  O  O215  1  0.75350754  0.50596942  0.86963654  1
  O  O216  1  0.24354059  0.50033929  0.13282295  1
  O  O217  1  0.24250665  0.49278571  0.63043882  1
  O  O218  1  0.24635072  0.99426195  0.13112049  1
  O  O219  1  0.24236707  0.99285457  0.62421362  1
  O  O220  1  0.74315539  0.49994937  0.13190707  1
  O  O221  1  0.74263394  0.49994870  0.63115820  1
  O  O222  1  0.74585258  0.99567727  0.13041042  1
  O  O223  1  0.74981419  0.99863630  0.63889379  1
  O  O224  1  0.00226991  0.36777294  0.25845624  1
  O  O225  1  0.00480603  0.37021315  0.75508897  1
  O  O226  1  0.00678987  0.87027804  0.25507191  1
  O  O227  1  -0.00006613  0.87561525  0.76396634  1
  O  O228  1  0.50376778  0.37058139  0.25461198  1
  O  O229  1  0.50387066  0.37028861  0.75329392  1
  O  O230  1  0.50571249  0.86965843  0.25386981  1
  O  O231  1  0.50583578  0.86991850  0.75566559  1
  O  O232  1  0.49500683  0.12902927  0.24601569  1
  O  O233  1  0.49400848  0.13096495  0.74333908  1
  O  O234  1  0.49610833  0.62969708  0.24297567  1
  O  O235  1  0.49862584  0.63280691  0.74266748  1
  O  O236  1  0.99496812  0.12944319  0.24646537  1
  O  O237  1  0.99958677  0.13050285  0.74153270  1
  O  O238  1  1.00021458  0.63119682  0.24290106  1
  O  O239  1  0.99237948  0.62422916  0.74391046  1
  O  O240  1  0.37477491  0.26256094  -0.00031789  1
  O  O241  1  0.36930046  0.25561974  0.50566665  1
  O  O242  1  0.36948235  0.75573712  0.00432549  1
  O  O243  1  0.37485287  0.75122703  0.51307922  1
  O  O244  1  0.87622565  0.24981494  0.01375917  1
  O  O245  1  0.86624212  0.25448067  0.50177065  1
  O  O246  1  0.86740034  0.75204142  0.00666353  1
  O  O247  1  0.86623614  0.75526109  0.49899004  1
  O  O248  1  0.13244099  0.24800703  0.49385110  1
  O  O249  1  0.12688210  0.24813034  0.99142771  1
  O  O250  1  0.12552365  0.73682212  0.50054567  1
  O  O251  1  0.13081480  0.74564011  0.99494083  1
  O  O252  1  0.63468718  0.24374529  0.49834342  1
  O  O253  1  0.62078818  0.25183607  0.98698487  1
  O  O254  1  0.63812062  0.74799333  0.49586827  1
  O  O255  1  0.63004938  0.74431559  0.99479985  1
  O  O256  1  0.49717203  0.24253070  0.13229127  1
  O  O257  1  0.49377241  0.24449958  0.62874156  1
  O  O258  1  0.49520970  0.74528130  0.12898066  1
  O  O259  1  0.49361325  0.74678534  0.62877585  1
  O  O260  1  0.99357521  0.24448399  0.13220178  1
  O  O261  1  1.00070592  0.23996394  0.63031751  1
  O  O262  1  0.99589196  0.74587090  0.12910169  1
  O  O263  1  0.99588918  0.74133338  0.62814889  1
  O  O264  1  0.00517557  0.25364804  0.37186867  1
  O  O265  1  0.00517442  0.25492536  0.87008181  1
  O  O266  1  0.00233273  0.75656230  0.36817460  1
  O  O267  1  0.00439059  0.76116713  0.87768914  1
  O  O268  1  0.50129193  0.25712707  0.36861107  1
  O  O269  1  0.50589192  0.25653467  0.86724606  1
  O  O270  1  0.50210596  0.75576938  0.36731837  1
  O  O271  1  0.50538972  0.75526182  0.86964169  1
  O  O272  1  0.24968850  0.13180441  0.49388823  1
  O  O273  1  0.25061814  0.12638252  0.98698683  1
  O  O274  1  0.23773972  0.62283742  0.50125729  1
  O  O275  1  0.24363824  0.63117703  0.99440839  1
  O  O276  1  0.74713156  0.13050477  0.49610395  1
  O  O277  1  0.74296259  0.13208552  0.99565742  1
  O  O278  1  0.75104893  0.63254045  0.48995431  1
  O  O279  1  0.74371449  0.63031014  0.99472257  1
  O  O280  1  0.26082094  0.37557504  -0.00076901  1
  O  O281  1  0.25465582  0.37006845  0.50578099  1
  O  O282  1  0.25562481  0.87019892  0.00515469  1
  O  O283  1  0.25224921  0.87259995  0.51301813  1
  O  O284  1  0.75409271  0.36890516  0.00547706  1
  O  O285  1  0.75491137  0.36502280  0.49914885  1
  O  O286  1  0.75043457  0.86820330  0.00718182  1
  O  O287  1  0.75631395  0.86585258  0.49763310  1
  O  O288  1  0.13469056  0.50040629  0.24339231  1
  O  O289  1  0.12808060  0.49364441  0.74402754  1
  O  O290  1  0.13174391  0.99351256  0.24546782  1
  O  O291  1  0.12660790  0.99701972  0.73702115  1
  O  O292  1  0.62947793  0.49460822  0.24403726  1
  O  O293  1  0.62923873  0.49561888  0.74460090  1
  O  O294  1  0.63166719  0.99439612  0.24405917  1
  O  O295  1  0.63399705  0.99432731  0.75299192  1
  O  O296  1  0.37018026  0.00451217  0.25604708  1
  O  O297  1  0.37472095  0.00680412  0.75605483  1
  O  O298  1  0.36698442  0.50665485  0.24750117  1
  O  O299  1  0.36449776  0.50216651  0.75108265  1
  O  O300  1  0.87074681  0.00487105  0.25547416  1
  O  O301  1  0.86661798  0.00127828  0.76067774  1
  O  O302  1  0.86861262  0.50060204  0.25698971  1
  O  O303  1  0.86839716  0.50560652  0.75650973  1
  O  O304  1  0.11879037  0.36780823  0.37405695  1
  O  O305  1  0.11828507  0.37009656  0.86913154  1
  O  O306  1  0.11917790  0.87499610  0.36898807  1
  O  O307  1  0.11626933  0.87194198  0.87475323  1
  O  O308  1  0.61685784  0.37357787  0.36771257  1
  O  O309  1  0.61779390  0.36883347  0.86805686  1
  O  O310  1  0.61925105  0.87395122  0.36594685  1
  O  O311  1  0.61868684  0.86886323  0.87078598  1
  O  O312  1  0.38190173  0.12329287  0.13264838  1
  O  O313  1  0.37973843  0.13078919  0.62934998  1
  O  O314  1  0.38152231  0.63128383  0.12788165  1
  O  O315  1  0.38037284  0.63480951  0.62696099  1
  O  O316  1  0.88153157  0.13173910  0.13214055  1
  O  O317  1  0.88843485  0.12421489  0.62799876  1
  O  O318  1  0.88219142  0.63217306  0.12648501  1
  O  O319  1  0.88069915  0.62441531  0.63207071  1
  O  O320  1  0.25442086  0.25301464  0.12136709  1
  O  O321  1  0.25408299  0.25473282  0.62041406  1
  O  O322  1  0.25580939  0.75552503  0.11840963  1
  O  O323  1  0.25799825  0.75705240  0.62496261  1
  O  O324  1  0.76286358  0.24955962  0.12847798  1
  O  O325  1  0.75168987  0.24939037  0.61334597  1
  O  O326  1  0.75498675  0.75504422  0.12076019  1
  O  O327  1  0.75297510  0.75018816  0.61236326  1
  O  O328  1  0.24605173  0.24451588  0.37994104  1
  O  O329  1  0.24403082  0.24045252  0.87456495  1
  O  O330  1  0.24655529  0.74569150  0.38010853  1
  O  O331  1  0.24363864  0.74683639  0.87981401  1
  O  O332  1  0.75032790  0.24267520  0.38597237  1
  O  O333  1  0.73624479  0.25057901  0.87317404  1
  O  O334  1  0.75131273  0.74092662  0.38126039  1
  O  O335  1  0.74445857  0.74489613  0.88116735  1
  O  O336  1  0.00425850  0.11855400  0.00879573  1
  O  O337  1  0.00164816  0.11778273  0.51021977  1
  O  O338  1  0.00531676  0.62004140  0.00500439  1
  O  O339  1  0.00622136  0.61831665  0.50482683  1
  O  O340  1  0.49988622  0.11772890  0.00666429  1
  O  O341  1  0.50552947  0.12007182  0.50370990  1
  O  O342  1  0.50550975  0.62160412  0.00427116  1
  O  O343  1  0.50186873  0.61865497  0.50606307  1
  O  O344  1  0.49423564  0.37967134  0.49552026  1
  O  O345  1  0.49221740  0.38204933  0.99341739  1
  O  O346  1  0.50134844  0.88111628  0.49258063  1
  O  O347  1  0.49429585  0.87981014  0.99417275  1
  O  O348  1  0.99505223  0.37955875  0.49470602  1
  O  O349  1  0.99699668  0.38252480  0.99277377  1
  O  O350  1  0.99523775  0.87971856  0.49494571  1
  O  O351  1  0.99901782  0.88288808  0.99030223  1
  O  O352  1  0.49789141  0.49371951  0.38165849  1
  O  O353  1  0.49901369  0.49501344  0.88021958  1
  O  O354  1  0.49574812  0.99469134  0.37919783  1
  O  O355  1  0.49421054  0.99432100  0.87957568  1
  O  O356  1  0.99521725  0.49403934  0.38003883  1
  O  O357  1  0.99445059  0.49528256  0.88024752  1
  O  O358  1  0.99562405  0.99450100  0.38062572  1
  O  O359  1  0.99441709  0.99502428  0.87954229  1
  O  O360  1  0.00562861  0.00450841  0.12195957  1
  O  O361  1  0.00678704  0.00542156  0.62209934  1
  O  O362  1  0.00464162  0.50606551  0.12046521  1
  O  O363  1  0.00460864  0.50477418  0.61887170  1
  O  O364  1  0.50526154  0.00399565  0.12011730  1
  O  O365  1  0.50129493  0.00656038  0.61806279  1
  O  O366  1  0.50623106  0.50702009  0.11832503  1
  O  O367  1  0.50455617  0.50548323  0.62001826  1
  O  O368  1  0.25053247  0.38714301  0.24713189  1
  O  O369  1  0.24262403  0.37919015  0.74460261  1
  O  O370  1  0.24662887  0.87988135  0.24432043  1
  O  O371  1  0.24818063  0.87757982  0.73661620  1
  O  O372  1  0.74242052  0.38113508  0.24997726  1
  O  O373  1  0.74204876  0.38309549  0.74763073  1
  O  O374  1  0.74619125  0.88041507  0.24467596  1
  O  O375  1  0.74492783  0.88477402  0.75224973  1
  O  O376  1  0.25610303  0.11779961  0.25691293  1
  O  O377  1  0.25626219  0.12362703  0.75907310  1
  O  O378  1  0.25655376  0.61615290  0.24791778  1
  O  O379  1  0.24806332  0.61862666  0.75517912  1
  O  O380  1  0.75618058  0.11865603  0.25637223  1
  O  O381  1  0.75016182  0.11428324  0.75505981  1
  O  O382  1  0.75162159  0.61831320  0.25906578  1
  O  O383  1  0.75395479  0.61991877  0.75641541  1
  O  O384  1  0.37015962  0.11854823  0.36966717  1
  O  O385  1  0.36877221  0.12065106  0.86916540  1
  O  O386  1  0.37351655  0.62223078  0.36514570  1
  O  O387  1  0.36480680  0.62425970  0.87148614  1
  O  O388  1  0.87123831  0.11848215  0.37050570  1
  O  O389  1  0.87600577  0.11358344  0.87416832  1
  O  O390  1  0.86583817  0.61776424  0.37316168  1
  O  O391  1  0.86868465  0.61949312  0.87071052  1
  O  O392  1  0.12617835  0.38445632  0.12729697  1
  O  O393  1  0.12901019  0.37929612  0.63008928  1
  O  O394  1  0.13153102  0.88042860  0.13068455  1
  O  O395  1  0.13162622  0.88223199  0.62506897  1
  O  O396  1  0.62384157  0.38196287  0.13185760  1
  O  O397  1  0.62574968  0.38189882  0.63141217  1
  O  O398  1  0.63082666  0.88082262  0.13034189  1
  O  O399  1  0.62964609  0.87813219  0.63460423  1
  O  O400  1  0.11903192  0.25096267  0.25789298  1
  O  O401  1  0.11862725  0.25592753  0.75596127  1
  O  O402  1  0.11958090  0.75676048  0.24972263  1
  O  O403  1  0.11962192  0.75303781  0.75869274  1
  O  O404  1  0.61783743  0.25613668  0.25222836  1
  O  O405  1  0.61822199  0.25597951  0.75573114  1
  O  O406  1  0.61894915  0.75638272  0.24951029  1
  O  O407  1  0.62105403  0.75512555  0.75599127  1
  O  O408  1  0.38165023  0.24245016  0.24974891  1
  O  O409  1  0.38004466  0.24536874  0.74380296  1
  O  O410  1  0.38131671  0.74509216  0.24203338  1
  O  O411  1  0.38179116  0.74999347  0.73870266  1
  O  O412  1  0.88130619  0.24373778  0.24496223  1
  O  O413  1  0.88199899  0.24801998  0.74790282  1
  O  O414  1  0.88333020  0.74858771  0.24279813  1
  O  O415  1  0.87611222  0.74175468  0.75054548  1
  O  O416  1  0.38123997  0.49296417  0.50119118  1
  O  O417  1  0.38140640  0.49283654  0.99699023  1
  O  O418  1  0.38356410  0.99821040  0.49296127  1
  O  O419  1  0.38048548  0.99345377  0.99366203  1
  O  O420  1  0.88001246  0.49408523  0.49363948  1
  O  O421  1  0.88115949  0.50061809  0.99352863  1
  O  O422  1  0.87988123  0.99404720  0.49432358  1
  O  O423  1  0.88146217  1.00039467  0.99207556  1
  O  O424  1  0.11994936  0.00262617  0.00857844  1
  O  O425  1  0.11876911  0.00083767  0.51157802  1
  O  O426  1  0.11832819  0.50658042  0.00437542  1
  O  O427  1  0.11888396  0.50575581  0.50539747  1
  O  O428  1  0.61733869  0.00013523  0.00648572  1
  O  O429  1  0.62053807  0.00631752  0.50112784  1
  O  O430  1  0.61955714  0.50570781  0.00432546  1
  O  O431  1  0.61797838  0.50070224  0.50660582  1
  O  O432  1  0.37521954  0.37445029  0.11121295  1
  O  O433  1  0.36825478  0.36859068  0.61990063  1
  O  O434  1  0.37026279  0.86994966  0.11888327  1
  O  O435  1  0.36795179  0.86692536  0.62370797  1
  O  O436  1  0.87508148  0.36253931  0.12622804  1
  O  O437  1  0.87190148  0.37311384  0.61620338  1
  O  O438  1  0.86873342  0.86930775  0.12350335  1
  O  O439  1  0.87200040  0.87344765  0.61649898  1
  O  O440  1  0.13273609  0.13032932  0.37756162  1
  O  O441  1  0.13437594  0.12998250  0.87475979  1
  O  O442  1  0.12523618  0.62470057  0.38780587  1
  O  O443  1  0.12801870  0.63151541  0.88106888  1
  O  O444  1  0.63335815  0.12583904  0.38166556  1
  O  O445  1  0.62163296  0.13851760  0.87563657  1
  O  O446  1  0.63815025  0.62585900  0.37642636  1
  O  O447  1  0.63015453  0.63072529  0.88006180  1
