# generated using pymatgen
data_V3Zn3O8
_symmetry_space_group_name_H-M   'P 1'
_cell_length_a   17.08906452
_cell_length_b   17.08921910
_cell_length_c   17.09031143
_cell_angle_alpha   89.99879428
_cell_angle_beta   89.99697585
_cell_angle_gamma   89.99362517
_symmetry_Int_Tables_number   1
_chemical_formula_structural   V3Zn3O8
_chemical_formula_sum   'V96 Zn96 O256'
_cell_volume   4991.03345072
_cell_formula_units_Z   32
loop_
 _symmetry_equiv_pos_site_id
 _symmetry_equiv_pos_as_xyz
  1  'x, y, z'
loop_
 _atom_site_type_symbol
 _atom_site_label
 _atom_site_symmetry_multiplicity
 _atom_site_fract_x
 _atom_site_fract_y
 _atom_site_fract_z
 _atom_site_occupancy
  V  V0  1  0.62409964  0.25066271  0.87483711  1
  V  V1  1  0.12532703  0.62357946  -0.00034459  1
  V  V2  1  0.87470614  0.49939637  0.87586282  1
  V  V3  1  0.00008025  0.25002171  0.75135227  1
  V  V4  1  -0.00006356  0.12497641  0.12525767  1
  V  V5  1  0.25039953  0.12525397  0.37484584  1
  V  V6  1  0.12529604  0.75108290  0.37515204  1
  V  V7  1  0.00030004  0.62569780  0.12618264  1
  V  V8  1  0.12514501  0.49964607  0.12501146  1
  V  V9  1  0.37341428  0.25144781  0.62389129  1
  V  V10  1  0.74974865  0.12461169  0.87531500  1
  V  V11  1  0.74978471  0.50010271  0.75065080  1
  V  V12  1  0.24976517  0.24907749  0.00089053  1
  V  V13  1  0.49956405  0.62578460  0.62552362  1
  V  V14  1  0.62493268  0.87571351  0.25020027  1
  V  V15  1  0.62530711  0.00031523  0.12552256  1
  V  V16  1  0.49886254  0.62586499  0.12500846  1
  V  V17  1  0.87487278  0.37526241  0.00002051  1
  V  V18  1  0.62481496  0.12592530  0.50147185  1
  V  V19  1  0.74999416  0.87604839  0.62550727  1
  V  V20  1  0.24988015  0.12432352  0.87458742  1
  V  V21  1  -0.00004212  0.12481063  0.62613278  1
  V  V22  1  0.37488819  0.12393088  0.74950064  1
  V  V23  1  0.12572591  -0.00089071  0.12531734  1
  V  V24  1  0.75073101  0.37405289  0.62486644  1
  V  V25  1  0.37407552  0.12447185  0.25016740  1
  V  V26  1  0.24976907  0.87445890  0.12547950  1
  V  V27  1  0.75063412  0.75010900  -0.00015094  1
  V  V28  1  0.49948667  0.12503633  0.12476640  1
  V  V29  1  0.62469579  0.12505947  0.00037256  1
  V  V30  1  0.49970174  0.00064587  0.49996573  1
  V  V31  1  0.12440201  0.74947881  0.87510413  1
  V  V32  1  0.49989068  0.74992209  0.24893249  1
  V  V33  1  0.75045280  0.87420592  0.12456574  1
  V  V34  1  0.37518610  0.87480719  0.50025362  1
  V  V35  1  0.62433011  0.25218702  0.37424979  1
  V  V36  1  0.12472638  0.37522797  0.25037163  1
  V  V37  1  0.87541932  0.87473343  0.00024019  1
  V  V38  1  0.87509091  0.24944222  0.12556636  1
  V  V39  1  0.74919655  0.37578309  0.12597876  1
  V  V40  1  0.24999126  0.37417134  0.12382753  1
  V  V41  1  0.62553105  0.75088744  0.37494632  1
  V  V42  1  0.87503455  0.12444656  0.75047714  1
  V  V43  1  0.87530824  0.00107948  0.37515004  1
  V  V44  1  -0.00076308  0.24974485  0.24965641  1
  V  V45  1  0.50043793  -0.00120286  -0.00050840  1
  V  V46  1  0.12280610  0.62279046  0.50189033  1
  V  V47  1  0.62499084  0.62534254  0.49987650  1
  V  V48  1  0.49870470  0.49854310  -0.00180591  1
  V  V49  1  0.25025462  0.87458431  0.62407459  1
  V  V50  1  0.75009121  0.62561488  0.87602774  1
  V  V51  1  0.87517296  0.87532232  0.50070869  1
  V  V52  1  0.37499628  0.87298911  -0.00011681  1
  V  V53  1  0.49974987  0.87525501  0.37511101  1
  V  V54  1  0.62600704  0.74998853  0.87489307  1
  V  V55  1  0.12541168  -0.00054169  0.62616678  1
  V  V56  1  0.25068141  0.50064621  0.24965344  1
  V  V57  1  0.37504042  0.49980660  0.37440794  1
  V  V58  1  0.74906168  0.50064658  0.24974595  1
  V  V59  1  0.12375055  0.25023235  0.37594838  1
  V  V60  1  0.49952507  0.87432736  0.87441699  1
  V  V61  1  0.24943986  0.49914435  0.74750089  1
  V  V62  1  0.62513580  0.49978557  0.12530812  1
  V  V63  1  0.75051331  0.12497452  0.37481698  1
  V  V64  1  0.12542239  0.87415427  0.75075671  1
  V  V65  1  0.25099378  0.75071955  0.49959947  1
  V  V66  1  0.87341428  0.25066398  0.62520073  1
  V  V67  1  0.87566829  -0.00103839  0.87572341  1
  V  V68  1  -0.00030958  -0.00110531  -0.00007658  1
  V  V69  1  -0.00096869  0.37604158  0.37591362  1
  V  V70  1  0.74985303  -0.00035879  0.74982723  1
  V  V71  1  0.37501970  0.37520937  0.49970488  1
  V  V72  1  0.87562808  0.50005012  0.37622988  1
  V  V73  1  0.87571070  0.74868568  0.62583522  1
  V  V74  1  0.00006232  0.75064586  0.24902517  1
  V  V75  1  0.74967490  0.24979477  0.00099269  1
  V  V76  1  0.75093166  -0.00001410  0.25075728  1
  V  V77  1  0.37434402  0.25007554  0.12404264  1
  V  V78  1  0.62386370  0.37472212  0.75078040  1
  V  V79  1  0.62501671  0.87597939  0.74943664  1
  V  V80  1  0.49964665  0.50018358  0.49892111  1
  V  V81  1  -0.00099799  0.49879455  0.00063519  1
  V  V82  1  0.50016007  0.25053515  0.24963476  1
  V  V83  1  0.49925277  0.74902313  0.74878275  1
  V  V84  1  0.75023750  0.75115828  0.49943394  1
  V  V85  1  0.25192044  0.62241241  0.87406581  1
  V  V86  1  0.49978240  0.25081883  0.75101287  1
  V  V87  1  0.00023370  0.00018958  0.50040894  1
  V  V88  1  0.87583734  0.62548449  0.74931077  1
  V  V89  1  0.12535194  0.12454828  -0.00030353  1
  V  V90  1  0.12521063  0.12605160  0.50071936  1
  V  V91  1  0.25068255  0.62490520  0.37406138  1
  V  V92  1  0.62495337  0.49963871  0.62486568  1
  V  V93  1  0.00126851  0.87544612  0.37481841  1
  V  V94  1  0.12368962  0.37427585  0.74973834  1
  V  V95  1  0.75029448  0.62536542  0.37392576  1
  Zn  Zn96  1  0.24891732  0.25252352  0.50068319  1
  Zn  Zn97  1  -0.00050325  0.62350132  0.62618706  1
  Zn  Zn98  1  0.37431016  0.62597589  0.24988915  1
  Zn  Zn99  1  0.50005634  0.12448576  0.62555429  1
  Zn  Zn100  1  0.87526336  0.37351715  0.50104709  1
  Zn  Zn101  1  -0.00008245  0.74788379  0.74815550  1
  Zn  Zn102  1  0.37317333  0.74907475  0.12683868  1
  Zn  Zn103  1  0.62530984  0.62541288  -0.00078928  1
  Zn  Zn104  1  -0.00062965  0.49868844  0.50259328  1
  Zn  Zn105  1  0.12716710  0.87700666  0.25111817  1
  Zn  Zn106  1  0.12083519  0.49922589  0.62411854  1
  Zn  Zn107  1  0.24740788  0.37660813  0.62257821  1
  Zn  Zn108  1  0.87555990  0.12495148  0.25059898  1
  Zn  Zn109  1  0.12277701  0.24998472  0.87598935  1
  Zn  Zn110  1  0.25028980  -0.00103156  0.25062689  1
  Zn  Zn111  1  0.37643941  0.49666524  0.87314626  1
  Zn  Zn112  1  -0.00052052  0.37301480  0.87594158  1
  Zn  Zn113  1  0.37350402  -0.00013119  0.37345349  1
  Zn  Zn114  1  0.62518198  0.00148057  0.62604369  1
  Zn  Zn115  1  -0.00001838  0.87379377  0.87515520  1
  Zn  Zn116  1  0.37561578  -0.00133612  0.87296360  1
  Zn  Zn117  1  0.37477256  0.74861741  0.62610530  1
  Zn  Zn118  1  0.25115766  0.74727716  0.00124786  1
  Zn  Zn119  1  0.37368860  0.37436092  -0.00321616  1
  Zn  Zn120  1  0.25169596  -0.00110907  0.74984577  1
  Zn  Zn121  1  0.75149972  0.25195836  0.49933354  1
  Zn  Zn122  1  0.37548002  0.62414887  0.74802782  1
  Zn  Zn123  1  0.62354213  0.37593093  0.25039083  1
  Zn  Zn124  1  0.87422079  0.62619520  0.24864043  1
  Zn  Zn125  1  0.49722510  0.37544808  0.87531271  1
  Zn  Zn126  1  0.49961410  0.37653830  0.37285847  1
  Zn  Zn127  1  0.87481885  0.74878076  0.12457755  1
  Zn  Zn128  1  0.18676273  0.18712825  0.18833636  1
  Zn  Zn129  1  0.18786443  0.18908076  0.68806954  1
  Zn  Zn130  1  0.18666517  0.68882428  0.18779272  1
  Zn  Zn131  1  0.18825329  0.68795345  0.68623568  1
  Zn  Zn132  1  0.68801860  0.18705710  0.18901635  1
  Zn  Zn133  1  0.68774631  0.18822976  0.68745116  1
  Zn  Zn134  1  0.68608689  0.68696183  0.18667495  1
  Zn  Zn135  1  0.68800181  0.68792181  0.68786233  1
  Zn  Zn136  1  0.31262741  0.31251705  0.31236843  1
  Zn  Zn137  1  0.31223191  0.31352447  0.81396282  1
  Zn  Zn138  1  0.31501656  0.81183279  0.31211471  1
  Zn  Zn139  1  0.31282140  0.80965986  0.81161873  1
  Zn  Zn140  1  0.81171788  0.31369800  0.31164937  1
  Zn  Zn141  1  0.81194628  0.31293468  0.81257752  1
  Zn  Zn142  1  0.81429858  0.81371547  0.31223160  1
  Zn  Zn143  1  0.81298123  0.81241420  0.81263192  1
  Zn  Zn144  1  0.18914583  0.43739647  0.43748003  1
  Zn  Zn145  1  0.18639817  0.43605889  0.93585641  1
  Zn  Zn146  1  0.18749388  0.93877532  0.43814275  1
  Zn  Zn147  1  0.18918009  0.93862496  0.93809696  1
  Zn  Zn148  1  0.68939241  0.43685195  0.43907729  1
  Zn  Zn149  1  0.68571264  0.43769114  0.93840673  1
  Zn  Zn150  1  0.68728395  0.93869542  0.43755267  1
  Zn  Zn151  1  0.68776890  0.93668658  0.93716723  1
  Zn  Zn152  1  0.31323432  0.06029337  0.06218218  1
  Zn  Zn153  1  0.31144072  0.06197440  0.56211688  1
  Zn  Zn154  1  0.31431013  0.56098113  0.06152069  1
  Zn  Zn155  1  0.31233028  0.56304040  0.56282861  1
  Zn  Zn156  1  0.81338678  0.06212029  0.06319920  1
  Zn  Zn157  1  0.81195875  0.06332583  0.56268310  1
  Zn  Zn158  1  0.81361793  0.56439796  0.06340350  1
  Zn  Zn159  1  0.81175976  0.56262962  0.56248729  1
  Zn  Zn160  1  0.43684197  0.43610359  0.18742642  1
  Zn  Zn161  1  0.43659418  0.43762555  0.68737740  1
  Zn  Zn162  1  0.43585077  0.93869018  0.18783325  1
  Zn  Zn163  1  0.43785256  0.93724472  0.68511312  1
  Zn  Zn164  1  0.93636858  0.43776925  0.18888278  1
  Zn  Zn165  1  0.93895716  0.43888558  0.68620900  1
  Zn  Zn166  1  0.93748294  0.93678142  0.18735667  1
  Zn  Zn167  1  0.93871268  0.93598789  0.68843535  1
  Zn  Zn168  1  0.06406243  0.06229803  0.31065215  1
  Zn  Zn169  1  0.06280375  0.06120625  0.81322518  1
  Zn  Zn170  1  0.06287119  0.56360390  0.31349533  1
  Zn  Zn171  1  0.06081758  0.56105677  0.81221518  1
  Zn  Zn172  1  0.56207548  0.06368184  0.31314488  1
  Zn  Zn173  1  0.56171605  0.06212865  0.81334562  1
  Zn  Zn174  1  0.56243962  0.56287525  0.31168019  1
  Zn  Zn175  1  0.56362508  0.56390035  0.81269126  1
  Zn  Zn176  1  0.43776813  0.18836226  0.43674460  1
  Zn  Zn177  1  0.43682797  0.18819376  0.93702474  1
  Zn  Zn178  1  0.43684004  0.68742125  0.43751213  1
  Zn  Zn179  1  0.43769821  0.68699965  0.93723188  1
  Zn  Zn180  1  0.93708684  0.18842181  0.43889916  1
  Zn  Zn181  1  0.93778615  0.18737272  0.93743899  1
  Zn  Zn182  1  0.93765294  0.68736333  0.43658512  1
  Zn  Zn183  1  0.93777463  0.68688787  0.93755223  1
  Zn  Zn184  1  0.06292238  0.31176904  0.06236473  1
  Zn  Zn185  1  0.05990754  0.31320901  0.56287536  1
  Zn  Zn186  1  0.06365728  0.81224441  0.06138779  1
  Zn  Zn187  1  0.06197460  0.81013721  0.56331947  1
  Zn  Zn188  1  0.56246657  0.31418874  0.06301559  1
  Zn  Zn189  1  0.55987511  0.31336840  0.56319238  1
  Zn  Zn190  1  0.56390597  0.81156520  0.06194683  1
  Zn  Zn191  1  0.56295669  0.81287243  0.56388187  1
  O  O192  1  0.11998753  0.11964618  0.11901168  1
  O  O193  1  0.11977001  0.12001994  0.62142098  1
  O  O194  1  0.12063416  0.61883942  0.11921350  1
  O  O195  1  0.12476120  0.62594419  0.61235456  1
  O  O196  1  0.61970972  0.11992023  0.11967700  1
  O  O197  1  0.62283655  0.12481739  0.61352822  1
  O  O198  1  0.61429486  0.61919639  0.12295582  1
  O  O199  1  0.62124028  0.61924467  0.61902252  1
  O  O200  1  0.37617284  0.38119697  0.38135167  1
  O  O201  1  0.37882704  0.37791848  0.87914544  1
  O  O202  1  0.38214279  0.87752424  0.38194807  1
  O  O203  1  0.37950598  0.87572180  0.88338250  1
  O  O204  1  0.87958136  0.38434560  0.37503521  1
  O  O205  1  0.87430345  0.38154379  0.88241667  1
  O  O206  1  0.88085256  0.88123019  0.38190087  1
  O  O207  1  0.87652727  0.88167917  0.88120508  1
  O  O208  1  0.25046029  0.01297593  0.37402889  1
  O  O209  1  0.25333006  0.01259245  0.87359322  1
  O  O210  1  0.25521599  0.50527864  0.36832778  1
  O  O211  1  0.24784247  0.50873409  0.86637642  1
  O  O212  1  0.75533395  0.00438457  0.37016125  1
  O  O213  1  0.75529993  0.00555324  0.87006449  1
  O  O214  1  0.75609343  0.50516869  0.37013949  1
  O  O215  1  0.75449928  0.50530581  0.87043683  1
  O  O216  1  0.24415942  0.49490357  0.12942430  1
  O  O217  1  0.24583425  0.49964445  0.63665094  1
  O  O218  1  0.24461326  0.99029048  0.12441390  1
  O  O219  1  0.24244042  0.99322390  0.62586189  1
  O  O220  1  0.74538507  0.49599981  0.12956594  1
  O  O221  1  0.74405054  0.49516542  0.63110086  1
  O  O222  1  0.74429393  0.99486082  0.13033175  1
  O  O223  1  0.74939246  0.99392065  0.63190813  1
  O  O224  1  0.00594701  0.36953680  0.25489122  1
  O  O225  1  0.00801133  0.36933294  0.75160896  1
  O  O226  1  0.00199066  0.86650718  0.25568102  1
  O  O227  1  0.01339077  0.87246287  0.75259189  1
  O  O228  1  0.50324629  0.36640063  0.25186013  1
  O  O229  1  0.50708416  0.36911582  0.75092854  1
  O  O230  1  0.50600586  0.87109561  0.25472124  1
  O  O231  1  0.50510399  0.87046322  0.75476730  1
  O  O232  1  0.49495684  0.13000215  0.24383205  1
  O  O233  1  0.49036285  0.13031011  0.74943914  1
  O  O234  1  0.50010704  0.63050769  0.24012965  1
  O  O235  1  0.50035297  0.63080390  0.74333609  1
  O  O236  1  0.99914749  0.13189019  0.24314526  1
  O  O237  1  0.99465134  0.12854092  0.74487936  1
  O  O238  1  1.00136089  0.63553292  0.24547089  1
  O  O239  1  0.99118039  0.62700575  0.74892063  1
  O  O240  1  0.36788937  0.24906799  0.00752530  1
  O  O241  1  0.37609352  0.25489329  0.50929890  1
  O  O242  1  0.37422768  0.76231713  0.00176079  1
  O  O243  1  0.36874259  0.75732750  0.50066066  1
  O  O244  1  0.86881024  0.25461330  0.00566794  1
  O  O245  1  0.87209423  0.25088323  0.50940580  1
  O  O246  1  0.86904311  0.75682277  0.00057401  1
  O  O247  1  0.86898726  0.75608996  0.50370869  1
  O  O248  1  0.12492843  0.24333367  0.49415136  1
  O  O249  1  0.13140984  0.24196332  0.99922012  1
  O  O250  1  0.13090583  0.74338053  0.49416758  1
  O  O251  1  0.12715668  0.74318937  0.99026998  1
  O  O252  1  0.62298978  0.24095582  0.49175669  1
  O  O253  1  0.63025033  0.24408441  0.99578823  1
  O  O254  1  0.63080713  0.74582707  0.49417399  1
  O  O255  1  0.63228444  0.74997377  0.99210160  1
  O  O256  1  0.49531629  0.24347898  0.12889313  1
  O  O257  1  0.48909154  0.24773401  0.63141104  1
  O  O258  1  0.50167032  0.74096884  0.12959677  1
  O  O259  1  0.50078481  0.74360110  0.63100949  1
  O  O260  1  0.99481155  0.24482742  0.12992274  1
  O  O261  1  0.99369049  0.24321451  0.63182207  1
  O  O262  1  1.00184880  0.74527649  0.13397278  1
  O  O263  1  0.99062682  0.74655952  0.62660777  1
  O  O264  1  0.00449355  0.25499567  0.36927603  1
  O  O265  1  0.00168301  0.25125495  0.86729005  1
  O  O266  1  0.00476890  0.75575794  0.36783484  1
  O  O267  1  0.01394245  0.75036525  0.87346578  1
  O  O268  1  0.50959609  0.24979691  0.36879362  1
  O  O269  1  0.50743891  0.25012258  0.86931128  1
  O  O270  1  0.50675341  0.75535225  0.37016034  1
  O  O271  1  0.50600573  0.75499268  0.86953901  1
  O  O272  1  0.24394269  0.12732528  0.49115304  1
  O  O273  1  0.24598821  0.12839166  0.99311652  1
  O  O274  1  0.24260550  0.63050390  0.49380145  1
  O  O275  1  0.24392556  0.62355713  0.99074996  1
  O  O276  1  0.73918765  0.12512784  0.49426676  1
  O  O277  1  0.74427188  0.12979107  0.99540211  1
  O  O278  1  0.74381622  0.63162046  0.49410945  1
  O  O279  1  0.74896392  0.63163497  0.99374265  1
  O  O280  1  0.24836321  0.36773863  0.00664608  1
  O  O281  1  0.25793055  0.37224282  0.50293074  1
  O  O282  1  0.25909598  0.87453390  0.00728193  1
  O  O283  1  0.25484720  0.87048599  0.50407781  1
  O  O284  1  0.75492381  0.36910805  0.00601881  1
  O  O285  1  0.75254966  0.37241172  0.50964655  1
  O  O286  1  0.75519070  0.87047856  0.00524192  1
  O  O287  1  0.75549103  0.87089111  0.50456681  1
  O  O288  1  0.13026557  0.49460841  0.24485038  1
  O  O289  1  0.13227393  0.49164684  0.75008848  1
  O  O290  1  0.12808347  0.99673842  0.24103274  1
  O  O291  1  0.12663668  0.99037605  0.74495247  1
  O  O292  1  0.63127521  0.49856223  0.24394087  1
  O  O293  1  0.63053196  0.49499121  0.74425659  1
  O  O294  1  0.63004895  0.99523378  0.24534557  1
  O  O295  1  0.63138084  0.99457227  0.74914080  1
  O  O296  1  0.37274566  0.00899668  0.25300383  1
  O  O297  1  0.37406370  0.01163260  0.74986571  1
  O  O298  1  0.36799539  0.50150500  0.25571533  1
  O  O299  1  0.36274022  0.50169083  0.75180332  1
  O  O300  1  0.86897434  0.00056363  0.25738986  1
  O  O301  1  0.87019784  0.00485527  0.75551372  1
  O  O302  1  0.86873002  0.50180788  0.26053604  1
  O  O303  1  0.86807704  0.50475364  0.75626923  1
  O  O304  1  0.12002881  0.37004368  0.36921595  1
  O  O305  1  0.12261676  0.37174830  0.86289930  1
  O  O306  1  0.11888365  0.86919733  0.37510879  1
  O  O307  1  0.12795636  0.86657107  0.86810262  1
  O  O308  1  0.62433952  0.36261350  0.37511650  1
  O  O309  1  0.62448681  0.36765000  0.86830334  1
  O  O310  1  0.62015499  0.87019743  0.36983193  1
  O  O311  1  0.61967873  0.86986826  0.86917897  1
  O  O312  1  0.38025036  0.12990349  0.12945669  1
  O  O313  1  0.37477627  0.13293797  0.63330768  1
  O  O314  1  0.38686806  0.62689856  0.12595215  1
  O  O315  1  0.38403825  0.62743738  0.62593727  1
  O  O316  1  0.88168311  0.13146358  0.12595953  1
  O  O317  1  0.88031607  0.12899726  0.63158255  1
  O  O318  1  0.88428362  0.62814409  0.12858964  1
  O  O319  1  0.87228140  0.63184996  0.63140073  1
  O  O320  1  0.25436342  0.25420459  0.12055135  1
  O  O321  1  0.26280129  0.25144300  0.62428038  1
  O  O322  1  0.25102537  0.76007412  0.12157482  1
  O  O323  1  0.25128366  0.75716448  0.61735278  1
  O  O324  1  0.75459583  0.25427878  0.11998660  1
  O  O325  1  0.75593105  0.25616470  0.62524866  1
  O  O326  1  0.75024083  0.75681582  0.11915682  1
  O  O327  1  0.75486308  0.75638076  0.61860003  1
  O  O328  1  0.24290277  0.24043690  0.37557478  1
  O  O329  1  0.24889441  0.23774103  0.88068058  1
  O  O330  1  0.24487265  0.74546743  0.37960249  1
  O  O331  1  0.24023389  0.73989800  0.87529608  1
  O  O332  1  0.74041598  0.24427701  0.37549646  1
  O  O333  1  0.74472549  0.24362859  0.88105098  1
  O  O334  1  0.74517591  0.74644244  0.37983401  1
  O  O335  1  0.74524430  0.74539110  0.88005526  1
  O  O336  1  0.00519208  0.11922214  0.00573375  1
  O  O337  1  0.00552564  0.11927400  0.50649111  1
  O  O338  1  0.00581948  0.61866107  0.00570913  1
  O  O339  1  0.01267402  0.62477326  0.49775001  1
  O  O340  1  0.50529149  0.11937993  0.00504740  1
  O  O341  1  0.50812808  0.11689380  0.49885459  1
  O  O342  1  0.50146441  0.61784874  0.00838087  1
  O  O343  1  0.50682204  0.62024896  0.50469729  1
  O  O344  1  0.49349444  0.38315880  0.49803903  1
  O  O345  1  0.49906536  0.38664444  0.99997066  1
  O  O346  1  0.49699320  0.88236921  0.49515475  1
  O  O347  1  0.49344653  0.87877497  0.99539556  1
  O  O348  1  0.99681022  0.37780758  0.49087281  1
  O  O349  1  0.99307826  0.38083153  1.00022448  1
  O  O350  1  0.99490678  0.88067570  0.49532297  1
  O  O351  1  0.99422024  0.88151215  0.99865381  1
  O  O352  1  0.49415190  0.50018758  0.38128580  1
  O  O353  1  0.50033937  0.50119332  0.88602818  1
  O  O354  1  0.50030596  0.99457175  0.38507748  1
  O  O355  1  0.49890114  0.99234067  0.88192526  1
  O  O356  1  0.99040426  0.49505990  0.37363541  1
  O  O357  1  0.99244194  0.49821050  0.88322227  1
  O  O358  1  0.99588592  0.99569038  0.38090274  1
  O  O359  1  0.99347291  0.99894836  0.88226521  1
  O  O360  1  0.00503454  0.00495950  0.11928067  1
  O  O361  1  0.00506477  0.00518476  0.61994575  1
  O  O362  1  0.00596421  0.50484718  0.12112263  1
  O  O363  1  0.00266415  0.50564171  0.61982548  1
  O  O364  1  0.50643874  0.00531367  0.11963345  1
  O  O365  1  0.50328387  0.00202106  0.61179189  1
  O  O366  1  0.50413673  0.50746690  0.11897362  1
  O  O367  1  0.50628819  0.50538276  0.61932104  1
  O  O368  1  0.24357974  0.38006444  0.24413075  1
  O  O369  1  0.24113981  0.38275855  0.74985978  1
  O  O370  1  0.25025442  0.87601992  0.23808875  1
  O  O371  1  0.24047805  0.87557039  0.74498281  1
  O  O372  1  0.74759207  0.38213487  0.24269338  1
  O  O373  1  0.74356818  0.38081959  0.74515826  1
  O  O374  1  0.74421634  0.88020700  0.24539613  1
  O  O375  1  0.74493862  0.88067809  0.74535636  1
  O  O376  1  0.25477526  0.12511205  0.25932853  1
  O  O377  1  0.25818807  0.12510484  0.75778309  1
  O  O378  1  0.24985727  0.61870311  0.25580726  1
  O  O379  1  0.24740253  0.61628581  0.75802800  1
  O  O380  1  0.75152256  0.11726455  0.25656167  1
  O  O381  1  0.75512646  0.11966484  0.75585395  1
  O  O382  1  0.75057775  0.61975489  0.25663526  1
  O  O383  1  0.75489905  0.61917646  0.75606927  1
  O  O384  1  0.36537754  0.12636613  0.36996034  1
  O  O385  1  0.36743636  0.12478835  0.86581280  1
  O  O386  1  0.36802978  0.61809615  0.37443462  1
  O  O387  1  0.36143513  0.62401990  0.87371352  1
  O  O388  1  0.86893929  0.11846738  0.37491326  1
  O  O389  1  0.86867304  0.11911237  0.87028957  1
  O  O390  1  0.86858999  0.61707537  0.37310482  1
  O  O391  1  0.86898667  0.61919016  0.87027364  1
  O  O392  1  0.12996102  0.38018788  0.13102096  1
  O  O393  1  0.12632346  0.37528612  0.63720739  1
  O  O394  1  0.13564875  0.88022806  0.12302393  1
  O  O395  1  0.12965223  0.87881408  0.63222944  1
  O  O396  1  0.63265912  0.38128428  0.12631890  1
  O  O397  1  0.62970969  0.38019685  0.63076192  1
  O  O398  1  0.63002600  0.88139237  0.13046615  1
  O  O399  1  0.63247560  0.87702202  0.63141760  1
  O  O400  1  0.11880710  0.25588997  0.25537268  1
  O  O401  1  0.11916970  0.25773530  0.75090458  1
  O  O402  1  0.11516297  0.75241387  0.25636447  1
  O  O403  1  0.12555241  0.75756106  0.75794472  1
  O  O404  1  0.61947713  0.24861260  0.25981180  1
  O  O405  1  0.61970569  0.25415702  0.75519944  1
  O  O406  1  0.62017535  0.75680163  0.25584530  1
  O  O407  1  0.62049698  0.75676931  0.75551684  1
  O  O408  1  0.38021296  0.24414257  0.24370810  1
  O  O409  1  0.37895498  0.24255964  0.74314019  1
  O  O410  1  0.38479544  0.74689140  0.24725955  1
  O  O411  1  0.38359962  0.74656958  0.74741511  1
  O  O412  1  0.88131234  0.24895384  0.24329996  1
  O  O413  1  0.87931628  0.24310074  0.74582507  1
  O  O414  1  0.88813062  0.74955017  0.24959474  1
  O  O415  1  0.87507317  0.74401524  0.74423700  1
  O  O416  1  0.37986170  0.49507227  0.49459495  1
  O  O417  1  0.38672857  0.49795834  0.99838331  1
  O  O418  1  0.38501048  0.99560055  0.49825435  1
  O  O419  1  0.38218840  0.98911833  0.99896435  1
  O  O420  1  0.87411518  0.49977277  0.48601664  1
  O  O421  1  0.87944258  0.49442992  0.99578171  1
  O  O422  1  0.88081397  0.99506560  0.49547221  1
  O  O423  1  0.87953415  0.99483692  0.99483595  1
  O  O424  1  0.11946108  0.00536272  0.00500001  1
  O  O425  1  0.11876124  0.00569856  0.50644582  1
  O  O426  1  0.11920242  0.50386657  0.00562973  1
  O  O427  1  0.12546696  0.51166422  0.49928471  1
  O  O428  1  0.62054455  0.00514548  0.00560141  1
  O  O429  1  0.61718091  0.00936571  0.49917925  1
  O  O430  1  0.61596813  0.50254790  0.00649512  1
  O  O431  1  0.62044330  0.50600811  0.50501749  1
  O  O432  1  0.36690547  0.36746951  0.12306077  1
  O  O433  1  0.37382985  0.36575673  0.61975428  1
  O  O434  1  0.36792626  0.87463372  0.11615969  1
  O  O435  1  0.36811540  0.87368252  0.61783478  1
  O  O436  1  0.86917282  0.36965629  0.11955259  1
  O  O437  1  0.86808432  0.36848677  0.62636965  1
  O  O438  1  0.86770689  0.87370764  0.11825420  1
  O  O439  1  0.86964208  0.87004659  0.61973786  1
  O  O440  1  0.13127723  0.13014929  0.38019640  1
  O  O441  1  0.13454365  0.12493663  0.88018701  1
  O  O442  1  0.13124787  0.63096514  0.38223642  1
  O  O443  1  0.13245688  0.63082744  0.87891708  1
  O  O444  1  0.62935696  0.13269389  0.38256370  1
  O  O445  1  0.63061427  0.13013634  0.88088745  1
  O  O446  1  0.63025786  0.63140162  0.38062643  1
  O  O447  1  0.63296988  0.63267795  0.87575564  1
