# generated using pymatgen
data_V3Zn3O8
_symmetry_space_group_name_H-M   'P 1'
_cell_length_a   17.08849978
_cell_length_b   17.08966568
_cell_length_c   17.08891529
_cell_angle_alpha   89.99239253
_cell_angle_beta   90.00579127
_cell_angle_gamma   90.00584345
_symmetry_Int_Tables_number   1
_chemical_formula_structural   V3Zn3O8
_chemical_formula_sum   'V96 Zn96 O256'
_cell_volume   4990.59115650
_cell_formula_units_Z   32
loop_
 _symmetry_equiv_pos_site_id
 _symmetry_equiv_pos_as_xyz
  1  'x, y, z'
loop_
 _atom_site_type_symbol
 _atom_site_label
 _atom_site_symmetry_multiplicity
 _atom_site_fract_x
 _atom_site_fract_y
 _atom_site_fract_z
 _atom_site_occupancy
  V  V0  1  0.75080619  0.12505547  0.87411455  1
  V  V1  1  0.62643088  0.12526047  0.00031498  1
  V  V2  1  0.37531016  0.37565553  0.00076565  1
  V  V3  1  0.25030046  0.62497077  0.37570993  1
  V  V4  1  0.62453476  -0.00001343  0.62551729  1
  V  V5  1  0.75003276  -0.00076506  0.24917343  1
  V  V6  1  0.87390624  0.74951328  0.62451363  1
  V  V7  1  0.62670757  0.12537722  0.49905785  1
  V  V8  1  0.00126239  0.24925419  0.24984542  1
  V  V9  1  0.74966071  0.50045043  0.74982072  1
  V  V10  1  0.37434902  0.00062260  0.37437286  1
  V  V11  1  0.24961953  0.49843047  0.25042441  1
  V  V12  1  0.50073671  0.50032077  0.00067305  1
  V  V13  1  0.37618811  0.25015189  0.12527400  1
  V  V14  1  0.75124450  0.37490222  0.12435157  1
  V  V15  1  0.75050118  0.00132849  0.75019552  1
  V  V16  1  0.50003906  0.25012163  0.24944821  1
  V  V17  1  0.62631828  0.49936495  0.12403152  1
  V  V18  1  0.74983009  0.87405404  0.62564003  1
  V  V19  1  0.00062728  0.37423284  0.37400432  1
  V  V20  1  0.12538824  -0.00062943  0.62566502  1
  V  V21  1  -0.00076662  0.12516356  0.62362892  1
  V  V22  1  0.74901503  0.12530153  0.37504309  1
  V  V23  1  0.75117272  0.24925370  -0.00162393  1
  V  V24  1  0.12469498  0.62480308  0.00048117  1
  V  V25  1  0.87515396  0.12483603  0.74817175  1
  V  V26  1  -0.00031230  0.62385750  0.62395260  1
  V  V27  1  0.24845723  0.87682894  0.62580392  1
  V  V28  1  0.00044616  -0.00104997  -0.00081492  1
  V  V29  1  0.75053367  0.37427601  0.62260737  1
  V  V30  1  0.00006028  0.12383470  0.12431705  1
  V  V31  1  0.24965121  0.62637514  0.87644323  1
  V  V32  1  0.00046914  0.50020606  -0.00018815  1
  V  V33  1  0.37619912  0.62499221  0.25057301  1
  V  V34  1  0.50032584  0.62482204  0.62516746  1
  V  V35  1  0.87588459  0.49780997  0.37476147  1
  V  V36  1  0.87549941  0.87512575  -0.00039124  1
  V  V37  1  0.62441750  0.00030303  0.12447899  1
  V  V38  1  0.25159780  0.25148290  0.49984975  1
  V  V39  1  0.24972339  0.24989367  -0.00065149  1
  V  V40  1  0.87533519  0.74910943  0.12528339  1
  V  V41  1  0.87361668  0.62477409  0.74984050  1
  V  V42  1  0.62582931  0.37381339  0.25016067  1
  V  V43  1  -0.00006746  0.24956783  0.74779659  1
  V  V44  1  0.37659062  0.49852647  0.37826517  1
  V  V45  1  0.49845831  0.25057309  0.74979052  1
  V  V46  1  0.24865863  0.50040211  0.75022758  1
  V  V47  1  0.12532874  0.37578244  0.74908354  1
  V  V48  1  0.50133551  0.87390881  0.37492966  1
  V  V49  1  0.25090402  0.87386903  0.12529961  1
  V  V50  1  0.49853924  0.87772437  0.87694008  1
  V  V51  1  0.50133333  0.37619013  0.87479611  1
  V  V52  1  0.62458570  0.37764576  0.74956785  1
  V  V53  1  0.12579292  0.24962335  0.87482426  1
  V  V54  1  0.12494663  0.50011966  0.62521823  1
  V  V55  1  0.50089131  0.62574078  0.12682636  1
  V  V56  1  0.12536847  0.87371272  0.25056340  1
  V  V57  1  0.12537159  0.37366966  0.24903368  1
  V  V58  1  0.25032357  0.37540442  0.12569367  1
  V  V59  1  0.12377844  0.75069796  0.87457320  1
  V  V60  1  0.25112121  0.00003387  0.25107226  1
  V  V61  1  0.37349517  0.62745507  0.75233025  1
  V  V62  1  0.12497117  0.12496728  0.49629612  1
  V  V63  1  0.62425427  0.87351265  0.25185105  1
  V  V64  1  0.37276845  0.75248602  0.62676886  1
  V  V65  1  0.00017055  0.37488081  0.87377751  1
  V  V66  1  0.00068242  0.74866652  0.24974030  1
  V  V67  1  0.00094573  0.49814882  0.49931270  1
  V  V68  1  0.62426197  0.87628093  0.75100691  1
  V  V69  1  0.49848682  0.75259424  0.75201329  1
  V  V70  1  0.74900111  0.74981304  -0.00045221  1
  V  V71  1  0.37507536  0.50153947  0.87612276  1
  V  V72  1  0.50074659  0.37444040  0.37780365  1
  V  V73  1  0.37597957  0.87770649  0.00043487  1
  V  V74  1  0.49977705  0.00035488  0.50071644  1
  V  V75  1  0.25051744  0.75046301  0.00126922  1
  V  V76  1  0.49863615  0.12700229  0.62645548  1
  V  V77  1  0.87518047  0.12318035  0.24952489  1
  V  V78  1  0.75205554  0.49881685  0.25004004  1
  V  V79  1  -0.00027776  0.75088914  0.74977253  1
  V  V80  1  0.87592203  0.24880947  0.12389676  1
  V  V81  1  0.12592662  0.12542075  -0.00097893  1
  V  V82  1  0.62510094  0.75080915  0.87718965  1
  V  V83  1  -0.00007462  0.62457735  0.12436185  1
  V  V84  1  -0.00017975  0.87452519  0.87460828  1
  V  V85  1  0.50107116  0.12628859  0.12495736  1
  V  V86  1  0.87479221  -0.00211601  0.37435400  1
  V  V87  1  0.12472223  0.74907615  0.37466662  1
  V  V88  1  0.24832678  0.75037756  0.49993441  1
  V  V89  1  0.74951914  0.87420060  0.12512703  1
  V  V90  1  0.37504684  0.87641328  0.50059509  1
  V  V91  1  0.87440156  0.87353932  0.49849559  1
  V  V92  1  0.87590686  0.37451266  -0.00117577  1
  V  V93  1  0.87439800  0.50044839  0.87359736  1
  V  V94  1  0.74859372  0.62458579  0.37673471  1
  V  V95  1  0.12550636  -0.00075863  0.12533619  1
  Zn  Zn96  1  0.25213795  0.12601851  0.37245125  1
  Zn  Zn97  1  -0.00063213  -0.00032666  0.49715529  1
  Zn  Zn98  1  0.37518369  0.37353330  0.50376794  1
  Zn  Zn99  1  0.62393598  0.74837325  0.37698559  1
  Zn  Zn100  1  0.12522967  0.50005255  0.12461620  1
  Zn  Zn101  1  0.37466634  0.12505108  0.25035337  1
  Zn  Zn102  1  0.87556268  0.37101864  0.49963205  1
  Zn  Zn103  1  0.62658899  0.62495665  -0.00079383  1
  Zn  Zn104  1  0.87572626  0.62442597  0.24978500  1
  Zn  Zn105  1  0.62631897  0.24990650  0.37587577  1
  Zn  Zn106  1  0.74754206  0.62486257  0.87571670  1
  Zn  Zn107  1  0.37637939  0.75058422  0.12819745  1
  Zn  Zn108  1  0.37342602  0.25205242  0.62515325  1
  Zn  Zn109  1  0.49992956  0.49911690  0.50476853  1
  Zn  Zn110  1  0.37180039  0.12474345  0.75191135  1
  Zn  Zn111  1  0.62462160  0.50253807  0.62347768  1
  Zn  Zn112  1  0.74685992  0.74659276  0.50095630  1
  Zn  Zn113  1  0.37321604  0.00424710  0.87286885  1
  Zn  Zn114  1  0.25210875  0.12360659  0.87197020  1
  Zn  Zn115  1  -0.00038582  0.87345382  0.37453522  1
  Zn  Zn116  1  0.12461799  0.62468999  0.49994116  1
  Zn  Zn117  1  0.87631793  -0.00055806  0.87391622  1
  Zn  Zn118  1  0.12536371  0.87670740  0.75070686  1
  Zn  Zn119  1  0.75105637  0.25094786  0.49812370  1
  Zn  Zn120  1  0.62236756  0.62569196  0.49986363  1
  Zn  Zn121  1  0.25250131  0.37631355  0.62428518  1
  Zn  Zn122  1  0.87464818  0.24910475  0.62148373  1
  Zn  Zn123  1  0.49873401  0.00353393  -0.00100697  1
  Zn  Zn124  1  0.62588133  0.25055270  0.87471636  1
  Zn  Zn125  1  0.50116367  0.74890855  0.25282891  1
  Zn  Zn126  1  0.12621928  0.24862682  0.37311204  1
  Zn  Zn127  1  0.25200157  0.00329889  0.75202552  1
  Zn  Zn128  1  0.18884450  0.18651209  0.18644679  1
  Zn  Zn129  1  0.18798157  0.18728809  0.68559598  1
  Zn  Zn130  1  0.18800796  0.68620508  0.18774265  1
  Zn  Zn131  1  0.18561130  0.68791360  0.68767242  1
  Zn  Zn132  1  0.68747882  0.18825610  0.18794056  1
  Zn  Zn133  1  0.68582240  0.18971688  0.68721123  1
  Zn  Zn134  1  0.68705799  0.68718435  0.19082995  1
  Zn  Zn135  1  0.68678171  0.68922014  0.69076530  1
  Zn  Zn136  1  0.31266332  0.31066676  0.31396341  1
  Zn  Zn137  1  0.31244164  0.31367717  0.81386118  1
  Zn  Zn138  1  0.31408900  0.81180599  0.31271753  1
  Zn  Zn139  1  0.31004152  0.81740665  0.81314747  1
  Zn  Zn140  1  0.81393367  0.31032477  0.31293974  1
  Zn  Zn141  1  0.81283546  0.31141398  0.80948671  1
  Zn  Zn142  1  0.81168672  0.80917363  0.31199036  1
  Zn  Zn143  1  0.81233675  0.81256470  0.81318552  1
  Zn  Zn144  1  0.18527173  0.43599127  0.43738102  1
  Zn  Zn145  1  0.18720765  0.43744113  0.93724003  1
  Zn  Zn146  1  0.18795060  0.93715527  0.43681510  1
  Zn  Zn147  1  0.18843354  0.93845795  0.93602526  1
  Zn  Zn148  1  0.68351028  0.44311309  0.44166347  1
  Zn  Zn149  1  0.68756196  0.43785854  0.93667752  1
  Zn  Zn150  1  0.68799158  0.93798785  0.43778282  1
  Zn  Zn151  1  0.68785086  0.93908027  0.93710898  1
  Zn  Zn152  1  0.31225194  0.06372980  0.06333590  1
  Zn  Zn153  1  0.31221696  0.06579689  0.56406418  1
  Zn  Zn154  1  0.31312717  0.56253429  0.06390553  1
  Zn  Zn155  1  0.31241290  0.56456442  0.56352610  1
  Zn  Zn156  1  0.81232132  0.06108805  0.06124847  1
  Zn  Zn157  1  0.81229974  0.06089809  0.56177241  1
  Zn  Zn158  1  0.81300538  0.56393120  0.06083496  1
  Zn  Zn159  1  0.81401058  0.55833660  0.56068082  1
  Zn  Zn160  1  0.43789213  0.43781042  0.18979033  1
  Zn  Zn161  1  0.43415044  0.43704313  0.68832924  1
  Zn  Zn162  1  0.43877047  0.93876086  0.18763704  1
  Zn  Zn163  1  0.43570676  0.94052837  0.68923141  1
  Zn  Zn164  1  0.93813011  0.43765651  0.18740482  1
  Zn  Zn165  1  0.93626651  0.43709937  0.68604658  1
  Zn  Zn166  1  0.93844619  0.93515148  0.18720722  1
  Zn  Zn167  1  0.93841215  0.93861992  0.68604128  1
  Zn  Zn168  1  0.06098734  0.05952954  0.31309329  1
  Zn  Zn169  1  0.06289731  0.06336995  0.81217522  1
  Zn  Zn170  1  0.06368642  0.56197251  0.31173562  1
  Zn  Zn171  1  0.06133014  0.56408554  0.81217445  1
  Zn  Zn172  1  0.56181424  0.06158293  0.31226052  1
  Zn  Zn173  1  0.56184816  0.06310903  0.81495529  1
  Zn  Zn174  1  0.56501872  0.55977378  0.31141025  1
  Zn  Zn175  1  0.56339749  0.56444919  0.81167579  1
  Zn  Zn176  1  0.43710048  0.18665731  0.43738099  1
  Zn  Zn177  1  0.43787744  0.18799907  0.93621840  1
  Zn  Zn178  1  0.43593326  0.69018240  0.43910999  1
  Zn  Zn179  1  0.43819688  0.68993728  0.94072867  1
  Zn  Zn180  1  0.93580939  0.18895474  0.43756142  1
  Zn  Zn181  1  0.93838070  0.18604416  0.93447022  1
  Zn  Zn182  1  0.93603635  0.68554275  0.43689755  1
  Zn  Zn183  1  0.93568797  0.68709138  0.93703189  1
  Zn  Zn184  1  0.06350113  0.31256320  0.06313583  1
  Zn  Zn185  1  0.06464368  0.31188233  0.56188790  1
  Zn  Zn186  1  0.06291331  0.81174558  0.06255287  1
  Zn  Zn187  1  0.06109590  0.81188844  0.56158494  1
  Zn  Zn188  1  0.56410678  0.31186711  0.06150973  1
  Zn  Zn189  1  0.56658655  0.31109336  0.56263222  1
  Zn  Zn190  1  0.56266478  0.81215672  0.06341544  1
  Zn  Zn191  1  0.56343554  0.80921639  0.56088298  1
  O  O192  1  0.11864113  0.11891323  0.11922614  1
  O  O193  1  0.11957786  0.11728530  0.61502105  1
  O  O194  1  0.11879182  0.62321919  0.11767543  1
  O  O195  1  0.11714177  0.61835848  0.62471124  1
  O  O196  1  0.62155148  0.12016224  0.12005762  1
  O  O197  1  0.61926186  0.11893239  0.61943958  1
  O  O198  1  0.61629821  0.61750392  0.12552706  1
  O  O199  1  0.60982998  0.62739509  0.63007564  1
  O  O200  1  0.38385114  0.38402587  0.37435502  1
  O  O201  1  0.38101169  0.38253107  0.88159828  1
  O  O202  1  0.38051397  0.88068579  0.38190738  1
  O  O203  1  0.38032193  0.87401503  0.88630512  1
  O  O204  1  0.88280436  0.38071104  0.37418203  1
  O  O205  1  0.88101893  0.37983990  0.87921256  1
  O  O206  1  0.87256800  0.87867494  0.38354758  1
  O  O207  1  0.88185658  0.87616100  0.88202083  1
  O  O208  1  0.25716298  -0.00020412  0.36867880  1
  O  O209  1  0.25160117  0.00365482  0.87163248  1
  O  O210  1  0.25878454  0.50378922  0.37061851  1
  O  O211  1  0.25521788  0.50695395  0.87090327  1
  O  O212  1  0.75544309  0.00505610  0.36757631  1
  O  O213  1  0.75242044  0.00649499  0.86752179  1
  O  O214  1  0.75548818  0.50466022  0.36944723  1
  O  O215  1  0.75744168  0.50053447  0.86850130  1
  O  O216  1  0.25032783  0.49307505  0.13220584  1
  O  O217  1  0.24358168  0.50190131  0.63293727  1
  O  O218  1  0.24400534  0.99340321  0.13030879  1
  O  O219  1  0.23938239  0.99465398  0.62225839  1
  O  O220  1  0.74687692  0.49360940  0.12864872  1
  O  O221  1  0.74933992  0.49150630  0.63237833  1
  O  O222  1  0.74513493  0.99379893  0.13015453  1
  O  O223  1  0.74351984  0.99392473  0.63094283  1
  O  O224  1  0.00556411  0.36861414  0.25290793  1
  O  O225  1  0.00515394  0.37052846  0.75517377  1
  O  O226  1  0.00788571  0.86670055  0.24950286  1
  O  O227  1  0.00102378  0.86832912  0.75553561  1
  O  O228  1  0.50552488  0.37074633  0.25783380  1
  O  O229  1  0.50492675  0.37005829  0.75520186  1
  O  O230  1  0.50685200  0.87488335  0.25648079  1
  O  O231  1  0.50505630  0.87065552  0.75578554  1
  O  O232  1  0.50030081  0.13237878  0.24266959  1
  O  O233  1  0.50371420  0.13615278  0.74393426  1
  O  O234  1  0.49526430  0.62211259  0.24095166  1
  O  O235  1  0.49165706  0.63295343  0.74535702  1
  O  O236  1  0.99479434  0.12841566  0.24331193  1
  O  O237  1  0.99526517  0.13012991  0.74359495  1
  O  O238  1  0.99971016  0.63082785  0.24238817  1
  O  O239  1  0.99318741  0.63058560  0.74417688  1
  O  O240  1  0.37022518  0.25788715  0.00595028  1
  O  O241  1  0.36367521  0.25015550  0.49994273  1
  O  O242  1  0.36882670  0.76020935  0.00338643  1
  O  O243  1  0.36749470  0.75735305  0.50704475  1
  O  O244  1  0.87157756  0.25481642  0.00450110  1
  O  O245  1  0.86935036  0.25318784  0.50368192  1
  O  O246  1  0.86992323  0.75609047  0.00565627  1
  O  O247  1  0.87186692  0.75771293  0.50599994  1
  O  O248  1  0.13251877  0.24002800  0.49792649  1
  O  O249  1  0.12947460  0.24549981  0.99515037  1
  O  O250  1  0.13081263  0.74840358  0.49342512  1
  O  O251  1  0.13032994  0.74422827  0.99415510  1
  O  O252  1  0.62904368  0.23986973  0.49628672  1
  O  O253  1  0.63429556  0.24396258  0.99931023  1
  O  O254  1  0.62952886  0.74362783  0.49608738  1
  O  O255  1  0.63154891  0.75005539  0.99463320  1
  O  O256  1  0.49540054  0.24682739  0.12984610  1
  O  O257  1  0.50150680  0.24451766  0.63387208  1
  O  O258  1  0.49961793  0.73615796  0.12722458  1
  O  O259  1  0.49189029  0.74555982  0.63277260  1
  O  O260  1  0.99458444  0.24354382  0.12919827  1
  O  O261  1  1.00079326  0.24275772  0.63129546  1
  O  O262  1  0.99510615  0.74415414  0.12924520  1
  O  O263  1  0.99385773  0.74414123  0.62987653  1
  O  O264  1  0.00136265  0.25528497  0.36609717  1
  O  O265  1  0.00560435  0.25612240  0.86879335  1
  O  O266  1  0.00607337  0.74978617  0.36798053  1
  O  O267  1  0.00417131  0.75458674  0.86982544  1
  O  O268  1  0.50006126  0.26011452  0.36883716  1
  O  O269  1  0.50306052  0.25852175  0.86687240  1
  O  O270  1  0.50106412  0.75889787  0.37428957  1
  O  O271  1  0.50433267  0.75723547  0.87079994  1
  O  O272  1  0.24028419  0.13258071  0.49898689  1
  O  O273  1  0.24189252  0.13344780  1.00193234  1
  O  O274  1  0.24952737  0.63262980  0.49321583  1
  O  O275  1  0.24565199  0.62982899  0.99524402  1
  O  O276  1  0.74280479  0.12206701  0.49299719  1
  O  O277  1  0.74693885  0.13038092  0.99486562  1
  O  O278  1  0.75037696  0.62283250  0.48827896  1
  O  O279  1  0.74762050  0.63369587  0.99726531  1
  O  O280  1  0.25575975  0.37083622  0.00546787  1
  O  O281  1  0.24976111  0.36377213  0.49981798  1
  O  O282  1  0.25694060  0.86952608  0.00557437  1
  O  O283  1  0.25596254  0.86963786  0.50562949  1
  O  O284  1  0.75686717  0.36962277  0.00470708  1
  O  O285  1  0.74874991  0.37620010  0.51138441  1
  O  O286  1  0.75546366  0.87021878  0.00601950  1
  O  O287  1  0.75955658  0.87429505  0.50675121  1
  O  O288  1  0.13264985  0.49248360  0.24796984  1
  O  O289  1  0.12931675  0.49585616  0.74615157  1
  O  O290  1  0.12984752  0.99352224  0.24411136  1
  O  O291  1  0.12420391  0.99993219  0.73475976  1
  O  O292  1  0.63233363  0.49184910  0.24294980  1
  O  O293  1  0.63136866  0.49471515  0.74838262  1
  O  O294  1  0.63138965  0.99422626  0.24382224  1
  O  O295  1  0.63017599  0.99505958  0.74479998  1
  O  O296  1  0.36840551  -0.00017309  0.25629116  1
  O  O297  1  0.37157619  0.00463723  0.75317750  1
  O  O298  1  0.36992213  0.50392757  0.26043620  1
  O  O299  1  0.36834874  0.50737051  0.75807218  1
  O  O300  1  0.86944562  0.00369310  0.25317980  1
  O  O301  1  0.86827520  0.00631505  0.75009018  1
  O  O302  1  0.86907891  0.49997555  0.25605578  1
  O  O303  1  0.87024669  0.50534799  0.75513549  1
  O  O304  1  0.11796408  0.37296207  0.36588283  1
  O  O305  1  0.11854334  0.37021654  0.86968985  1
  O  O306  1  0.12393039  0.86744036  0.36834478  1
  O  O307  1  0.11745015  0.86734451  0.87460796  1
  O  O308  1  0.61497246  0.37672198  0.36906263  1
  O  O309  1  0.61873496  0.37452222  0.86829008  1
  O  O310  1  0.61907031  0.87667606  0.36883921  1
  O  O311  1  0.61903610  0.87070851  0.87015401  1
  O  O312  1  0.38284458  0.13284058  0.12546778  1
  O  O313  1  0.38692864  0.12925571  0.62640443  1
  O  O314  1  0.38555606  0.62329249  0.13164647  1
  O  O315  1  0.37948083  0.63295404  0.63330988  1
  O  O316  1  0.88037644  0.12900630  0.12956625  1
  O  O317  1  0.88134057  0.12397746  0.63066673  1
  O  O318  1  0.88205427  0.63174805  0.12550304  1
  O  O319  1  0.88007227  0.62941881  0.63018079  1
  O  O320  1  0.25615003  0.25653163  0.11918310  1
  O  O321  1  0.25016581  0.25253666  0.61258397  1
  O  O322  1  0.25154246  0.75577906  0.11886632  1
  O  O323  1  0.25359083  0.75545858  0.62014511  1
  O  O324  1  0.75711746  0.25514101  0.11929829  1
  O  O325  1  0.75018851  0.26258985  0.62515413  1
  O  O326  1  0.75495297  0.75557363  0.12068609  1
  O  O327  1  0.75684496  0.75688400  0.62629404  1
  O  O328  1  0.24678277  0.24616888  0.38388947  1
  O  O329  1  0.24226353  0.25227368  0.88331159  1
  O  O330  1  0.24528704  0.74479755  0.38033183  1
  O  O331  1  0.24416080  0.74514783  0.88100056  1
  O  O332  1  0.74717925  0.24036321  0.37429715  1
  O  O333  1  0.74970539  0.24381636  0.88075577  1
  O  O334  1  0.74982054  0.73595081  0.37535504  1
  O  O335  1  0.74296586  0.75064122  0.88147105  1
  O  O336  1  0.00509963  0.11965075  0.00548055  1
  O  O337  1  0.00954600  0.12455038  0.50447045  1
  O  O338  1  0.00512027  0.61990376  0.00409691  1
  O  O339  1  0.00078261  0.61723178  0.50670233  1
  O  O340  1  0.50865551  0.12657220  0.00745729  1
  O  O341  1  0.50674191  0.11983071  0.50634545  1
  O  O342  1  0.50027398  0.61847905  0.01065212  1
  O  O343  1  0.49501454  0.62685911  0.51554363  1
  O  O344  1  0.49898066  0.37491213  0.48812170  1
  O  O345  1  0.49489353  0.38076300  0.99566219  1
  O  O346  1  0.49445237  0.88143941  0.49665095  1
  O  O347  1  0.49074541  0.87485449  0.99630545  1
  O  O348  1  1.00157836  0.38053067  0.49196421  1
  O  O349  1  0.99499830  0.37931334  0.99400215  1
  O  O350  1  0.98503198  0.87488149  0.49847247  1
  O  O351  1  0.99509320  0.87939021  0.99530633  1
  O  O352  1  0.49097571  0.49146245  0.37305092  1
  O  O353  1  0.49406297  0.49654387  0.88028425  1
  O  O354  1  0.49451870  0.99394277  0.38149550  1
  O  O355  1  0.49857032  0.99153767  0.87972394  1
  O  O356  1  0.99598691  0.49445499  0.37883527  1
  O  O357  1  0.99446578  0.49430692  0.87971696  1
  O  O358  1  0.99057376  0.99415208  0.37666769  1
  O  O359  1  1.00005675  0.99307988  0.88166100  1
  O  O360  1  0.00587065  0.00441110  0.11988158  1
  O  O361  1  0.00892977  0.00580753  0.62048298  1
  O  O362  1  0.00079419  0.50576475  0.11700708  1
  O  O363  1  0.00505505  0.50457896  0.62009984  1
  O  O364  1  0.50748171  0.00773682  0.12298062  1
  O  O365  1  0.50628158  0.00648393  0.62005878  1
  O  O366  1  0.50549884  0.50611138  0.12097135  1
  O  O367  1  0.49673763  0.51393490  0.62807635  1
  O  O368  1  0.24559472  0.37875081  0.24496145  1
  O  O369  1  0.24271828  0.38318471  0.75115550  1
  O  O370  1  0.24470302  0.87934997  0.24470483  1
  O  O371  1  0.24462347  0.87726156  0.73988333  1
  O  O372  1  0.74611480  0.37851938  0.24320482  1
  O  O373  1  0.74471708  0.38047752  0.74322110  1
  O  O374  1  0.74525648  0.88012922  0.24428629  1
  O  O375  1  0.74428656  0.88108025  0.74529515  1
  O  O376  1  0.25218267  0.11570418  0.25075035  1
  O  O377  1  0.25243159  0.12463211  0.75219597  1
  O  O378  1  0.25597494  0.61843841  0.25587373  1
  O  O379  1  0.25439095  0.62139436  0.75737476  1
  O  O380  1  0.75607457  0.11863147  0.25335907  1
  O  O381  1  0.75418726  0.12070278  0.75388556  1
  O  O382  1  0.75232584  0.61646411  0.25790840  1
  O  O383  1  0.75668790  0.61895671  0.75149157  1
  O  O384  1  0.37465120  0.11501158  0.37189821  1
  O  O385  1  0.37192786  0.12348417  0.87317934  1
  O  O386  1  0.37135465  0.61637619  0.37095834  1
  O  O387  1  0.36960812  0.62179038  0.87195292  1
  O  O388  1  0.86976118  0.11784659  0.36799398  1
  O  O389  1  0.86922238  0.12221686  0.86708315  1
  O  O390  1  0.86658904  0.61642764  0.37212623  1
  O  O391  1  0.87398080  0.61805875  0.86741740  1
  O  O392  1  0.13230365  0.37685164  0.13059537  1
  O  O393  1  0.12662777  0.38293170  0.63259680  1
  O  O394  1  0.13094538  0.87980947  0.12991244  1
  O  O395  1  0.12904316  0.88448207  0.62231315  1
  O  O396  1  0.63197353  0.37985149  0.12943402  1
  O  O397  1  0.63298663  0.37852888  0.63182254  1
  O  O398  1  0.63056038  0.88038212  0.13090429  1
  O  O399  1  0.62919448  0.88006468  0.63122240  1
  O  O400  1  0.11867132  0.25494479  0.24936268  1
  O  O401  1  0.11886424  0.25637412  0.75488820  1
  O  O402  1  0.12109406  0.75463674  0.25505723  1
  O  O403  1  0.11691014  0.75051038  0.75708742  1
  O  O404  1  0.61845856  0.25720854  0.25095210  1
  O  O405  1  0.61419567  0.25828162  0.75164414  1
  O  O406  1  0.62274706  0.75901066  0.25412663  1
  O  O407  1  0.61834191  0.75822925  0.75687525  1
  O  O408  1  0.38201971  0.24978988  0.24241876  1
  O  O409  1  0.38979412  0.25298869  0.74954780  1
  O  O410  1  0.37859821  0.74025552  0.24856106  1
  O  O411  1  0.37849584  0.74709584  0.74658809  1
  O  O412  1  0.88108175  0.24261353  0.24252167  1
  O  O413  1  0.88291379  0.24262358  0.74701358  1
  O  O414  1  0.88213931  0.74862595  0.24208992  1
  O  O415  1  0.88027405  0.74516400  0.74419159  1
  O  O416  1  0.37619297  0.49946154  0.48741646  1
  O  O417  1  0.38025459  0.49483665  0.99499247  1
  O  O418  1  0.38048442  0.99515714  0.49590831  1
  O  O419  1  0.37540779  0.98681936  1.00126559  1
  O  O420  1  0.88388172  0.49464348  0.49239875  1
  O  O421  1  0.88062627  0.49343712  0.99382748  1
  O  O422  1  0.87470056  0.98931083  0.49369511  1
  O  O423  1  0.88264187  0.99292888  0.99947285  1
  O  O424  1  0.11931126  0.00477951  0.00692819  1
  O  O425  1  0.12392124  0.00771759  0.50721214  1
  O  O426  1  0.11832926  0.50668438  0.00009959  1
  O  O427  1  0.11923411  0.50232009  0.50662430  1
  O  O428  1  0.62565630  0.00720451  0.00796360  1
  O  O429  1  0.61909732  0.00480663  0.50647693  1
  O  O430  1  0.61869689  0.50061238  0.00661894  1
  O  O431  1  0.61625705  0.50870181  0.50627047  1
  O  O432  1  0.37072231  0.37076499  0.12016080  1
  O  O433  1  0.37074439  0.37188525  0.62080308  1
  O  O434  1  0.36989019  0.87340290  0.11739196  1
  O  O435  1  0.36942413  0.87084661  0.61943603  1
  O  O436  1  0.87096287  0.36857705  0.11842753  1
  O  O437  1  0.86332481  0.37325288  0.62435708  1
  O  O438  1  0.86928380  0.86911015  0.11927860  1
  O  O439  1  0.86973735  0.87032377  0.61755694  1
  O  O440  1  0.12592762  0.12341056  0.38624153  1
  O  O441  1  0.12344495  0.13333311  0.88282496  1
  O  O442  1  0.13322906  0.63108124  0.37560976  1
  O  O443  1  0.13006588  0.63074998  0.88077665  1
  O  O444  1  0.63085116  0.12314145  0.38173717  1
  O  O445  1  0.63299951  0.12706873  0.88220154  1
  O  O446  1  0.63665445  0.62335693  0.37425674  1
  O  O447  1  0.62550773  0.63514996  0.87763534  1
