# generated using pymatgen
data_V3Zn3O8
_symmetry_space_group_name_H-M   'P 1'
_cell_length_a   17.09021717
_cell_length_b   17.09046411
_cell_length_c   17.09054664
_cell_angle_alpha   89.99521204
_cell_angle_beta   89.98142449
_cell_angle_gamma   89.99783224
_symmetry_Int_Tables_number   1
_chemical_formula_structural   V3Zn3O8
_chemical_formula_sum   'V96 Zn96 O256'
_cell_volume   4991.80219094
_cell_formula_units_Z   32
loop_
 _symmetry_equiv_pos_site_id
 _symmetry_equiv_pos_as_xyz
  1  'x, y, z'
loop_
 _atom_site_type_symbol
 _atom_site_label
 _atom_site_symmetry_multiplicity
 _atom_site_fract_x
 _atom_site_fract_y
 _atom_site_fract_z
 _atom_site_occupancy
  V  V0  1  0.87338687  0.87428197  0.49929874  1
  V  V1  1  0.12554625  0.00144875  0.12536277  1
  V  V2  1  0.37607897  -0.00063813  0.37617926  1
  V  V3  1  0.50014316  0.00056714  0.00043360  1
  V  V4  1  0.12384104  0.75096081  0.87470712  1
  V  V5  1  0.87534747  0.37349704  0.50003351  1
  V  V6  1  0.25017054  0.24902402  0.49931419  1
  V  V7  1  0.12626055  0.12652175  -0.00027599  1
  V  V8  1  0.49928312  0.87522508  0.87544024  1
  V  V9  1  0.24990729  0.12515113  0.87471231  1
  V  V10  1  0.12446937  0.49962049  0.62499636  1
  V  V11  1  0.87520572  0.12408101  0.74898604  1
  V  V12  1  0.00097766  0.62666906  0.12586374  1
  V  V13  1  0.37466077  0.87511645  0.49899332  1
  V  V14  1  0.24948848  0.62637236  0.87446739  1
  V  V15  1  0.49762718  0.75020008  0.74936046  1
  V  V16  1  0.37373564  0.00112170  0.87547399  1
  V  V17  1  0.00125495  0.12552585  0.12486462  1
  V  V18  1  -0.00032702  0.24886599  0.74919136  1
  V  V19  1  0.37576147  0.62414440  0.24994750  1
  V  V20  1  0.74939795  0.87439878  0.12461674  1
  V  V21  1  0.74868714  0.74939770  0.49966015  1
  V  V22  1  0.75063653  0.62295177  0.37429121  1
  V  V23  1  0.87460352  0.75138691  0.12297331  1
  V  V24  1  0.12486820  0.74980633  0.37517326  1
  V  V25  1  0.25055197  0.00071396  0.25092609  1
  V  V26  1  0.62399117  0.74922536  0.37445630  1
  V  V27  1  0.74733830  0.87482532  0.62525538  1
  V  V28  1  0.62471881  0.49990221  0.62555564  1
  V  V29  1  0.00037113  0.75052014  0.24919741  1
  V  V30  1  0.00065769  0.00169833  0.50260338  1
  V  V31  1  0.24912251  0.37539644  0.62436039  1
  V  V32  1  0.37367682  0.74935809  0.62485837  1
  V  V33  1  0.12582734  0.25013013  0.87441992  1
  V  V34  1  0.12630345  0.50068446  0.12565597  1
  V  V35  1  0.62442259  0.12327608  0.50246430  1
  V  V36  1  0.50025700  0.12492073  0.12542215  1
  V  V37  1  0.49978018  0.62489031  0.12477536  1
  V  V38  1  0.75016960  -0.00135834  0.24983319  1
  V  V39  1  0.62595601  0.37479051  0.75150473  1
  V  V40  1  0.75130575  0.24971072  0.50077153  1
  V  V41  1  0.62429936  0.87415489  0.25052019  1
  V  V42  1  0.37642074  0.25041241  0.62578929  1
  V  V43  1  0.24884880  0.87551285  0.62542863  1
  V  V44  1  0.62470282  0.25122744  0.87544197  1
  V  V45  1  0.87514191  0.12367972  0.24955081  1
  V  V46  1  0.62868600  0.49886026  0.12558317  1
  V  V47  1  0.37446357  0.49921141  0.87567798  1
  V  V48  1  0.37559743  0.25167890  0.12423641  1
  V  V49  1  0.24866440  0.75019192  0.49928194  1
  V  V50  1  -0.00104637  0.62499049  0.62475651  1
  V  V51  1  0.25087396  0.12613584  0.37699497  1
  V  V52  1  0.50087485  0.49971480  0.50124248  1
  V  V53  1  -0.00066933  0.87484094  0.37472045  1
  V  V54  1  0.62434873  0.62354923  0.50053468  1
  V  V55  1  0.37608786  0.49979784  0.37527183  1
  V  V56  1  0.49923413  0.87397246  0.37506699  1
  V  V57  1  0.62403543  0.74947358  0.87461009  1
  V  V58  1  0.75062692  0.49961925  0.75139214  1
  V  V59  1  0.25076518  0.87573428  0.12461676  1
  V  V60  1  0.87437768  0.50030860  0.37352160  1
  V  V61  1  0.24896274  -0.00064402  0.74888597  1
  V  V62  1  0.12460173  0.62580511  0.49925045  1
  V  V63  1  0.62490473  0.62595386  -0.00084560  1
  V  V64  1  0.37441019  0.87489246  0.00109779  1
  V  V65  1  0.74873144  0.62525005  0.87396216  1
  V  V66  1  -0.00117209  0.49887560  -0.00104247  1
  V  V67  1  0.12553320  0.37467291  0.25118601  1
  V  V68  1  0.87368608  0.74888892  0.62424134  1
  V  V69  1  0.87416355  -0.00068936  0.37373055  1
  V  V70  1  0.12424713  0.37451636  0.74951900  1
  V  V71  1  -0.00028916  0.49901896  0.49926717  1
  V  V72  1  0.50279081  0.37440775  0.37499183  1
  V  V73  1  -0.00203284  0.87581105  0.87544071  1
  V  V74  1  0.12565559  0.62618478  0.00031611  1
  V  V75  1  0.37586773  0.37533997  0.50037098  1
  V  V76  1  -0.00031973  0.00007829  -0.00094878  1
  V  V77  1  0.49947560  0.24978413  0.75010602  1
  V  V78  1  0.24993517  0.75166055  0.00054343  1
  V  V79  1  0.87388919  0.62371415  0.75081548  1
  V  V80  1  0.75147694  0.25085442  0.00111211  1
  V  V81  1  0.12532392  0.87584834  0.24989392  1
  V  V82  1  0.25161712  0.49997453  0.25058464  1
  V  V83  1  0.37704161  0.12547781  0.25067514  1
  V  V84  1  0.75190481  0.37400076  0.62595970  1
  V  V85  1  0.87499233  0.25082947  0.12330750  1
  V  V86  1  0.25200235  0.37477253  0.12492849  1
  V  V87  1  0.62605028  0.25033844  0.37387004  1
  V  V88  1  0.74803917  -0.00007523  0.74988430  1
  V  V89  1  0.00047562  0.37417798  0.37440530  1
  V  V90  1  0.37301985  0.62623757  0.74964478  1
  V  V91  1  0.62385482  0.87570192  0.74956803  1
  V  V92  1  0.74968934  0.12461260  0.87483337  1
  V  V93  1  -0.00082503  0.75025364  0.75021176  1
  V  V94  1  0.62485266  0.12495909  0.00116054  1
  V  V95  1  0.00090559  0.25020255  0.24998567  1
  Zn  Zn96  1  0.62482137  -0.00107294  0.12578099  1
  Zn  Zn97  1  0.50042708  0.49730278  -0.00151356  1
  Zn  Zn98  1  0.49834455  0.62456253  0.62493772  1
  Zn  Zn99  1  0.75193210  0.37547249  0.12570432  1
  Zn  Zn100  1  0.49860205  0.12171048  0.62590188  1
  Zn  Zn101  1  0.37515168  0.37591036  -0.00119094  1
  Zn  Zn102  1  0.50323717  0.25110587  0.24926862  1
  Zn  Zn103  1  0.25007194  0.25250585  -0.00190582  1
  Zn  Zn104  1  0.87158897  0.87800697  -0.00088133  1
  Zn  Zn105  1  0.87346399  -0.00124994  0.87625786  1
  Zn  Zn106  1  0.00300966  0.12284737  0.62531442  1
  Zn  Zn107  1  0.37529122  0.74978855  0.12632268  1
  Zn  Zn108  1  0.87484498  0.49820340  0.87629704  1
  Zn  Zn109  1  0.24810224  0.50063404  0.74965899  1
  Zn  Zn110  1  0.87433030  0.62374923  0.24999064  1
  Zn  Zn111  1  0.49838609  0.37595928  0.87699531  1
  Zn  Zn112  1  0.12496557  0.00027235  0.62381085  1
  Zn  Zn113  1  0.49838965  0.74982617  0.25006505  1
  Zn  Zn114  1  0.12552142  0.24836871  0.37626005  1
  Zn  Zn115  1  -0.00047260  0.37616972  0.87548673  1
  Zn  Zn116  1  0.37572649  0.12567410  0.74941147  1
  Zn  Zn117  1  0.25060723  0.62486830  0.37460377  1
  Zn  Zn118  1  0.87442977  0.37555422  -0.00081021  1
  Zn  Zn119  1  0.12240196  0.87539682  0.74713495  1
  Zn  Zn120  1  0.62782910  0.37526239  0.24835888  1
  Zn  Zn121  1  0.12515279  0.12610594  0.50126577  1
  Zn  Zn122  1  0.87664147  0.24843713  0.62358444  1
  Zn  Zn123  1  0.49994642  -0.00029504  0.50304296  1
  Zn  Zn124  1  0.75253886  0.49842900  0.24883008  1
  Zn  Zn125  1  0.74974495  0.75261101  -0.00220920  1
  Zn  Zn126  1  0.62121242  -0.00017637  0.62496363  1
  Zn  Zn127  1  0.75006544  0.12399599  0.37488996  1
  Zn  Zn128  1  0.18944543  0.18864086  0.18927967  1
  Zn  Zn129  1  0.18625007  0.18439886  0.68441604  1
  Zn  Zn130  1  0.18923684  0.68781763  0.18782634  1
  Zn  Zn131  1  0.18636935  0.68829363  0.68783466  1
  Zn  Zn132  1  0.68955657  0.18552800  0.18682094  1
  Zn  Zn133  1  0.68767280  0.18825470  0.68667142  1
  Zn  Zn134  1  0.68863317  0.68677197  0.18949284  1
  Zn  Zn135  1  0.68561553  0.68696674  0.68783004  1
  Zn  Zn136  1  0.31425624  0.31228053  0.31225883  1
  Zn  Zn137  1  0.31066104  0.31383523  0.81052873  1
  Zn  Zn138  1  0.31295860  0.81055880  0.31183829  1
  Zn  Zn139  1  0.31209467  0.81425104  0.81304458  1
  Zn  Zn140  1  0.81061881  0.31386620  0.30999695  1
  Zn  Zn141  1  0.81559366  0.31369387  0.81669903  1
  Zn  Zn142  1  0.81166458  0.81099913  0.31096255  1
  Zn  Zn143  1  0.81159582  0.81167017  0.81109754  1
  Zn  Zn144  1  0.18814106  0.43690484  0.43701738  1
  Zn  Zn145  1  0.18812359  0.43653065  0.93742154  1
  Zn  Zn146  1  0.18725869  0.93789218  0.43704623  1
  Zn  Zn147  1  0.18544068  0.93793648  0.93676933  1
  Zn  Zn148  1  0.68938035  0.43665593  0.43852026  1
  Zn  Zn149  1  0.68784343  0.43729498  0.93963814  1
  Zn  Zn150  1  0.68642349  0.93771752  0.43616916  1
  Zn  Zn151  1  0.68700870  0.93789506  0.93763034  1
  Zn  Zn152  1  0.31268108  0.06418282  0.06212531  1
  Zn  Zn153  1  0.31492903  0.06408189  0.56367803  1
  Zn  Zn154  1  0.31282112  0.56267275  0.06161708  1
  Zn  Zn155  1  0.31097133  0.56295585  0.56247569  1
  Zn  Zn156  1  0.81309287  0.06212031  0.06281964  1
  Zn  Zn157  1  0.81054050  0.06161183  0.56363187  1
  Zn  Zn158  1  0.81211033  0.56707718  0.06095073  1
  Zn  Zn159  1  0.81153265  0.56059834  0.56172389  1
  Zn  Zn160  1  0.44210097  0.43683195  0.18956691  1
  Zn  Zn161  1  0.43721658  0.43772749  0.68967965  1
  Zn  Zn162  1  0.43807001  0.93784665  0.18810230  1
  Zn  Zn163  1  0.43632466  0.93791160  0.68607150  1
  Zn  Zn164  1  0.93664177  0.43664839  0.18670717  1
  Zn  Zn165  1  0.93708116  0.43642733  0.68739576  1
  Zn  Zn166  1  0.93738532  0.93736634  0.18611045  1
  Zn  Zn167  1  0.93358055  0.93664922  0.68767470  1
  Zn  Zn168  1  0.06345810  0.06398482  0.31500922  1
  Zn  Zn169  1  0.06425523  0.06213887  0.81295779  1
  Zn  Zn170  1  0.06219128  0.56281132  0.31235332  1
  Zn  Zn171  1  0.06275074  0.56315238  0.81257708  1
  Zn  Zn172  1  0.56222039  0.06140327  0.31371079  1
  Zn  Zn173  1  0.56293688  0.06348729  0.81367391  1
  Zn  Zn174  1  0.56366057  0.56168008  0.31074766  1
  Zn  Zn175  1  0.56007353  0.56322206  0.81102474  1
  Zn  Zn176  1  0.43962253  0.18765487  0.43875633  1
  Zn  Zn177  1  0.43707894  0.18740276  0.93771384  1
  Zn  Zn178  1  0.43778608  0.68681086  0.43728335  1
  Zn  Zn179  1  0.43693690  0.68660712  0.93879640  1
  Zn  Zn180  1  0.93667383  0.18654182  0.43464767  1
  Zn  Zn181  1  0.93755170  0.18684144  0.93581083  1
  Zn  Zn182  1  0.93689138  0.68673657  0.43703094  1
  Zn  Zn183  1  0.93630975  0.68643523  0.93807197  1
  Zn  Zn184  1  0.06403053  0.31334612  0.06349252  1
  Zn  Zn185  1  0.06365698  0.31050668  0.56254067  1
  Zn  Zn186  1  0.06255663  0.81469116  0.06144226  1
  Zn  Zn187  1  0.06236426  0.81424308  0.56303414  1
  Zn  Zn188  1  0.56067542  0.31510945  0.05929158  1
  Zn  Zn189  1  0.56408412  0.31224786  0.56326760  1
  Zn  Zn190  1  0.56300370  0.81140649  0.06297866  1
  Zn  Zn191  1  0.56049942  0.81182803  0.56230351  1
  O  O192  1  0.12102631  0.12032881  0.12078515  1
  O  O193  1  0.12083589  0.11766768  0.61904632  1
  O  O194  1  0.12120230  0.62050632  0.11961800  1
  O  O195  1  0.11794953  0.62058016  0.61934241  1
  O  O196  1  0.61807701  0.12319304  0.11873997  1
  O  O197  1  0.62435722  0.12485138  0.61375394  1
  O  O198  1  0.61834202  0.61991618  0.12032157  1
  O  O199  1  0.62339294  0.61799076  0.61850893  1
  O  O200  1  0.38226092  0.38015204  0.38095752  1
  O  O201  1  0.37264064  0.38758785  0.87423044  1
  O  O202  1  0.37887541  0.87955214  0.37959045  1
  O  O203  1  0.38021728  0.88103530  0.88170025  1
  O  O204  1  0.88095180  0.37999552  0.38074211  1
  O  O205  1  0.88180893  0.38029585  0.88099540  1
  O  O206  1  0.88012359  0.87864216  0.37976796  1
  O  O207  1  0.88651605  0.87439434  0.87615131  1
  O  O208  1  0.25625809  0.00480482  0.36949925  1
  O  O209  1  0.25393332  0.00363751  0.86783389  1
  O  O210  1  0.25789467  0.50064768  0.36879584  1
  O  O211  1  0.25645280  0.50835992  0.87294679  1
  O  O212  1  0.75764236  -0.00096650  0.36785892  1
  O  O213  1  0.75096561  0.00649448  0.86809434  1
  O  O214  1  0.75708827  0.50619881  0.37679295  1
  O  O215  1  0.75022786  0.50750655  0.86841366  1
  O  O216  1  0.24550846  0.49534984  0.13077358  1
  O  O217  1  0.24194417  0.49357200  0.62506759  1
  O  O218  1  0.24481502  0.99588315  0.13104189  1
  O  O219  1  0.25279499  0.99388882  0.63454751  1
  O  O220  1  0.73951719  0.50276250  0.12413710  1
  O  O221  1  0.74449089  0.49406059  0.63105301  1
  O  O222  1  0.74943724  0.99204389  0.13183835  1
  O  O223  1  0.74670870  0.99161907  0.63177965  1
  O  O224  1  0.00614785  0.36976298  0.25481988  1
  O  O225  1  0.00536319  0.36481694  0.74991555  1
  O  O226  1  0.00648652  0.87074630  0.25493412  1
  O  O227  1  -0.00086173  0.86928522  0.75846937  1
  O  O228  1  0.50682344  0.37175927  0.25980178  1
  O  O229  1  0.50673927  0.36522290  0.75209488  1
  O  O230  1  0.50566433  0.87278931  0.25637728  1
  O  O231  1  0.50329881  0.86991494  0.75658739  1
  O  O232  1  0.49379225  0.12579388  0.24396344  1
  O  O233  1  0.49999045  0.13846099  0.74954018  1
  O  O234  1  0.49384633  0.62510428  0.24109096  1
  O  O235  1  0.49168958  0.63331052  0.74748817  1
  O  O236  1  0.99577100  0.12949635  0.24409476  1
  O  O237  1  0.99174972  0.13071499  0.75070253  1
  O  O238  1  1.00076927  0.63332207  0.24299010  1
  O  O239  1  0.99413297  0.63059907  0.74397902  1
  O  O240  1  0.37251642  0.24969449  0.01340864  1
  O  O241  1  0.37141658  0.25708604  0.50570932  1
  O  O242  1  0.36755743  0.75714162  0.00127689  1
  O  O243  1  0.36812384  0.75479836  0.50438720  1
  O  O244  1  0.86978313  0.24766816  0.00616980  1
  O  O245  1  0.86989527  0.25547743  0.50082663  1
  O  O246  1  0.87500743  0.75218109  0.01266601  1
  O  O247  1  0.86890154  0.75474231  0.50482435  1
  O  O248  1  0.13425177  0.24871994  0.49688778  1
  O  O249  1  0.12589493  0.24374934  0.99340324  1
  O  O250  1  0.12842723  0.74557159  0.49476326  1
  O  O251  1  0.12975560  0.74565416  0.99469607  1
  O  O252  1  0.63088652  0.24339674  0.49321928  1
  O  O253  1  0.63039933  0.24395925  0.99478087  1
  O  O254  1  0.63006442  0.74375374  0.49491225  1
  O  O255  1  0.62510072  0.74389303  0.99160871  1
  O  O256  1  0.49148901  0.24407914  0.12625966  1
  O  O257  1  0.49545190  0.25139393  0.63548925  1
  O  O258  1  0.49867727  0.73695479  0.12691375  1
  O  O259  1  0.49121772  0.74913525  0.63157200  1
  O  O260  1  0.99618647  0.24377486  0.13022724  1
  O  O261  1  0.99856502  0.24669321  0.63766821  1
  O  O262  1  0.99430634  0.74748543  0.12921018  1
  O  O263  1  0.99330066  0.74485164  0.62920641  1
  O  O264  1  0.00130536  0.25665178  0.36757994  1
  O  O265  1  0.00684383  0.24904555  0.86370147  1
  O  O266  1  0.00459855  0.75593476  0.37002098  1
  O  O267  1  0.00383288  0.75680603  0.87075663  1
  O  O268  1  0.51067721  0.25610954  0.37601381  1
  O  O269  1  0.50528038  0.25090279  0.86608143  1
  O  O270  1  0.50673348  0.75555149  0.37378858  1
  O  O271  1  0.50344354  0.75592102  0.86934646  1
  O  O272  1  0.25182437  0.13150871  0.49352051  1
  O  O273  1  0.24277609  0.12584384  0.99312818  1
  O  O274  1  0.24218537  0.63213541  0.49835041  1
  O  O275  1  0.24414756  0.63186018  0.99508232  1
  O  O276  1  0.74235978  0.13067909  0.49810709  1
  O  O277  1  0.74470081  0.12958416  0.99452589  1
  O  O278  1  0.74407581  0.63020103  0.49516333  1
  O  O279  1  0.74277115  0.62987358  0.99167019  1
  O  O280  1  0.25304520  0.37273009  0.00960651  1
  O  O281  1  0.25682612  0.36988000  0.50482853  1
  O  O282  1  0.25426326  0.87180807  0.00505716  1
  O  O283  1  0.25479441  0.86948312  0.50462945  1
  O  O284  1  0.75232541  0.36537168  0.00346311  1
  O  O285  1  0.75620682  0.36951679  0.50638512  1
  O  O286  1  0.75164698  0.87254126  0.00761040  1
  O  O287  1  0.75412313  0.86865209  0.50458636  1
  O  O288  1  0.13084445  0.49513828  0.24469837  1
  O  O289  1  0.12393949  0.49388328  0.74242627  1
  O  O290  1  0.13041041  0.99524616  0.24516274  1
  O  O291  1  0.13799430  0.99763458  0.74967184  1
  O  O292  1  0.62782519  0.50032731  0.23758594  1
  O  O293  1  0.63049402  0.49480506  0.74529582  1
  O  O294  1  0.63170445  0.99248396  0.24988686  1
  O  O295  1  0.63034620  0.99326593  0.75005644  1
  O  O296  1  0.36910691  0.00539997  0.25587519  1
  O  O297  1  0.36492707  0.00062092  0.75695685  1
  O  O298  1  0.37115824  0.50462563  0.25579563  1
  O  O299  1  0.37136519  0.50717639  0.75776702  1
  O  O300  1  0.87117080  0.00384956  0.25455691  1
  O  O301  1  0.86798550  0.00844490  0.75240860  1
  O  O302  1  0.87532740  0.50320921  0.25797797  1
  O  O303  1  0.86887979  0.50677341  0.75034281  1
  O  O304  1  0.11823188  0.37470817  0.36823833  1
  O  O305  1  0.12331413  0.36833856  0.86755542  1
  O  O306  1  0.11916359  0.86961720  0.36892398  1
  O  O307  1  0.11351566  0.86926546  0.87382992  1
  O  O308  1  0.62083617  0.36460433  0.37827676  1
  O  O309  1  0.62460455  0.36832845  0.86804205  1
  O  O310  1  0.61942893  0.86835909  0.37086057  1
  O  O311  1  0.61825207  0.86958494  0.86917734  1
  O  O312  1  0.37945099  0.13261004  0.13042549  1
  O  O313  1  0.37832227  0.13547264  0.62874636  1
  O  O314  1  0.38420071  0.62338758  0.13076923  1
  O  O315  1  0.37440672  0.63206096  0.63097049  1
  O  O316  1  0.88289220  0.12974350  0.13052636  1
  O  O317  1  0.87604788  0.12607251  0.63859585  1
  O  O318  1  0.88186384  0.63625694  0.12654475  1
  O  O319  1  0.87949732  0.62963279  0.62941105  1
  O  O320  1  0.26033947  0.25550518  0.12581511  1
  O  O321  1  0.25620729  0.25606403  0.61983540  1
  O  O322  1  0.25015878  0.75803371  0.11811795  1
  O  O323  1  0.25394717  0.75555812  0.61916492  1
  O  O324  1  0.75767263  0.24792936  0.11769701  1
  O  O325  1  0.75240691  0.25730345  0.61915782  1
  O  O326  1  0.75978205  0.75534627  0.12533550  1
  O  O327  1  0.75441961  0.75434799  0.61942794  1
  O  O328  1  0.25172229  0.24404748  0.38145354  1
  O  O329  1  0.24371354  0.24320380  0.87463418  1
  O  O330  1  0.24211868  0.74914631  0.38129310  1
  O  O331  1  0.24380242  0.74697711  0.88106152  1
  O  O332  1  0.74161186  0.24902586  0.38203581  1
  O  O333  1  0.74441101  0.24360763  0.88021611  1
  O  O334  1  0.74468018  0.74449813  0.38150289  1
  O  O335  1  0.74176817  0.74388339  0.87352364  1
  O  O336  1  0.00684562  0.11996890  0.00488820  1
  O  O337  1  -0.00288661  0.11219517  0.50071133  1
  O  O338  1  0.00705393  0.61934296  0.00616859  1
  O  O339  1  0.00461524  0.61954209  0.50566684  1
  O  O340  1  0.50516458  0.11977147  0.00518029  1
  O  O341  1  0.51196367  0.12449283  0.50248586  1
  O  O342  1  0.50554869  0.62329300  0.00908576  1
  O  O343  1  0.50644491  0.61754064  0.50191686  1
  O  O344  1  0.49549418  0.38037636  0.49549521  1
  O  O345  1  0.49319255  0.37983912  0.99422359  1
  O  O346  1  0.49206601  0.87466904  0.49281996  1
  O  O347  1  0.49495125  0.88029704  0.99474092  1
  O  O348  1  0.99519173  0.37961963  0.49498222  1
  O  O349  1  1.00248746  0.38869112  1.00029788  1
  O  O350  1  0.99258728  0.88090216  0.49422935  1
  O  O351  1  0.99901498  0.88112202  0.99057554  1
  O  O352  1  0.49643788  0.49421038  0.38158594  1
  O  O353  1  0.48701111  0.50030769  0.87425643  1
  O  O354  1  0.49260709  0.99208677  0.37747951  1
  O  O355  1  0.49393654  0.99503124  0.88026989  1
  O  O356  1  0.99515143  0.49436719  0.38078654  1
  O  O357  1  1.00050779  0.50181821  0.88758693  1
  O  O358  1  0.99391754  0.99369549  0.38177068  1
  O  O359  1  1.00029478  0.99043941  0.87957486  1
  O  O360  1  0.00661166  0.00580838  0.12015533  1
  O  O361  1  -0.00137268  -0.00253935  0.61341429  1
  O  O362  1  0.00712940  0.50654296  0.11882437  1
  O  O363  1  0.00453017  0.50551198  0.61864963  1
  O  O364  1  0.50034232  0.00657261  0.11759472  1
  O  O365  1  0.50303573  0.00321946  0.62178256  1
  O  O366  1  0.50855180  0.51061785  0.12403133  1
  O  O367  1  0.50684246  0.50016736  0.61929576  1
  O  O368  1  0.24575779  0.38108802  0.24511302  1
  O  O369  1  0.24131907  0.37645255  0.74124946  1
  O  O370  1  0.24465005  0.88116149  0.24503334  1
  O  O371  1  0.24892338  0.88399283  0.74518587  1
  O  O372  1  0.74534877  0.37966625  0.24414439  1
  O  O373  1  0.74589363  0.37961177  0.74589909  1
  O  O374  1  0.74428722  0.87927086  0.24472703  1
  O  O375  1  0.74376549  0.87963819  0.74500888  1
  O  O376  1  0.25693607  0.11921507  0.25600216  1
  O  O377  1  0.25135570  0.11498743  0.75588543  1
  O  O378  1  0.25714893  0.61747696  0.25070080  1
  O  O379  1  0.25488324  0.62540456  0.75701796  1
  O  O380  1  0.75770307  0.11648896  0.25104292  1
  O  O381  1  0.75630911  0.12121489  0.75472881  1
  O  O382  1  0.75319417  0.62231248  0.26020159  1
  O  O383  1  0.75433115  0.61923862  0.75404802  1
  O  O384  1  0.37137397  0.11970409  0.37028083  1
  O  O385  1  0.36799574  0.11826054  0.87407357  1
  O  O386  1  0.37452424  0.61712817  0.36830121  1
  O  O387  1  0.36848350  0.61967862  0.86957030  1
  O  O388  1  0.87352250  0.11698801  0.36658143  1
  O  O389  1  0.86880769  0.12386033  0.86347990  1
  O  O390  1  0.86899253  0.61866893  0.37513688  1
  O  O391  1  0.86768983  0.62451984  0.86786396  1
  O  O392  1  0.13158598  0.38094883  0.13198856  1
  O  O393  1  0.12953067  0.38054879  0.62931265  1
  O  O394  1  0.13030791  0.88214694  0.13021557  1
  O  O395  1  0.13296903  0.87830275  0.62744990  1
  O  O396  1  0.62484403  0.38778676  0.12397604  1
  O  O397  1  0.63216106  0.38032280  0.63123359  1
  O  O398  1  0.63140914  0.87489650  0.13193240  1
  O  O399  1  0.63052420  0.87392218  0.63173882  1
  O  O400  1  0.11899184  0.25701603  0.25113217  1
  O  O401  1  0.11724234  0.25324737  0.75394516  1
  O  O402  1  0.12050162  0.75663488  0.25482632  1
  O  O403  1  0.11649805  0.75147180  0.75667394  1
  O  O404  1  0.62554974  0.24788358  0.26337699  1
  O  O405  1  0.61848974  0.25504162  0.75507357  1
  O  O406  1  0.62388173  0.75612122  0.25805328  1
  O  O407  1  0.61766461  0.75538020  0.75499274  1
  O  O408  1  0.37779200  0.24423394  0.24042836  1
  O  O409  1  0.38458142  0.25107767  0.74504160  1
  O  O410  1  0.37647241  0.74009431  0.24705603  1
  O  O411  1  0.37826779  0.74632044  0.74529602  1
  O  O412  1  0.88128929  0.24376220  0.24422329  1
  O  O413  1  0.88339007  0.24128694  0.75034629  1
  O  O414  1  0.88234942  0.74999035  0.23966272  1
  O  O415  1  0.87953616  0.74359394  0.74307450  1
  O  O416  1  0.38062991  0.49463246  0.49562530  1
  O  O417  1  0.37543826  0.50151860  0.98703835  1
  O  O418  1  0.37474600  0.99237945  0.49317418  1
  O  O419  1  0.37990445  0.99466164  0.99487749  1
  O  O420  1  0.88114495  0.49370476  0.49475629  1
  O  O421  1  0.88851891  0.50286468  1.00120909  1
  O  O422  1  0.88046667  0.99322015  0.49460354  1
  O  O423  1  0.88407873  0.99873796  0.99653230  1
  O  O424  1  0.11978340  0.00609883  0.00609483  1
  O  O425  1  0.11111582  -0.00097112  0.49883007  1
  O  O426  1  0.11899352  0.50697860  0.00623968  1
  O  O427  1  0.11884122  0.50509421  0.50494075  1
  O  O428  1  0.61745324  0.00727862  0.00070709  1
  O  O429  1  0.62467982  0.01133442  0.49976998  1
  O  O430  1  0.62325002  0.50841914  0.00803504  1
  O  O431  1  0.62040790  0.50393858  0.50609929  1
  O  O432  1  0.37121025  0.36640629  0.12738161  1
  O  O433  1  0.36943633  0.37091979  0.61962035  1
  O  O434  1  0.36843344  0.87443162  0.11871050  1
  O  O435  1  0.36804538  0.86820243  0.61907966  1
  O  O436  1  0.87497827  0.36542003  0.12062926  1
  O  O437  1  0.86917670  0.37334463  0.61784736  1
  O  O438  1  0.86980526  0.86617085  0.12451994  1
  O  O439  1  0.86723570  0.86747746  0.61952296  1
  O  O440  1  0.13502615  0.12710349  0.37831601  1
  O  O441  1  0.13064980  0.13021794  0.88037830  1
  O  O442  1  0.12550941  0.63176871  0.38178338  1
  O  O443  1  0.12969096  0.63192786  0.88053443  1
  O  O444  1  0.62634500  0.13381908  0.38417570  1
  O  O445  1  0.63039003  0.13174534  0.88110307  1
  O  O446  1  0.63006437  0.62886299  0.38161025  1
  O  O447  1  0.62859942  0.63047283  0.87853751  1
