# generated using pymatgen
data_V3Zn3O8
_symmetry_space_group_name_H-M   'P 1'
_cell_length_a   17.08483326
_cell_length_b   17.08461474
_cell_length_c   17.08411320
_cell_angle_alpha   89.99259025
_cell_angle_beta   89.99698047
_cell_angle_gamma   90.01847697
_symmetry_Int_Tables_number   1
_chemical_formula_structural   V3Zn3O8
_chemical_formula_sum   'V96 Zn96 O256'
_cell_volume   4986.64380919
_cell_formula_units_Z   32
loop_
 _symmetry_equiv_pos_site_id
 _symmetry_equiv_pos_as_xyz
  1  'x, y, z'
loop_
 _atom_site_type_symbol
 _atom_site_label
 _atom_site_symmetry_multiplicity
 _atom_site_fract_x
 _atom_site_fract_y
 _atom_site_fract_z
 _atom_site_occupancy
  V  V0  1  0.25009234  0.87394606  0.62423439  1
  V  V1  1  0.62552819  0.50001208  0.12449833  1
  V  V2  1  0.62432521  0.87502025  0.75192619  1
  V  V3  1  0.37500832  0.00023098  0.37552362  1
  V  V4  1  0.37493594  0.74912228  0.12514515  1
  V  V5  1  0.37388081  0.87415964  0.50037774  1
  V  V6  1  0.62434696  0.75054993  0.87562977  1
  V  V7  1  0.37307932  0.50128594  0.87249074  1
  V  V8  1  0.62610614  0.37547824  0.24835635  1
  V  V9  1  0.37461902  0.37455964  0.49965274  1
  V  V10  1  0.24996643  0.87540509  0.12505784  1
  V  V11  1  0.37512419  0.37437745  -0.00108154  1
  V  V12  1  0.00028759  0.12476732  0.62565199  1
  V  V13  1  -0.00047308  0.74919591  0.24947191  1
  V  V14  1  0.25011781  0.12518405  0.87532538  1
  V  V15  1  0.12458309  0.75013320  0.87502623  1
  V  V16  1  0.12446204  0.87462818  0.75067402  1
  V  V17  1  0.87347467  0.75015639  0.62564097  1
  V  V18  1  0.37590904  0.24952716  0.62488282  1
  V  V19  1  0.49953534  0.49958428  0.50051986  1
  V  V20  1  0.24932546  0.75007596  0.49966198  1
  V  V21  1  0.50034139  0.37525785  0.37430392  1
  V  V22  1  0.75028280  0.75047862  0.00137035  1
  V  V23  1  0.87645195  0.12488874  0.75026269  1
  V  V24  1  0.87545286  0.37549272  0.49925658  1
  V  V25  1  0.50098592  0.12520129  0.12522018  1
  V  V26  1  0.87358316  0.62534705  0.74911674  1
  V  V27  1  0.74930660  0.49988843  0.74937452  1
  V  V28  1  0.74975658  0.87452367  0.12662960  1
  V  V29  1  0.50005254  0.87574507  0.37583810  1
  V  V30  1  0.62480786  0.00153453  0.62563632  1
  V  V31  1  0.24956056  0.74988382  -0.00085602  1
  V  V32  1  -0.00118228  0.62388737  0.12429038  1
  V  V33  1  0.62433104  0.49939047  0.62501078  1
  V  V34  1  0.12559318  -0.00019653  0.12446532  1
  V  V35  1  0.75059892  0.12483079  0.87636195  1
  V  V36  1  0.37622259  0.87598745  0.00001922  1
  V  V37  1  0.87420427  0.87403312  0.00126195  1
  V  V38  1  0.62475854  0.87637546  0.25230591  1
  V  V39  1  0.25020651  0.24874173  -0.00077693  1
  V  V40  1  0.24962223  -0.00013226  0.24902792  1
  V  V41  1  0.24949396  0.12487886  0.37544134  1
  V  V42  1  0.50013265  -0.00076537  0.00123704  1
  V  V43  1  0.25196716  0.50005923  0.24945147  1
  V  V44  1  0.49737127  0.74770510  0.74965426  1
  V  V45  1  0.87633139  0.24981379  0.12577425  1
  V  V46  1  0.00031360  0.24975069  0.74882744  1
  V  V47  1  0.49894905  0.62555807  0.12610634  1
  V  V48  1  0.75075300  0.24954813  0.00050149  1
  V  V49  1  0.62638648  0.25050131  0.37554904  1
  V  V50  1  0.62607511  0.12619453  0.50058910  1
  V  V51  1  0.12578044  0.12435362  0.49983589  1
  V  V52  1  0.74954771  0.62429680  0.37356158  1
  V  V53  1  0.62282855  0.75214904  0.37678315  1
  V  V54  1  0.62619373  0.62536207  0.00114378  1
  V  V55  1  0.12420193  0.37392904  0.24942529  1
  V  V56  1  0.87438034  0.87601534  0.50098330  1
  V  V57  1  0.12491449  -0.00071657  0.62455140  1
  V  V58  1  0.00088319  0.37506208  0.37395293  1
  V  V59  1  0.75038419  0.25113574  0.49975684  1
  V  V60  1  0.87634030  0.37530764  -0.00072599  1
  V  V61  1  0.74927031  0.87568036  0.62621684  1
  V  V62  1  0.37505201  0.12549224  0.25044990  1
  V  V63  1  0.62533797  0.25001912  0.87514249  1
  V  V64  1  0.12596061  0.37696905  0.74768691  1
  V  V65  1  0.00091580  -0.00016789  0.00104549  1
  V  V66  1  0.75113325  -0.00003453  0.25141218  1
  V  V67  1  -0.00172154  0.62581079  0.62388078  1
  V  V68  1  -0.00015264  -0.00077114  0.49991005  1
  V  V69  1  0.62523900  0.12409210  0.00164327  1
  V  V70  1  0.12539392  0.62516708  -0.00146191  1
  V  V71  1  -0.00036393  0.37592647  0.87470172  1
  V  V72  1  0.50068497  0.00125489  0.50150820  1
  V  V73  1  0.24924704  0.37607591  0.62431638  1
  V  V74  1  -0.00022472  0.50088812  0.49953315  1
  V  V75  1  0.87519867  0.00145587  0.37466422  1
  V  V76  1  0.75066511  0.37544649  0.62446115  1
  V  V77  1  0.37676892  0.12502123  0.74820943  1
  V  V78  1  0.37519142  0.25025902  0.12506138  1
  V  V79  1  0.25007143  0.37431734  0.12417605  1
  V  V80  1  0.37411289  0.49974275  0.37338296  1
  V  V81  1  0.12413596  0.62573739  0.50000252  1
  V  V82  1  0.75028190  0.62439212  0.87459359  1
  V  V83  1  0.50060537  0.25028403  0.24994221  1
  V  V84  1  0.74773597  0.75074905  0.50130603  1
  V  V85  1  0.74963145  0.00006760  0.75127889  1
  V  V86  1  0.62228735  0.62480294  0.50135811  1
  V  V87  1  0.24956936  0.24902224  0.49890756  1
  V  V88  1  0.25080526  -0.00022878  0.74972652  1
  V  V89  1  0.00052608  0.87514467  0.87511565  1
  V  V90  1  0.12572546  0.49942554  0.12320507  1
  V  V91  1  0.50143388  0.37364146  0.87399546  1
  V  V92  1  0.12493245  0.75025256  0.37399832  1
  V  V93  1  -0.00016930  0.12553179  0.12605533  1
  V  V94  1  0.75010416  0.37567416  0.12477404  1
  V  V95  1  0.87545882  -0.00027944  0.87599355  1
  Zn  Zn96  1  0.37720185  -0.00195874  0.87440420  1
  Zn  Zn97  1  -0.00038306  0.49995764  -0.00137358  1
  Zn  Zn98  1  0.49593847  0.62274909  0.62617653  1
  Zn  Zn99  1  0.87215816  0.62395142  0.24906542  1
  Zn  Zn100  1  0.12536127  0.12612326  -0.00128818  1
  Zn  Zn101  1  0.12457762  0.24857472  0.37316944  1
  Zn  Zn102  1  0.25043642  0.50353607  0.74665246  1
  Zn  Zn103  1  0.25199437  0.62465543  0.37364139  1
  Zn  Zn104  1  0.62595961  0.00017169  0.12757591  1
  Zn  Zn105  1  0.37389369  0.62618768  0.25099152  1
  Zn  Zn106  1  0.87504747  0.24990956  0.62416683  1
  Zn  Zn107  1  0.37051021  0.62543866  0.74771997  1
  Zn  Zn108  1  0.75143987  0.50118855  0.24950073  1
  Zn  Zn109  1  0.12485757  0.87492924  0.24941201  1
  Zn  Zn110  1  0.12630301  0.25073927  0.87546358  1
  Zn  Zn111  1  0.50181213  0.12674075  0.62586471  1
  Zn  Zn112  1  -0.00081630  0.74983960  0.75012349  1
  Zn  Zn113  1  0.62649933  0.37297596  0.74953519  1
  Zn  Zn114  1  0.87415506  0.50067850  0.87520179  1
  Zn  Zn115  1  -0.00026803  0.24973840  0.25088970  1
  Zn  Zn116  1  0.24853681  0.62430562  0.87227839  1
  Zn  Zn117  1  0.12643923  0.50279608  0.62375945  1
  Zn  Zn118  1  0.75149462  0.12743451  0.37378061  1
  Zn  Zn119  1  0.87410646  0.12688569  0.25079948  1
  Zn  Zn120  1  0.37418621  0.74641020  0.62495209  1
  Zn  Zn121  1  0.87399392  0.74871281  0.12632156  1
  Zn  Zn122  1  0.49838666  0.87539195  0.87599583  1
  Zn  Zn123  1  0.50351897  0.24828608  0.74834683  1
  Zn  Zn124  1  0.49712422  0.75144230  0.25198592  1
  Zn  Zn125  1  -0.00061968  0.87484964  0.37330155  1
  Zn  Zn126  1  0.87418670  0.50166627  0.37235401  1
  Zn  Zn127  1  0.50011958  0.50065656  -0.00125195  1
  Zn  Zn128  1  0.18567620  0.18767994  0.18791533  1
  Zn  Zn129  1  0.18769772  0.18949151  0.68689840  1
  Zn  Zn130  1  0.18783773  0.68567770  0.18692747  1
  Zn  Zn131  1  0.18731282  0.68735424  0.68843281  1
  Zn  Zn132  1  0.68942236  0.18675420  0.18867576  1
  Zn  Zn133  1  0.68891800  0.18871793  0.68777140  1
  Zn  Zn134  1  0.68360301  0.69110756  0.18932505  1
  Zn  Zn135  1  0.68434000  0.68619103  0.68800795  1
  Zn  Zn136  1  0.31151016  0.31271968  0.31246339  1
  Zn  Zn137  1  0.31305311  0.31209429  0.81096659  1
  Zn  Zn138  1  0.31264738  0.81259825  0.31123193  1
  Zn  Zn139  1  0.31269881  0.81311726  0.81442506  1
  Zn  Zn140  1  0.81403906  0.31311412  0.31121288  1
  Zn  Zn141  1  0.81352006  0.31211379  0.81106991  1
  Zn  Zn142  1  0.81312424  0.81193399  0.31323315  1
  Zn  Zn143  1  0.81195534  0.81161548  0.81371210  1
  Zn  Zn144  1  0.18661348  0.43867025  0.43688990  1
  Zn  Zn145  1  0.18760715  0.43764661  0.93655556  1
  Zn  Zn146  1  0.18695152  0.93604890  0.43612733  1
  Zn  Zn147  1  0.18840146  0.93853049  0.93802528  1
  Zn  Zn148  1  0.68673610  0.43828642  0.43811526  1
  Zn  Zn149  1  0.68777464  0.43885856  0.93814212  1
  Zn  Zn150  1  0.68821439  0.93952890  0.43819463  1
  Zn  Zn151  1  0.68611774  0.93723878  0.93895627  1
  Zn  Zn152  1  0.31427652  0.06211397  0.06231282  1
  Zn  Zn153  1  0.31259325  0.06169639  0.56285208  1
  Zn  Zn154  1  0.31271445  0.56203777  0.05929025  1
  Zn  Zn155  1  0.31211896  0.56390465  0.56293194  1
  Zn  Zn156  1  0.81314449  0.06073021  0.06436014  1
  Zn  Zn157  1  0.81178995  0.06451915  0.56279699  1
  Zn  Zn158  1  0.81404652  0.56059637  0.06127158  1
  Zn  Zn159  1  0.81223519  0.56150360  0.56037292  1
  Zn  Zn160  1  0.43840573  0.43872236  0.18674405  1
  Zn  Zn161  1  0.43786533  0.43575498  0.68849831  1
  Zn  Zn162  1  0.43763055  0.93763903  0.18731724  1
  Zn  Zn163  1  0.43797447  0.93553427  0.68654405  1
  Zn  Zn164  1  0.93494307  0.44018265  0.18982130  1
  Zn  Zn165  1  0.93647838  0.43966064  0.68580507  1
  Zn  Zn166  1  0.93724613  0.93577198  0.18783308  1
  Zn  Zn167  1  0.93765004  0.93765619  0.68842276  1
  Zn  Zn168  1  0.06273644  0.06186656  0.31143035  1
  Zn  Zn169  1  0.06382058  0.06156277  0.81252212  1
  Zn  Zn170  1  0.06478157  0.56172505  0.31152674  1
  Zn  Zn171  1  0.06051602  0.56295592  0.81088945  1
  Zn  Zn172  1  0.56402781  0.06312283  0.31438665  1
  Zn  Zn173  1  0.56178179  0.06151561  0.81540022  1
  Zn  Zn174  1  0.56318681  0.56219006  0.31124380  1
  Zn  Zn175  1  0.56246224  0.56190519  0.81218478  1
  Zn  Zn176  1  0.43875758  0.18718885  0.43811522  1
  Zn  Zn177  1  0.43751076  0.18690542  0.93705075  1
  Zn  Zn178  1  0.43594557  0.68611295  0.43761869  1
  Zn  Zn179  1  0.43752875  0.68743962  0.93747707  1
  Zn  Zn180  1  0.93820496  0.18876193  0.43861493  1
  Zn  Zn181  1  0.93859890  0.18879934  0.93776575  1
  Zn  Zn182  1  0.93569167  0.68836124  0.43794682  1
  Zn  Zn183  1  0.93712977  0.68831976  0.93709793  1
  Zn  Zn184  1  0.06418034  0.31032377  0.06058480  1
  Zn  Zn185  1  0.06278308  0.31141604  0.56187011  1
  Zn  Zn186  1  0.06360861  0.81229894  0.06240941  1
  Zn  Zn187  1  0.06084137  0.81209976  0.56258866  1
  Zn  Zn188  1  0.56274748  0.31215907  0.06063231  1
  Zn  Zn189  1  0.56256335  0.31269555  0.56351895  1
  Zn  Zn190  1  0.56317875  0.81289866  0.06507021  1
  Zn  Zn191  1  0.56066554  0.81339249  0.56516105  1
  O  O192  1  0.11614914  0.11900343  0.12302565  1
  O  O193  1  0.12086680  0.11838694  0.62022084  1
  O  O194  1  0.11738563  0.61961124  0.11873144  1
  O  O195  1  0.11623585  0.62622538  0.61755618  1
  O  O196  1  0.61861512  0.12515423  0.11912490  1
  O  O197  1  0.62476166  0.11879524  0.61948381  1
  O  O198  1  0.61766162  0.62141076  0.12075109  1
  O  O199  1  0.62285702  0.61731929  0.61776603  1
  O  O200  1  0.38111037  0.37883809  0.38006374  1
  O  O201  1  0.38257762  0.37964156  0.87896767  1
  O  O202  1  0.37957121  0.88172394  0.38037220  1
  O  O203  1  0.37667668  0.87815604  0.88483817  1
  O  O204  1  0.88530537  0.37659935  0.37999124  1
  O  O205  1  0.88486102  0.37426863  0.87965586  1
  O  O206  1  0.87595767  0.88451342  0.38247455  1
  O  O207  1  0.87975537  0.88090246  0.88059859  1
  O  O208  1  0.25554346  0.00506133  0.36983611  1
  O  O209  1  0.25208844  0.00944124  0.86870615  1
  O  O210  1  0.25647178  0.49911197  0.36755692  1
  O  O211  1  0.26165516  0.49859129  0.87259656  1
  O  O212  1  0.76041581  0.00123571  0.37090509  1
  O  O213  1  0.75571600  0.00541681  0.87115881  1
  O  O214  1  0.74786697  0.51314948  0.37474866  1
  O  O215  1  0.75060731  0.50686376  0.86823697  1
  O  O216  1  0.24585130  0.49273359  0.12824327  1
  O  O217  1  0.24690818  0.49030233  0.62564472  1
  O  O218  1  0.24586204  0.99603984  0.12980161  1
  O  O219  1  0.24357688  0.99416596  0.62947454  1
  O  O220  1  0.74308890  0.49344526  0.12518938  1
  O  O221  1  0.74398297  0.49489067  0.62881210  1
  O  O222  1  0.74959114  0.99284920  0.13330446  1
  O  O223  1  0.74494583  0.99510514  0.63170329  1
  O  O224  1  0.00558335  0.37592166  0.25872050  1
  O  O225  1  0.00570928  0.37035238  0.75507677  1
  O  O226  1  0.00315608  0.86181485  0.24977804  1
  O  O227  1  0.00631984  0.87527721  0.75715859  1
  O  O228  1  0.50578440  0.36881104  0.25409423  1
  O  O229  1  0.50205898  0.37118610  0.76345550  1
  O  O230  1  0.50597443  0.87669527  0.25862327  1
  O  O231  1  0.50663887  0.86673748  0.75213007  1
  O  O232  1  0.49482102  0.13075154  0.24607546  1
  O  O233  1  0.48795063  0.12496462  0.75002638  1
  O  O234  1  0.49932254  0.62640688  0.23677492  1
  O  O235  1  0.49971541  0.63704508  0.74973556  1
  O  O236  1  0.99822783  0.12518226  0.23719818  1
  O  O237  1  0.99638372  0.12906911  0.74582794  1
  O  O238  1  1.00224173  0.63270606  0.24038167  1
  O  O239  1  0.99202883  0.62686441  0.74242612  1
  O  O240  1  0.37011723  0.25444597  0.00602750  1
  O  O241  1  0.36974094  0.25495427  0.50440027  1
  O  O242  1  0.36940872  0.75571708  0.00545725  1
  O  O243  1  0.36736294  0.75765667  0.49911333  1
  O  O244  1  0.86941550  0.25545616  0.00529331  1
  O  O245  1  0.86847205  0.25698242  0.50122943  1
  O  O246  1  0.86758332  0.75710646  0.00099667  1
  O  O247  1  0.86742643  0.75665896  0.50591562  1
  O  O248  1  0.13222084  0.24166604  0.49882068  1
  O  O249  1  0.13504099  0.24628303  0.99631028  1
  O  O250  1  0.12797507  0.74634999  0.49123138  1
  O  O251  1  0.13041714  0.74525267  0.99471148  1
  O  O252  1  0.63027689  0.24638421  0.49442615  1
  O  O253  1  0.63174484  0.24357962  0.99505839  1
  O  O254  1  0.62891451  0.74616038  0.49647519  1
  O  O255  1  0.63108004  0.74517407  0.99557709  1
  O  O256  1  0.49454188  0.24532798  0.13032086  1
  O  O257  1  0.49197418  0.24774980  0.62770106  1
  O  O258  1  0.49447309  0.74091235  0.12637581  1
  O  O259  1  0.49912552  0.74870453  0.63714275  1
  O  O260  1  0.99530918  0.24046434  0.12359441  1
  O  O261  1  0.99875955  0.24194168  0.63070146  1
  O  O262  1  1.00201819  0.74038541  0.13283688  1
  O  O263  1  0.99079779  0.74432278  0.62572434  1
  O  O264  1  0.00239517  0.26204040  0.37438018  1
  O  O265  1  0.00240595  0.25957873  0.86865537  1
  O  O266  1  0.00764330  0.74932135  0.36677916  1
  O  O267  1  0.00631550  0.75835770  0.87417108  1
  O  O268  1  0.50529775  0.25600828  0.36943732  1
  O  O269  1  0.50570354  0.25819682  0.87528981  1
  O  O270  1  0.50523267  0.75801124  0.37591857  1
  O  O271  1  0.50671825  0.75179439  0.86763111  1
  O  O272  1  0.24547721  0.12872127  0.49490257  1
  O  O273  1  0.25222958  0.12900576  0.99000494  1
  O  O274  1  0.24202556  0.63253671  0.49728685  1
  O  O275  1  0.24250331  0.63226011  0.99815496  1
  O  O276  1  0.74404225  0.13244896  0.49830442  1
  O  O277  1  0.74616458  0.12934407  0.99554774  1
  O  O278  1  0.74237934  0.63135494  0.49307384  1
  O  O279  1  0.74554325  0.63080687  0.99526893  1
  O  O280  1  0.25526898  0.36849263  0.00504158  1
  O  O281  1  0.25525427  0.36900186  0.50392069  1
  O  O282  1  0.25572842  0.87044186  0.00632267  1
  O  O283  1  0.25428535  0.87045574  0.50459334  1
  O  O284  1  0.75556687  0.36853704  0.00479611  1
  O  O285  1  0.75533234  0.37078223  0.50426767  1
  O  O286  1  0.75440931  0.87033446  0.00600348  1
  O  O287  1  0.75408778  0.87077930  0.50699327  1
  O  O288  1  0.13166403  0.49357014  0.24286436  1
  O  O289  1  0.12427720  0.48667544  0.74721980  1
  O  O290  1  0.13195387  0.99799591  0.24327564  1
  O  O291  1  0.13096390  0.99441947  0.74395448  1
  O  O292  1  0.62657560  0.49227124  0.24224903  1
  O  O293  1  0.63173623  0.49799975  0.74326571  1
  O  O294  1  0.63304554  0.99412779  0.25189652  1
  O  O295  1  0.63073904  0.99588172  0.74645935  1
  O  O296  1  0.36979976  0.00660389  0.25571115  1
  O  O297  1  0.36913977  0.00888291  0.74901414  1
  O  O298  1  0.36897808  0.49864460  0.25585247  1
  O  O299  1  0.37461348  0.49888479  0.76161962  1
  O  O300  1  0.87027786  -0.00156897  0.26046550  1
  O  O301  1  0.86935607  0.00491400  0.75680574  1
  O  O302  1  0.86897648  0.50656359  0.25482776  1
  O  O303  1  0.86691808  0.50792999  0.75029985  1
  O  O304  1  0.11561924  0.37419201  0.36935533  1
  O  O305  1  0.11706724  0.37374966  0.86589466  1
  O  O306  1  0.12131193  0.86264593  0.37307322  1
  O  O307  1  0.11977096  0.87137455  0.87044626  1
  O  O308  1  0.61942012  0.37007679  0.36922158  1
  O  O309  1  0.61647958  0.36921216  0.87685667  1
  O  O310  1  0.61958981  0.87146838  0.37290058  1
  O  O311  1  0.62506666  0.86805921  0.86910758  1
  O  O312  1  0.38047052  0.13124553  0.13132914  1
  O  O313  1  0.37439229  0.12951290  0.63400838  1
  O  O314  1  0.38451835  0.62934519  0.12296871  1
  O  O315  1  0.37874078  0.62866632  0.62886764  1
  O  O316  1  0.88511993  0.12982653  0.12446260  1
  O  O317  1  0.88247767  0.12435468  0.63253745  1
  O  O318  1  0.88725722  0.62679542  0.12490373  1
  O  O319  1  0.87760457  0.63150647  0.62855786  1
  O  O320  1  0.25651320  0.25437601  0.12020793  1
  O  O321  1  0.25599820  0.25538117  0.61788153  1
  O  O322  1  0.25427281  0.75525865  0.11894019  1
  O  O323  1  0.24891460  0.75810079  0.61732275  1
  O  O324  1  0.75569900  0.25514952  0.11886948  1
  O  O325  1  0.75184167  0.25716975  0.61790964  1
  O  O326  1  0.75084426  0.75593497  0.11934993  1
  O  O327  1  0.75285879  0.75616459  0.62038931  1
  O  O328  1  0.24951967  0.24254284  0.38127480  1
  O  O329  1  0.25119363  0.24041575  0.87984759  1
  O  O330  1  0.23986850  0.75005687  0.37957236  1
  O  O331  1  0.24203759  0.75030274  0.88248702  1
  O  O332  1  0.74382878  0.25061067  0.38125359  1
  O  O333  1  0.74626539  0.24405009  0.88115742  1
  O  O334  1  0.74292664  0.74468694  0.38232255  1
  O  O335  1  0.74384418  0.74420153  0.88095470  1
  O  O336  1  0.00086865  0.11899131  0.00906744  1
  O  O337  1  0.00578093  0.11868801  0.50579096  1
  O  O338  1  0.00576973  0.62529140  0.00952218  1
  O  O339  1  0.00377357  0.62126152  0.50404612  1
  O  O340  1  0.50474067  0.11997971  0.00586332  1
  O  O341  1  0.50686230  0.11860272  0.50201125  1
  O  O342  1  0.50707473  0.62530156  0.01067053  1
  O  O343  1  0.50583310  0.61702253  0.50041496  1
  O  O344  1  0.49422643  0.37956485  0.49327907  1
  O  O345  1  0.49405335  0.37481665  0.98971165  1
  O  O346  1  0.49454773  0.88163912  0.49531785  1
  O  O347  1  0.49469766  0.88188078  1.00183704  1
  O  O348  1  0.99658601  0.37986949  0.49262631  1
  O  O349  1  0.99617663  0.37374224  0.98962369  1
  O  O350  1  0.99215751  0.88211423  0.49956819  1
  O  O351  1  0.99456229  0.88036889  0.99540127  1
  O  O352  1  0.49556915  0.49323338  0.37975113  1
  O  O353  1  0.49346798  0.49024538  0.87683263  1
  O  O354  1  0.49416237  0.99576306  0.38177052  1
  O  O355  1  0.49771984  0.99736978  0.88599695  1
  O  O356  1  1.00033739  0.49065484  0.38008502  1
  O  O357  1  0.99760711  0.48674212  0.87491828  1
  O  O358  1  0.99207039  0.99765878  0.38037136  1
  O  O359  1  0.99511576  0.99547583  0.88087603  1
  O  O360  1  0.00421653  0.00668679  0.12042511  1
  O  O361  1  0.00575955  0.00499083  0.62016938  1
  O  O362  1  0.00687086  0.50928940  0.12473672  1
  O  O363  1  0.00115433  0.50805523  0.61695073  1
  O  O364  1  0.50196103  0.00789901  0.11939905  1
  O  O365  1  0.50746111  0.00098243  0.61884147  1
  O  O366  1  0.50570400  0.50861606  0.12170164  1
  O  O367  1  0.50616209  0.49784492  0.61796313  1
  O  O368  1  0.24493656  0.37934759  0.24306271  1
  O  O369  1  0.24039951  0.37407346  0.74363990  1
  O  O370  1  0.24922434  0.88260598  0.24275312  1
  O  O371  1  0.24453171  0.88048263  0.74472076  1
  O  O372  1  0.74275653  0.37504090  0.24220689  1
  O  O373  1  0.75012534  0.38141934  0.74331275  1
  O  O374  1  0.74489882  0.87983632  0.24684465  1
  O  O375  1  0.74476473  0.88111734  0.74585665  1
  O  O376  1  0.25608479  0.12002901  0.25488293  1
  O  O377  1  0.25740870  0.12078344  0.75563454  1
  O  O378  1  0.25215268  0.61493611  0.25050941  1
  O  O379  1  0.25138726  0.62103931  0.75499854  1
  O  O380  1  0.75375679  0.11647344  0.25293174  1
  O  O381  1  0.75602373  0.11913535  0.75682440  1
  O  O382  1  0.74717221  0.62738710  0.26254461  1
  O  O383  1  0.75383930  0.62012696  0.75501641  1
  O  O384  1  0.36990724  0.11967318  0.36994972  1
  O  O385  1  0.36600833  0.12441266  0.86539556  1
  O  O386  1  0.37305624  0.61539782  0.37194469  1
  O  O387  1  0.37486068  0.61230372  0.87540019  1
  O  O388  1  0.87562073  0.11266544  0.37453731  1
  O  O389  1  0.87048417  0.11911519  0.87093436  1
  O  O390  1  0.86038576  0.62638661  0.37588334  1
  O  O391  1  0.86821665  0.62460108  0.86819110  1
  O  O392  1  0.13072357  0.37963115  0.12863248  1
  O  O393  1  0.12979449  0.37546455  0.63284596  1
  O  O394  1  0.13240272  0.88179659  0.12539938  1
  O  O395  1  0.12963649  0.88046734  0.62993167  1
  O  O396  1  0.63002376  0.37916118  0.12818304  1
  O  O397  1  0.63229280  0.38157335  0.62569371  1
  O  O398  1  0.63196018  0.87671071  0.13388874  1
  O  O399  1  0.63113105  0.88183907  0.63134111  1
  O  O400  1  0.12190859  0.25836375  0.25235833  1
  O  O401  1  0.11949049  0.26107214  0.75066488  1
  O  O402  1  0.11767661  0.74918500  0.25791899  1
  O  O403  1  0.12260814  0.75838119  0.75688479  1
  O  O404  1  0.61944937  0.25535848  0.25497658  1
  O  O405  1  0.62416190  0.25130939  0.75968387  1
  O  O406  1  0.62106464  0.75943546  0.25950869  1
  O  O407  1  0.61803537  0.75531286  0.75570338  1
  O  O408  1  0.38078134  0.24514250  0.24483292  1
  O  O409  1  0.37484719  0.23941517  0.74345172  1
  O  O410  1  0.37713166  0.74734638  0.24142010  1
  O  O411  1  0.38618542  0.75072752  0.75054047  1
  O  O412  1  0.87861356  0.24729245  0.24124804  1
  O  O413  1  0.88198467  0.24174827  0.74832801  1
  O  O414  1  0.88681556  0.74620804  0.24923852  1
  O  O415  1  0.87421497  0.74396298  0.74300141  1
  O  O416  1  0.37970078  0.49270778  0.49367170  1
  O  O417  1  0.37687409  0.49188338  0.99013102  1
  O  O418  1  0.37974666  0.99489942  0.49465508  1
  O  O419  1  0.38332807  0.99393104  1.00052433  1
  O  O420  1  0.88184291  0.49350558  0.49589475  1
  O  O421  1  0.87915438  0.49062313  0.99604106  1
  O  O422  1  0.87912290  0.99594908  0.49353663  1
  O  O423  1  0.88035146  0.99379173  0.99457495  1
  O  O424  1  0.11836883  0.00235001  0.00644568  1
  O  O425  1  0.11998002  0.00423643  0.50506379  1
  O  O426  1  0.12321563  0.50579719  0.00608742  1
  O  O427  1  0.11777350  0.50817162  0.50003585  1
  O  O428  1  0.61883499  0.00673680  0.00330083  1
  O  O429  1  0.62086573  0.00586299  0.50585476  1
  O  O430  1  0.62363523  0.50787224  0.00659326  1
  O  O431  1  0.61828677  0.50454694  0.50526852  1
  O  O432  1  0.37030088  0.36933353  0.11920204  1
  O  O433  1  0.36967713  0.36918231  0.61897958  1
  O  O434  1  0.36964324  0.86947373  0.11987071  1
  O  O435  1  0.36737856  0.87356226  0.61754193  1
  O  O436  1  0.87063740  0.36979707  0.11914532  1
  O  O437  1  0.86890714  0.37361754  0.61715999  1
  O  O438  1  0.86845229  0.87248962  0.11839576  1
  O  O439  1  0.86804385  0.87126398  0.62097714  1
  O  O440  1  0.13146686  0.12461324  0.38167028  1
  O  O441  1  0.13834096  0.12682112  0.87392020  1
  O  O442  1  0.12580466  0.63599615  0.38032216  1
  O  O443  1  0.12268300  0.63141648  0.88135675  1
  O  O444  1  0.62670290  0.13324134  0.38231459  1
  O  O445  1  0.63156032  0.12965576  0.88182946  1
  O  O446  1  0.63023951  0.63147482  0.38123002  1
  O  O447  1  0.63056491  0.63038025  0.88153281  1
