# generated using pymatgen
data_V3Zn3O8
_symmetry_space_group_name_H-M   'P 1'
_cell_length_a   17.08865242
_cell_length_b   17.08759960
_cell_length_c   17.08962274
_cell_angle_alpha   89.99509459
_cell_angle_beta   90.01544056
_cell_angle_gamma   90.00199867
_symmetry_Int_Tables_number   1
_chemical_formula_structural   V3Zn3O8
_chemical_formula_sum   'V96 Zn96 O256'
_cell_volume   4990.23885538
_cell_formula_units_Z   32
loop_
 _symmetry_equiv_pos_site_id
 _symmetry_equiv_pos_as_xyz
  1  'x, y, z'
loop_
 _atom_site_type_symbol
 _atom_site_label
 _atom_site_symmetry_multiplicity
 _atom_site_fract_x
 _atom_site_fract_y
 _atom_site_fract_z
 _atom_site_occupancy
  V  V0  1  0.62694810  0.12807562  -0.00193342  1
  V  V1  1  0.87476193  0.62424458  0.24946029  1
  V  V2  1  0.37385551  0.12459296  0.75079453  1
  V  V3  1  0.75007247  0.37395936  0.12427276  1
  V  V4  1  0.24870096  0.12500705  0.87374515  1
  V  V5  1  0.50036038  0.50078793  0.00035797  1
  V  V6  1  0.24965745  0.49988382  0.24989519  1
  V  V7  1  0.50010449  0.74998042  0.25065494  1
  V  V8  1  0.62457688  0.37528343  0.74955435  1
  V  V9  1  0.00026237  -0.00095795  0.50011665  1
  V  V10  1  0.75057603  0.50003141  0.74944889  1
  V  V11  1  0.62414185  0.50043949  0.12453411  1
  V  V12  1  0.12453382  0.24967173  0.87433357  1
  V  V13  1  0.87540819  0.74962486  0.12349974  1
  V  V14  1  0.37567980  0.37494023  0.49966956  1
  V  V15  1  0.62413406  0.37508067  0.25004306  1
  V  V16  1  -0.00135412  0.37624677  0.87596704  1
  V  V17  1  0.49989337  0.37541310  0.37541929  1
  V  V18  1  0.87405647  0.25137972  0.12467549  1
  V  V19  1  0.25091656  0.50068759  0.75012043  1
  V  V20  1  0.50015968  0.74968604  0.74955784  1
  V  V21  1  0.00141679  0.12493838  0.12588468  1
  V  V22  1  0.37487582  0.37518909  0.00028399  1
  V  V23  1  0.49981271  -0.00114152  -0.00053726  1
  V  V24  1  0.37537502  0.75022052  0.12540315  1
  V  V25  1  0.50083906  0.49985370  0.50015282  1
  V  V26  1  0.49985717  0.87557681  0.87576617  1
  V  V27  1  0.12543083  0.25085027  0.37552778  1
  V  V28  1  0.74965719  0.50059233  0.25045878  1
  V  V29  1  -0.00150110  0.25096855  0.75070902  1
  V  V30  1  0.75030939  0.62552536  0.37424688  1
  V  V31  1  0.87469805  0.37583222  0.49957526  1
  V  V32  1  0.49891893  0.24932393  0.24960939  1
  V  V33  1  0.49977892  0.87447845  0.37567819  1
  V  V34  1  0.00215822  0.62546330  0.62492260  1
  V  V35  1  0.87549086  0.12547308  0.25054077  1
  V  V36  1  0.12414684  0.12472422  0.50046280  1
  V  V37  1  0.87348933  0.24995428  0.62459130  1
  V  V38  1  0.37486473  0.62476778  0.25038758  1
  V  V39  1  0.24809638  0.00076384  0.75136542  1
  V  V40  1  0.62444035  0.50002396  0.62465694  1
  V  V41  1  0.12466538  0.00144480  0.12555905  1
  V  V42  1  0.49960921  0.12459837  0.12539774  1
  V  V43  1  0.74941898  0.12499579  0.37556059  1
  V  V44  1  0.24972198  0.37481801  0.62499778  1
  V  V45  1  0.50062426  0.25009473  0.74986825  1
  V  V46  1  0.87528113  -0.00028130  0.37482187  1
  V  V47  1  0.00162846  0.74992109  0.24944035  1
  V  V48  1  0.12525198  0.62469520  -0.00050586  1
  V  V49  1  0.12480154  0.37519222  0.74958216  1
  V  V50  1  0.12379966  0.87594870  0.75126905  1
  V  V51  1  0.12556581  0.50064805  0.62481271  1
  V  V52  1  0.74979372  0.74941745  -0.00110464  1
  V  V53  1  0.75075752  -0.00029235  0.24926987  1
  V  V54  1  0.12479763  0.49888435  0.12560073  1
  V  V55  1  0.75073714  0.74974645  0.49795180  1
  V  V56  1  0.25055531  0.87483097  0.12440704  1
  V  V57  1  0.75104549  0.87569678  0.12509686  1
  V  V58  1  0.25014935  0.62580414  0.87577725  1
  V  V59  1  0.87320253  0.00077500  0.87467448  1
  V  V60  1  0.12531090  0.37559814  0.25029754  1
  V  V61  1  0.62523551  0.24904092  0.37509800  1
  V  V62  1  0.50038980  0.37450017  0.87369948  1
  V  V63  1  0.25109263  -0.00013151  0.25056095  1
  V  V64  1  0.00017959  0.75008837  0.75011746  1
  V  V65  1  0.00057676  0.25035300  0.25046316  1
  V  V66  1  0.25047150  0.74993471  0.00064479  1
  V  V67  1  0.62554140  0.87510884  0.74908081  1
  V  V68  1  0.37547945  0.50019506  0.87500965  1
  V  V69  1  0.49922105  -0.00062062  0.50013827  1
  V  V70  1  0.37577638  0.12408531  0.24984961  1
  V  V71  1  0.87523201  0.87486287  0.49922966  1
  V  V72  1  0.62517684  0.62539418  0.00001717  1
  V  V73  1  0.62524368  0.75030730  0.37426131  1
  V  V74  1  0.87577534  0.87523189  -0.00103285  1
  V  V75  1  0.37440262  0.24925456  0.62492036  1
  V  V76  1  0.87533969  0.62430309  0.74904611  1
  V  V77  1  0.12487465  0.87354637  0.25053859  1
  V  V78  1  -0.00098169  0.87467765  0.87441178  1
  V  V79  1  0.87270694  0.12489789  0.75075468  1
  V  V80  1  0.49994162  0.12389305  0.62485747  1
  V  V81  1  0.25054694  0.62640896  0.37583983  1
  V  V82  1  0.25090161  0.87447516  0.62541107  1
  V  V83  1  0.12643401  0.62665988  0.50001466  1
  V  V84  1  0.37536662  -0.00123104  0.37526878  1
  V  V85  1  -0.00022368  0.62427219  0.12392122  1
  V  V86  1  -0.00120276  0.49855100  -0.00106470  1
  V  V87  1  -0.00072962  0.37577573  0.37587702  1
  V  V88  1  0.62639015  -0.00017966  0.12539414  1
  V  V89  1  0.37620987  0.62584376  0.74980200  1
  V  V90  1  0.24910821  0.24989076  0.49991625  1
  V  V91  1  0.74909027  0.87536376  0.62509058  1
  V  V92  1  0.25049488  0.25040745  0.00020881  1
  V  V93  1  0.62451381  0.12455256  0.49983659  1
  V  V94  1  0.62587547  0.74955411  0.87533541  1
  V  V95  1  0.50034074  0.62525685  0.62493409  1
  Zn  Zn96  1  0.25127324  0.12430134  0.37489807  1
  Zn  Zn97  1  0.37436743  0.25088800  0.12569732  1
  Zn  Zn98  1  0.74940649  0.12838951  0.87568517  1
  Zn  Zn99  1  0.00094910  0.00151628  0.00122503  1
  Zn  Zn100  1  0.00210244  0.87208449  0.37516804  1
  Zn  Zn101  1  0.49984239  0.62563752  0.12608561  1
  Zn  Zn102  1  0.87630391  0.74984366  0.62262760  1
  Zn  Zn103  1  0.87541487  0.50043712  0.37542100  1
  Zn  Zn104  1  0.25111030  0.37445115  0.12621961  1
  Zn  Zn105  1  0.87419825  0.49855147  0.87629806  1
  Zn  Zn106  1  0.62729068  0.25022244  0.87403568  1
  Zn  Zn107  1  0.87265055  0.37503549  -0.00142013  1
  Zn  Zn108  1  0.25258989  0.75177893  0.50123533  1
  Zn  Zn109  1  0.37490849  0.87585462  -0.00063515  1
  Zn  Zn110  1  0.12477476  0.75100900  0.37506425  1
  Zn  Zn111  1  0.74888881  0.24968429  0.49988779  1
  Zn  Zn112  1  0.12401088  0.12423270  0.00019842  1
  Zn  Zn113  1  0.37457254  0.87308445  0.50158505  1
  Zn  Zn114  1  0.75092359  0.62488244  0.87477341  1
  Zn  Zn115  1  0.62410555  0.00070013  0.62623751  1
  Zn  Zn116  1  0.74876045  0.37492053  0.62318836  1
  Zn  Zn117  1  0.37364847  -0.00125801  0.87711840  1
  Zn  Zn118  1  0.74738878  0.00106365  0.74958624  1
  Zn  Zn119  1  0.12346894  0.00059759  0.62583236  1
  Zn  Zn120  1  0.75122157  0.25249590  -0.00260544  1
  Zn  Zn121  1  0.37616913  0.49989861  0.37477557  1
  Zn  Zn122  1  0.62562476  0.87504070  0.24974778  1
  Zn  Zn123  1  0.12526936  0.75099470  0.87640739  1
  Zn  Zn124  1  0.37578963  0.75060980  0.62386125  1
  Zn  Zn125  1  -0.00051769  0.50176676  0.49851984  1
  Zn  Zn126  1  -0.00114905  0.12391121  0.62574792  1
  Zn  Zn127  1  0.62556489  0.62453753  0.49977858  1
  Zn  Zn128  1  0.18922190  0.18708598  0.18739554  1
  Zn  Zn129  1  0.18602001  0.18712886  0.68635050  1
  Zn  Zn130  1  0.18762440  0.68708027  0.18675121  1
  Zn  Zn131  1  0.18748208  0.69041368  0.68952546  1
  Zn  Zn132  1  0.68745492  0.18751396  0.18676199  1
  Zn  Zn133  1  0.68714617  0.18798694  0.68672197  1
  Zn  Zn134  1  0.68677500  0.68804681  0.18690222  1
  Zn  Zn135  1  0.68696277  0.68821528  0.68534234  1
  Zn  Zn136  1  0.31257567  0.31195878  0.31334321  1
  Zn  Zn137  1  0.31306255  0.31230119  0.81292389  1
  Zn  Zn138  1  0.31328106  0.81233946  0.31241694  1
  Zn  Zn139  1  0.31365154  0.81289060  0.81344340  1
  Zn  Zn140  1  0.81157490  0.31226543  0.31235279  1
  Zn  Zn141  1  0.81019530  0.31345442  0.81529968  1
  Zn  Zn142  1  0.81445795  0.81287362  0.31176573  1
  Zn  Zn143  1  0.81269087  0.81100808  0.81111808  1
  Zn  Zn144  1  0.18765721  0.43935685  0.43723123  1
  Zn  Zn145  1  0.18669895  0.43749836  0.93728048  1
  Zn  Zn146  1  0.18791643  0.93675330  0.43649048  1
  Zn  Zn147  1  0.18576006  0.93825538  0.93900922  1
  Zn  Zn148  1  0.68846436  0.43757561  0.43722477  1
  Zn  Zn149  1  0.68734848  0.43757527  0.93649740  1
  Zn  Zn150  1  0.68579992  0.93776795  0.43740932  1
  Zn  Zn151  1  0.68744667  0.93810156  0.93738680  1
  Zn  Zn152  1  0.31321069  0.06256692  0.06193737  1
  Zn  Zn153  1  0.31186329  0.06005972  0.56319513  1
  Zn  Zn154  1  0.31229737  0.56260293  0.06399799  1
  Zn  Zn155  1  0.31472909  0.56218675  0.56265655  1
  Zn  Zn156  1  0.81347797  0.06382527  0.06236194  1
  Zn  Zn157  1  0.81153873  0.06169423  0.56211741  1
  Zn  Zn158  1  0.81181145  0.56090416  0.06210858  1
  Zn  Zn159  1  0.81236961  0.56240089  0.56261855  1
  Zn  Zn160  1  0.43584974  0.43786923  0.18651923  1
  Zn  Zn161  1  0.43770343  0.43789977  0.68645043  1
  Zn  Zn162  1  0.43838180  0.93636593  0.18750415  1
  Zn  Zn163  1  0.43610173  0.93892011  0.68947639  1
  Zn  Zn164  1  0.93661836  0.43741773  0.18720902  1
  Zn  Zn165  1  0.93866600  0.43843835  0.68540377  1
  Zn  Zn166  1  0.93904780  0.93712931  0.18764933  1
  Zn  Zn167  1  0.93590590  0.93729310  0.68635878  1
  Zn  Zn168  1  0.06354419  0.06176107  0.31344090  1
  Zn  Zn169  1  0.06063515  0.06255080  0.81287823  1
  Zn  Zn170  1  0.06166014  0.56171696  0.31377430  1
  Zn  Zn171  1  0.06311882  0.56227422  0.81366356  1
  Zn  Zn172  1  0.56261445  0.06100330  0.31261130  1
  Zn  Zn173  1  0.56199998  0.06079114  0.81274770  1
  Zn  Zn174  1  0.56272946  0.56376113  0.31364685  1
  Zn  Zn175  1  0.56355657  0.56302302  0.81319027  1
  Zn  Zn176  1  0.43752037  0.18631914  0.43649277  1
  Zn  Zn177  1  0.43767341  0.18688139  0.93602118  1
  Zn  Zn178  1  0.43610120  0.68920190  0.44029476  1
  Zn  Zn179  1  0.43793311  0.68839216  0.93848041  1
  Zn  Zn180  1  0.93799317  0.18772719  0.43729492  1
  Zn  Zn181  1  0.93795299  0.18811783  0.94063213  1
  Zn  Zn182  1  0.93808541  0.68824369  0.43539937  1
  Zn  Zn183  1  0.93774672  0.68645514  0.93509981  1
  Zn  Zn184  1  0.06252424  0.31265692  0.06240753  1
  Zn  Zn185  1  0.05985633  0.31210014  0.56306889  1
  Zn  Zn186  1  0.06325998  0.81353240  0.06213456  1
  Zn  Zn187  1  0.06461155  0.81225537  0.56468786  1
  Zn  Zn188  1  0.56114425  0.31238056  0.06334772  1
  Zn  Zn189  1  0.56263800  0.31186905  0.56306301  1
  Zn  Zn190  1  0.56268304  0.81288797  0.06358445  1
  Zn  Zn191  1  0.56331157  0.81151661  0.56092101  1
  O  O192  1  0.11849918  0.11897727  0.12672226  1
  O  O193  1  0.12060497  0.12413847  0.61283944  1
  O  O194  1  0.11898244  0.61852841  0.11941752  1
  O  O195  1  0.12320356  0.62037651  0.61833972  1
  O  O196  1  0.61962720  0.11941848  0.11797794  1
  O  O197  1  0.61819154  0.12416459  0.61850281  1
  O  O198  1  0.62369092  0.61833095  0.11819728  1
  O  O199  1  0.61823488  0.61783505  0.62346079  1
  O  O200  1  0.38192980  0.37581817  0.38214332  1
  O  O201  1  0.38054579  0.38154413  0.87919868  1
  O  O202  1  0.38146438  0.88149219  0.37612572  1
  O  O203  1  0.38444704  0.87704116  0.87794811  1
  O  O204  1  0.88025412  0.37328756  0.38447562  1
  O  O205  1  0.88402481  0.37770296  0.87618166  1
  O  O206  1  0.87697386  0.88272050  0.38147957  1
  O  O207  1  0.87888544  0.88225577  0.87825094  1
  O  O208  1  0.25700059  0.00099885  0.36798575  1
  O  O209  1  0.24962102  0.00725669  0.86925166  1
  O  O210  1  0.25085416  0.51071068  0.36926610  1
  O  O211  1  0.25579831  0.50520009  0.86943163  1
  O  O212  1  0.75554296  0.00554278  0.36956625  1
  O  O213  1  0.76326167  0.00093640  0.87231332  1
  O  O214  1  0.75086507  0.50666379  0.36737947  1
  O  O215  1  0.75080360  0.50285157  0.86096019  1
  O  O216  1  0.24205140  0.49873135  0.13168554  1
  O  O217  1  0.24549007  0.49411161  0.63098441  1
  O  O218  1  0.24519030  0.99510319  0.13112497  1
  O  O219  1  0.24696411  0.99180628  0.63249494  1
  O  O220  1  0.74339487  0.49436090  0.13128538  1
  O  O221  1  0.74414756  0.49927479  0.63479555  1
  O  O222  1  0.74682872  0.99514159  0.13007451  1
  O  O223  1  0.74835147  0.98672028  0.62514800  1
  O  O224  1  0.00526817  0.36950102  0.25584168  1
  O  O225  1  0.00595965  0.37064774  0.75462207  1
  O  O226  1  0.00679194  0.86782053  0.24978043  1
  O  O227  1  0.00315121  0.87031458  0.75389606  1
  O  O228  1  0.50490055  0.36998113  0.25531315  1
  O  O229  1  0.50415807  0.37017279  0.75406033  1
  O  O230  1  0.50204354  0.86800619  0.25733896  1
  O  O231  1  0.50597793  0.86955991  0.75499360  1
  O  O232  1  0.49581100  0.12955006  0.24495493  1
  O  O233  1  0.49430910  0.13006205  0.74460484  1
  O  O234  1  0.49265638  0.63163151  0.25019838  1
  O  O235  1  0.49555232  0.62954905  0.74541252  1
  O  O236  1  0.99483879  0.13116418  0.24698258  1
  O  O237  1  0.98839139  0.13123766  0.74841830  1
  O  O238  1  0.99520939  0.62899589  0.24294609  1
  O  O239  1  0.99407410  0.62870446  0.74508415  1
  O  O240  1  0.36537185  0.25586531  -0.00141458  1
  O  O241  1  0.36946132  0.25459533  0.50539479  1
  O  O242  1  0.36835728  0.75064128  0.00751328  1
  O  O243  1  0.37022648  0.75454512  0.50615187  1
  O  O244  1  0.87284884  0.25259784  0.01038691  1
  O  O245  1  0.87512105  0.25675674  0.50833470  1
  O  O246  1  0.86991831  0.75435572  0.00419485  1
  O  O247  1  0.86917410  0.75690414  0.50066619  1
  O  O248  1  0.12821193  0.24325801  0.49619779  1
  O  O249  1  0.13521042  0.24998262  0.99328786  1
  O  O250  1  0.12886244  0.73699299  0.49963262  1
  O  O251  1  0.13171393  0.74227858  0.99978401  1
  O  O252  1  0.62574532  0.24344534  0.49326495  1
  O  O253  1  0.62392729  0.23804963  1.00007504  1
  O  O254  1  0.63284616  0.74789849  0.49190507  1
  O  O255  1  0.63068540  0.74530541  0.99522986  1
  O  O256  1  0.49826386  0.24304208  0.13238312  1
  O  O257  1  0.49301920  0.24399847  0.62994725  1
  O  O258  1  0.49400959  0.74902798  0.13207280  1
  O  O259  1  0.50076611  0.74352744  0.63252489  1
  O  O260  1  0.99543483  0.24548124  0.13256359  1
  O  O261  1  0.98838106  0.24877314  0.63154554  1
  O  O262  1  0.99423599  0.74334217  0.12850535  1
  O  O263  1  0.99884015  0.74302161  0.63205720  1
  O  O264  1  0.00585614  0.25540916  0.36950817  1
  O  O265  1  0.00494028  0.25557507  0.86956786  1
  O  O266  1  0.00350929  0.75130295  0.36506362  1
  O  O267  1  0.00035632  0.75714116  0.86784133  1
  O  O268  1  0.50592084  0.25528564  0.36943287  1
  O  O269  1  0.50104995  0.25697060  0.86696932  1
  O  O270  1  0.50507747  0.75484532  0.37039828  1
  O  O271  1  0.50670349  0.75522764  0.86992518  1
  O  O272  1  0.24004234  0.13043860  0.49966615  1
  O  O273  1  0.24916477  0.13547972  0.99352392  1
  O  O274  1  0.24309854  0.62380583  0.49275834  1
  O  O275  1  0.24471952  0.62928205  0.99515801  1
  O  O276  1  0.74377312  0.12573492  0.49301025  1
  O  O277  1  0.73774301  0.12608220  1.00080836  1
  O  O278  1  0.75036202  0.63143899  0.49314864  1
  O  O279  1  0.74417753  0.63135022  0.99798953  1
  O  O280  1  0.25546200  0.36554491  -0.00186819  1
  O  O281  1  0.25440390  0.37002154  0.50577723  1
  O  O282  1  0.25026344  0.86816112  0.00704878  1
  O  O283  1  0.24922180  0.87509212  0.51250751  1
  O  O284  1  0.75035085  0.37473488  0.00936555  1
  O  O285  1  0.76123568  0.37157765  0.50135884  1
  O  O286  1  0.75637543  0.86946804  0.00522622  1
  O  O287  1  0.75477063  0.87050961  0.50624730  1
  O  O288  1  0.12955644  0.49514142  0.24509681  1
  O  O289  1  0.13179741  0.49494024  0.74458662  1
  O  O290  1  0.13111812  0.99442779  0.24574571  1
  O  O291  1  0.12912555  0.99461522  0.74813975  1
  O  O292  1  0.62942538  0.49453215  0.24465649  1
  O  O293  1  0.63211080  0.49618143  0.74451181  1
  O  O294  1  0.63309919  0.99964124  0.24319281  1
  O  O295  1  0.62829973  0.99170922  0.74726424  1
  O  O296  1  0.37074022  0.00475888  0.25519198  1
  O  O297  1  0.36687055  0.00851300  0.75302091  1
  O  O298  1  0.36798779  0.50624949  0.25188137  1
  O  O299  1  0.37000897  0.50503690  0.75546478  1
  O  O300  1  0.87064723  0.00605715  0.25510593  1
  O  O301  1  0.87443571  0.00873702  0.75696772  1
  O  O302  1  0.86757178  0.50663028  0.25014555  1
  O  O303  1  0.86717774  0.50758129  0.74781696  1
  O  O304  1  0.11948425  0.37000121  0.37089500  1
  O  O305  1  0.11999481  0.36963005  0.86772947  1
  O  O306  1  0.12399336  0.87139385  0.36638427  1
  O  O307  1  0.11668137  0.87470757  0.86910837  1
  O  O308  1  0.61986484  0.36894489  0.36936555  1
  O  O309  1  0.61687386  0.37556281  0.86704303  1
  O  O310  1  0.61861081  0.86854713  0.37251847  1
  O  O311  1  0.62070652  0.86901053  0.86939601  1
  O  O312  1  0.38260724  0.12580523  0.13204068  1
  O  O313  1  0.37913713  0.13090276  0.63039175  1
  O  O314  1  0.37553119  0.63184765  0.13275070  1
  O  O315  1  0.38206425  0.62464202  0.63332388  1
  O  O316  1  0.88057425  0.13039217  0.13245616  1
  O  O317  1  0.87519514  0.13266096  0.63257625  1
  O  O318  1  0.88031280  0.63050483  0.12947030  1
  O  O319  1  0.88214365  0.62528887  0.63420627  1
  O  O320  1  0.25150112  0.25179486  0.11262599  1
  O  O321  1  0.25457705  0.25586097  0.61981780  1
  O  O322  1  0.25548662  0.75485693  0.12035688  1
  O  O323  1  0.25154010  0.76256429  0.62707607  1
  O  O324  1  0.75633582  0.25696001  0.12612564  1
  O  O325  1  0.76293387  0.25243137  0.62398313  1
  O  O326  1  0.75615078  0.75551109  0.11895074  1
  O  O327  1  0.75108768  0.75990917  0.61772198  1
  O  O328  1  0.24288210  0.24844511  0.38283041  1
  O  O329  1  0.24436030  0.24587664  0.88101211  1
  O  O330  1  0.24753496  0.73654503  0.37531294  1
  O  O331  1  0.24924309  0.74286540  0.88201866  1
  O  O332  1  0.74281069  0.24227814  0.37471842  1
  O  O333  1  0.74471818  0.24664986  0.87949127  1
  O  O334  1  0.74561949  0.74545416  0.37827303  1
  O  O335  1  0.74390159  0.74896322  0.88121039  1
  O  O336  1  0.00321890  0.12358616  0.01012470  1
  O  O337  1  0.00720183  0.11710085  0.50048303  1
  O  O338  1  0.00510581  0.61963516  0.00459050  1
  O  O339  1  0.00989365  0.62470538  0.50511740  1
  O  O340  1  0.50750499  0.11968300  0.00485826  1
  O  O341  1  0.50464164  0.11993565  0.50544226  1
  O  O342  1  0.50661629  0.61808657  0.00146128  1
  O  O343  1  0.50120121  0.61758643  0.50653398  1
  O  O344  1  0.49481151  0.37929311  0.49521565  1
  O  O345  1  0.49507494  0.38080162  0.99387413  1
  O  O346  1  0.49913006  0.88182359  0.49390853  1
  O  O347  1  0.50127285  0.88158646  0.99370193  1
  O  O348  1  0.99072684  0.37533788  0.49487545  1
  O  O349  1  1.00017713  0.38128133  0.99339695  1
  O  O350  1  0.99586700  0.88338025  0.49960453  1
  O  O351  1  0.99239185  0.87622974  0.99352768  1
  O  O352  1  0.49981392  0.49265220  0.38152597  1
  O  O353  1  0.49438140  0.49458161  0.87989745  1
  O  O354  1  0.49502991  0.99424196  0.37983495  1
  O  O355  1  0.49910026  0.99270701  0.88187682  1
  O  O356  1  0.99640706  0.49160831  0.37775321  1
  O  O357  1  1.00034078  0.49325814  0.88100275  1
  O  O358  1  0.99429161  0.99899825  0.38529909  1
  O  O359  1  0.98763548  0.99435622  0.87557731  1
  O  O360  1  0.00637254  0.00745250  0.12604312  1
  O  O361  1  -0.00049554  0.00163448  0.61159279  1
  O  O362  1  0.00532436  0.50540191  0.11989313  1
  O  O363  1  0.00894347  0.50734636  0.62338559  1
  O  O364  1  0.50694411  0.00474969  0.12024252  1
  O  O365  1  0.50023530  0.00691719  0.61890494  1
  O  O366  1  0.50679486  0.50123617  0.11823943  1
  O  O367  1  0.50542362  0.50505107  0.62025824  1
  O  O368  1  0.24290324  0.38115953  0.25049821  1
  O  O369  1  0.24497800  0.38035493  0.74459957  1
  O  O370  1  0.24497580  0.87996925  0.24379146  1
  O  O371  1  0.24385002  0.88073971  0.74570668  1
  O  O372  1  0.74306642  0.38055076  0.24552920  1
  O  O373  1  0.74488048  0.38538157  0.74754939  1
  O  O374  1  0.75109408  0.88221321  0.24249648  1
  O  O375  1  0.74527903  0.87376325  0.73976275  1
  O  O376  1  0.25706713  0.11812568  0.25175432  1
  O  O377  1  0.25345495  0.12137910  0.75401042  1
  O  O378  1  0.25347567  0.61997772  0.25809903  1
  O  O379  1  0.25534751  0.61952986  0.75538381  1
  O  O380  1  0.75604413  0.11918701  0.25521745  1
  O  O381  1  0.76195858  0.12349770  0.75098377  1
  O  O382  1  0.75560961  0.62043605  0.25373579  1
  O  O383  1  0.75848978  0.61774850  0.74797167  1
  O  O384  1  0.37455300  0.11734114  0.36786239  1
  O  O385  1  0.36688300  0.12480037  0.86723590  1
  O  O386  1  0.36538937  0.62327706  0.37000064  1
  O  O387  1  0.37031523  0.61885336  0.86979986  1
  O  O388  1  0.86995845  0.12019289  0.36973781  1
  O  O389  1  0.87541016  0.11786067  0.86729905  1
  O  O390  1  0.86844806  0.62375545  0.36704871  1
  O  O391  1  0.87398942  0.62170878  0.86044175  1
  O  O392  1  0.12560960  0.38137301  0.13299314  1
  O  O393  1  0.13013092  0.37937954  0.62999107  1
  O  O394  1  0.13093279  0.88111933  0.13091081  1
  O  O395  1  0.13367698  0.87756945  0.63262012  1
  O  O396  1  0.62917900  0.38040325  0.13135865  1
  O  O397  1  0.62608185  0.38146247  0.63167325  1
  O  O398  1  0.63368742  0.88195205  0.12588592  1
  O  O399  1  0.63415965  0.87520355  0.63014937  1
  O  O400  1  0.12050008  0.25530632  0.25575537  1
  O  O401  1  0.11880965  0.25574272  0.75367874  1
  O  O402  1  0.11861820  0.75562436  0.24824933  1
  O  O403  1  0.11737366  0.75695580  0.75389445  1
  O  O404  1  0.61871238  0.25510649  0.25531416  1
  O  O405  1  0.61765671  0.25683821  0.74902603  1
  O  O406  1  0.61887045  0.75165166  0.25611500  1
  O  O407  1  0.61988211  0.75480965  0.75563804  1
  O  O408  1  0.38130975  0.24301973  0.24965341  1
  O  O409  1  0.37959452  0.24515398  0.74357190  1
  O  O410  1  0.38004557  0.74398830  0.24495320  1
  O  O411  1  0.38298991  0.74244949  0.74989207  1
  O  O412  1  0.88138563  0.24456914  0.24584685  1
  O  O413  1  0.87873892  0.24387506  0.74355840  1
  O  O414  1  0.88065568  0.74420909  0.24233478  1
  O  O415  1  0.88029149  0.73965540  0.74707500  1
  O  O416  1  0.38209105  0.49173822  0.49935621  1
  O  O417  1  0.37972091  0.49566856  0.99412556  1
  O  O418  1  0.38168778  0.99917218  0.49302919  1
  O  O419  1  0.38427619  0.99786830  0.99829905  1
  O  O420  1  0.87687640  0.48802298  0.49975732  1
  O  O421  1  0.88313297  0.49816508  0.99749046  1
  O  O422  1  0.88251991  0.99606943  0.49449675  1
  O  O423  1  0.87597743  0.99458012  0.99084751  1
  O  O424  1  0.12220490  0.00337541  0.00970978  1
  O  O425  1  0.11643122  0.00851906  0.49908323  1
  O  O426  1  0.11973787  0.50515598  0.00563984  1
  O  O427  1  0.12527939  0.51055685  0.50649255  1
  O  O428  1  0.62045879  0.00828710  0.00560667  1
  O  O429  1  0.61710354  0.00752297  0.50074138  1
  O  O430  1  0.61971397  0.50544886  0.00477568  1
  O  O431  1  0.61910146  0.49989926  0.50692965  1
  O  O432  1  0.37199989  0.37229874  0.11595287  1
  O  O433  1  0.36925317  0.36889195  0.62004295  1
  O  O434  1  0.36781090  0.86800580  0.12444637  1
  O  O435  1  0.36250795  0.87491006  0.62682336  1
  O  O436  1  0.86782109  0.36823479  0.12607187  1
  O  O437  1  0.87550831  0.36642051  0.61694769  1
  O  O438  1  0.87070874  0.86935341  0.11884888  1
  O  O439  1  0.86541049  0.87340470  0.61838252  1
  O  O440  1  0.12577221  0.13154639  0.38560549  1
  O  O441  1  0.12998381  0.13286024  0.87492088  1
  O  O442  1  0.13325281  0.62425198  0.38373823  1
  O  O443  1  0.13257648  0.62563952  0.88177869  1
  O  O444  1  0.62963838  0.12991729  0.37971613  1
  O  O445  1  0.62583475  0.12482083  0.88608274  1
  O  O446  1  0.63281659  0.63216907  0.37626290  1
  O  O447  1  0.62686317  0.63198290  0.88149344  1
