# generated using pymatgen
data_V3Zn3O8
_symmetry_space_group_name_H-M   'P 1'
_cell_length_a   17.08582963
_cell_length_b   17.08704363
_cell_length_c   17.08738682
_cell_angle_alpha   89.99698150
_cell_angle_beta   90.00319480
_cell_angle_gamma   90.00718659
_symmetry_Int_Tables_number   1
_chemical_formula_structural   V3Zn3O8
_chemical_formula_sum   'V96 Zn96 O256'
_cell_volume   4988.59958679
_cell_formula_units_Z   32
loop_
 _symmetry_equiv_pos_site_id
 _symmetry_equiv_pos_as_xyz
  1  'x, y, z'
loop_
 _atom_site_type_symbol
 _atom_site_label
 _atom_site_symmetry_multiplicity
 _atom_site_fract_x
 _atom_site_fract_y
 _atom_site_fract_z
 _atom_site_occupancy
  V  V0  1  0.24979279  0.74958391  0.00046266  1
  V  V1  1  -0.00007769  0.37369091  0.87397905  1
  V  V2  1  -0.00014606  0.74809402  0.74981168  1
  V  V3  1  0.62458193  0.25060527  0.87428269  1
  V  V4  1  0.62515858  0.12411485  -0.00056903  1
  V  V5  1  0.24897654  0.62344491  0.87505030  1
  V  V6  1  0.37455060  0.37447354  0.00048218  1
  V  V7  1  0.87334388  0.62482003  0.25165036  1
  V  V8  1  0.12619049  0.12519572  0.49971958  1
  V  V9  1  0.12372456  0.74911867  0.87468429  1
  V  V10  1  0.75081598  0.87439551  0.12459284  1
  V  V11  1  0.24955950  0.62510171  0.37405286  1
  V  V12  1  0.50070479  0.00051578  0.49974197  1
  V  V13  1  0.37621690  0.12541657  0.74953102  1
  V  V14  1  0.62494101  0.62514445  0.00049853  1
  V  V15  1  -0.00082374  0.49873599  0.00035208  1
  V  V16  1  0.87711052  0.24817683  0.12502905  1
  V  V17  1  0.12656707  -0.00013333  0.62555224  1
  V  V18  1  0.87323885  0.49947659  0.87439235  1
  V  V19  1  0.37493104  0.62590694  0.74946912  1
  V  V20  1  0.37460119  0.62558426  0.24923595  1
  V  V21  1  0.62601827  0.00082974  0.62480764  1
  V  V22  1  0.62645881  -0.00028162  0.12488240  1
  V  V23  1  -0.00017991  0.50050178  0.50065806  1
  V  V24  1  0.62451715  0.87509423  0.25084777  1
  V  V25  1  0.87367949  0.37480314  0.50005149  1
  V  V26  1  0.50036342  0.12483200  0.12505773  1
  V  V27  1  -0.00119576  0.62379930  0.12579913  1
  V  V28  1  0.37539275  0.00127026  0.37492617  1
  V  V29  1  0.75192142  0.87531265  0.62530452  1
  V  V30  1  0.37544273  0.12450002  0.25072243  1
  V  V31  1  0.74876505  0.37559128  0.62433008  1
  V  V32  1  0.50038404  0.87566837  0.87544752  1
  V  V33  1  0.75005557  0.12525732  0.87411426  1
  V  V34  1  0.24989457  0.49966671  0.75014948  1
  V  V35  1  0.87394170  0.74963287  0.12481339  1
  V  V36  1  0.12373574  0.49995246  0.62473682  1
  V  V37  1  0.24947466  0.49991489  0.25015813  1
  V  V38  1  0.50086068  0.87591336  0.37450259  1
  V  V39  1  0.62478311  0.50103160  0.62576508  1
  V  V40  1  -0.00005381  0.87531114  0.37481402  1
  V  V41  1  0.87596242  -0.00004445  0.37385182  1
  V  V42  1  0.12519071  -0.00104960  0.12433136  1
  V  V43  1  0.75080877  0.00048141  0.74998292  1
  V  V44  1  0.25034286  0.25034614  0.49959956  1
  V  V45  1  0.12449147  0.62400107  0.00007766  1
  V  V46  1  0.50138479  0.25184857  0.25030751  1
  V  V47  1  0.25092600  0.12384227  0.87462170  1
  V  V48  1  0.49973716  0.75046898  0.74984473  1
  V  V49  1  0.74997872  0.25100834  0.49968224  1
  V  V50  1  0.87418879  0.50095611  0.37551880  1
  V  V51  1  0.50035990  0.37469426  0.87406103  1
  V  V52  1  0.75182760  0.12469960  0.37426659  1
  V  V53  1  0.50036665  -0.00111663  -0.00025981  1
  V  V54  1  -0.00044600  0.74935557  0.25006215  1
  V  V55  1  0.87442152  0.62453378  0.75011260  1
  V  V56  1  0.25036270  0.12511377  0.37537820  1
  V  V57  1  0.12557501  0.87495581  0.75064561  1
  V  V58  1  0.50020795  0.12629376  0.62532922  1
  V  V59  1  0.87577429  0.12554622  0.74861455  1
  V  V60  1  0.62390921  0.62767972  0.50016488  1
  V  V61  1  -0.00063467  -0.00143922  -0.00176918  1
  V  V62  1  0.24976902  0.37448072  0.12522847  1
  V  V63  1  0.49936598  0.50037255  0.00078803  1
  V  V64  1  -0.00051963  0.62411685  0.62517490  1
  V  V65  1  0.49793197  0.50153032  0.49904899  1
  V  V66  1  0.00004527  0.25008978  0.74923212  1
  V  V67  1  0.37529944  0.37621348  0.49923355  1
  V  V68  1  0.25001005  0.75105164  0.50110066  1
  V  V69  1  0.00150051  0.37293984  0.37305231  1
  V  V70  1  0.12574269  0.87480996  0.24878261  1
  V  V71  1  0.12484942  0.37396566  0.74997089  1
  V  V72  1  0.00015115  0.12501008  0.12473825  1
  V  V73  1  0.87590769  0.87452742  0.50161169  1
  V  V74  1  0.62566337  0.25116483  0.37397720  1
  V  V75  1  0.74979643  0.74890695  0.00039819  1
  V  V76  1  0.87504479  0.37440284  -0.00013106  1
  V  V77  1  0.87630233  -0.00075465  0.87517729  1
  V  V78  1  0.25027248  0.37473743  0.62470881  1
  V  V79  1  0.74824416  0.37593330  0.12740846  1
  V  V80  1  0.74885933  0.62646427  0.37576326  1
  V  V81  1  0.37533268  0.87492518  -0.00009265  1
  V  V82  1  0.62571295  0.12556840  0.49989156  1
  V  V83  1  0.75042169  0.24963650  -0.00045892  1
  V  V84  1  0.12466714  0.49821482  0.12599625  1
  V  V85  1  0.25079387  0.24924912  0.00156738  1
  V  V86  1  0.12499387  0.75004776  0.37467392  1
  V  V87  1  0.37484957  0.87542063  0.50052627  1
  V  V88  1  0.75141109  0.00038577  0.24989353  1
  V  V89  1  0.12645037  0.12415597  -0.00038707  1
  V  V90  1  0.49852906  0.62544233  0.12508370  1
  V  V91  1  0.49937677  0.75063380  0.25015116  1
  V  V92  1  0.24975703  0.87461048  0.12421418  1
  V  V93  1  0.00088279  0.12611390  0.62489309  1
  V  V94  1  0.74871629  0.50017626  0.75015950  1
  V  V95  1  0.62509205  0.87493501  0.75028988  1
  Zn  Zn96  1  0.87413380  0.24998077  0.62457182  1
  Zn  Zn97  1  0.50143662  0.25221721  0.74739692  1
  Zn  Zn98  1  0.87803938  0.12529875  0.25017268  1
  Zn  Zn99  1  0.12476827  0.24847527  0.37286925  1
  Zn  Zn100  1  0.37703013  0.25038456  0.62503892  1
  Zn  Zn101  1  0.49838131  0.62770454  0.62452919  1
  Zn  Zn102  1  0.62492958  0.75241445  0.37664630  1
  Zn  Zn103  1  0.00205650  0.00104635  0.49845399  1
  Zn  Zn104  1  0.74619793  0.49991511  0.25036379  1
  Zn  Zn105  1  0.25188359  -0.00181688  0.75089854  1
  Zn  Zn106  1  0.37407464  0.49842501  0.87480324  1
  Zn  Zn107  1  0.62369931  0.37531056  0.74902206  1
  Zn  Zn108  1  0.12460084  0.62527012  0.49983524  1
  Zn  Zn109  1  0.50124475  0.37687302  0.37317536  1
  Zn  Zn110  1  0.00231099  0.24804794  0.24923448  1
  Zn  Zn111  1  0.74932993  0.62502958  0.87502815  1
  Zn  Zn112  1  -0.00199862  0.87337170  0.87616502  1
  Zn  Zn113  1  0.25156360  0.87553481  0.62611524  1
  Zn  Zn114  1  0.74917659  0.75099523  0.50276430  1
  Zn  Zn115  1  0.62397731  0.49877435  0.12832143  1
  Zn  Zn116  1  0.25062590  0.00015584  0.24949290  1
  Zn  Zn117  1  0.37403246  0.50062947  0.37389681  1
  Zn  Zn118  1  0.62438946  0.37819559  0.25140797  1
  Zn  Zn119  1  0.37319352  0.75342637  0.62568602  1
  Zn  Zn120  1  0.87462922  0.74963647  0.62614803  1
  Zn  Zn121  1  0.12623578  0.37210614  0.25072888  1
  Zn  Zn122  1  0.37443527  0.75045891  0.12437556  1
  Zn  Zn123  1  0.87581635  0.87301100  -0.00203343  1
  Zn  Zn124  1  0.37491278  0.24929744  0.12604874  1
  Zn  Zn125  1  0.62787465  0.74976511  0.87456771  1
  Zn  Zn126  1  0.37596570  -0.00048044  0.87453219  1
  Zn  Zn127  1  0.12485085  0.24956933  0.87483859  1
  Zn  Zn128  1  0.18615064  0.18852592  0.18959307  1
  Zn  Zn129  1  0.18883632  0.18893918  0.68712279  1
  Zn  Zn130  1  0.18728414  0.68721276  0.18662907  1
  Zn  Zn131  1  0.18640273  0.68690784  0.68623482  1
  Zn  Zn132  1  0.68856955  0.18774832  0.18785444  1
  Zn  Zn133  1  0.68667971  0.19015436  0.68781425  1
  Zn  Zn134  1  0.68516172  0.68833542  0.18786656  1
  Zn  Zn135  1  0.68890437  0.68849372  0.68623482  1
  Zn  Zn136  1  0.31298670  0.31231867  0.31327000  1
  Zn  Zn137  1  0.31379184  0.30967744  0.81304306  1
  Zn  Zn138  1  0.31342633  0.81288197  0.31235292  1
  Zn  Zn139  1  0.31194371  0.81166551  0.81544607  1
  Zn  Zn140  1  0.81568353  0.31037408  0.31065528  1
  Zn  Zn141  1  0.81209828  0.31303061  0.81030554  1
  Zn  Zn142  1  0.81166341  0.81195837  0.31361738  1
  Zn  Zn143  1  0.81297800  0.81127698  0.81415427  1
  Zn  Zn144  1  0.18645407  0.43881405  0.43751274  1
  Zn  Zn145  1  0.18689793  0.43646422  0.93709945  1
  Zn  Zn146  1  0.18822569  0.93836495  0.43647292  1
  Zn  Zn147  1  0.18755469  0.93758786  0.93698072  1
  Zn  Zn148  1  0.68550033  0.43832709  0.43696698  1
  Zn  Zn149  1  0.68637687  0.43846859  0.93907818  1
  Zn  Zn150  1  0.68926027  0.93853850  0.43720880  1
  Zn  Zn151  1  0.68849947  0.93577556  0.93683727  1
  Zn  Zn152  1  0.31420729  0.06104559  0.06347680  1
  Zn  Zn153  1  0.31234163  0.06251260  0.56301328  1
  Zn  Zn154  1  0.31368035  0.56073890  0.06327755  1
  Zn  Zn155  1  0.31106258  0.56440478  0.56405281  1
  Zn  Zn156  1  0.81458334  0.06189322  0.06142778  1
  Zn  Zn157  1  0.81404297  0.06203938  0.56177091  1
  Zn  Zn158  1  0.81165073  0.56147008  0.06312291  1
  Zn  Zn159  1  0.81257099  0.56177394  0.56319102  1
  Zn  Zn160  1  0.43520455  0.43861758  0.18555424  1
  Zn  Zn161  1  0.43733025  0.43981616  0.68627994  1
  Zn  Zn162  1  0.43669340  0.93748436  0.18659450  1
  Zn  Zn163  1  0.43707147  0.93900275  0.68669178  1
  Zn  Zn164  1  0.93443511  0.43743494  0.18973545  1
  Zn  Zn165  1  0.93555434  0.43706295  0.68705675  1
  Zn  Zn166  1  0.93762873  0.93747882  0.18608879  1
  Zn  Zn167  1  0.94046088  0.93845463  0.68817727  1
  Zn  Zn168  1  0.06313553  0.06175888  0.31103762  1
  Zn  Zn169  1  0.06264455  0.06254660  0.81270085  1
  Zn  Zn170  1  0.06337029  0.56127514  0.31317787  1
  Zn  Zn171  1  0.06132583  0.56065661  0.81216737  1
  Zn  Zn172  1  0.56411049  0.06358985  0.31229319  1
  Zn  Zn173  1  0.56202031  0.06228367  0.81254623  1
  Zn  Zn174  1  0.56258776  0.56213455  0.31167164  1
  Zn  Zn175  1  0.56247106  0.56212380  0.81466265  1
  Zn  Zn176  1  0.43757902  0.18921855  0.43705647  1
  Zn  Zn177  1  0.43673117  0.18900078  0.93773844  1
  Zn  Zn178  1  0.43539398  0.68921268  0.43411769  1
  Zn  Zn179  1  0.43698440  0.68889344  0.93590357  1
  Zn  Zn180  1  0.93750695  0.18755990  0.43917330  1
  Zn  Zn181  1  0.93816435  0.18668588  0.93724264  1
  Zn  Zn182  1  0.93761576  0.68867543  0.43896507  1
  Zn  Zn183  1  0.93646519  0.68633505  0.93648495  1
  Zn  Zn184  1  0.06449954  0.31076455  0.06189016  1
  Zn  Zn185  1  0.06275349  0.31146474  0.56113179  1
  Zn  Zn186  1  0.06128132  0.81252527  0.06165696  1
  Zn  Zn187  1  0.06229524  0.81178623  0.56356035  1
  Zn  Zn188  1  0.56295374  0.31143465  0.06181226  1
  Zn  Zn189  1  0.56243545  0.31319299  0.56240090  1
  Zn  Zn190  1  0.56276934  0.81097685  0.06413861  1
  Zn  Zn191  1  0.56193351  0.81372221  0.56459960  1
  O  O192  1  0.12111341  0.11826700  0.11839443  1
  O  O193  1  0.12150468  0.11748222  0.62137102  1
  O  O194  1  0.11815586  0.61886454  0.11947885  1
  O  O195  1  0.11779926  0.61722687  0.62414569  1
  O  O196  1  0.62102438  0.11903582  0.11876625  1
  O  O197  1  0.62109506  0.11957923  0.61935908  1
  O  O198  1  0.61826524  0.62447752  0.11486095  1
  O  O199  1  0.62376063  0.62016039  0.61442419  1
  O  O200  1  0.37670028  0.37873058  0.38853910  1
  O  O201  1  0.38453726  0.37460818  0.88081378  1
  O  O202  1  0.38143681  0.88180935  0.38026122  1
  O  O203  1  0.38147833  0.87737237  0.88136871  1
  O  O204  1  0.88122742  0.38088764  0.38060240  1
  O  O205  1  0.87994636  0.37966756  0.88046569  1
  O  O206  1  0.87948598  0.87941805  0.38243700  1
  O  O207  1  0.87748369  0.88383826  0.87622814  1
  O  O208  1  0.25800169  0.00674219  0.37379238  1
  O  O209  1  0.25261077  0.01282030  0.87436207  1
  O  O210  1  0.24979355  0.50741209  0.36886377  1
  O  O211  1  0.25035686  0.50593674  0.86780386  1
  O  O212  1  0.75571251  0.00535548  0.36916736  1
  O  O213  1  0.75470240  0.00632197  0.86912081  1
  O  O214  1  0.75487650  0.51173296  0.37634974  1
  O  O215  1  0.75599769  0.50017595  0.86927907  1
  O  O216  1  0.24358654  0.49472251  0.12979553  1
  O  O217  1  0.24394730  0.49468998  0.63075144  1
  O  O218  1  0.24275145  0.99272042  0.12543157  1
  O  O219  1  0.23725138  0.99920395  0.62761704  1
  O  O220  1  0.74999518  0.48715781  0.12603534  1
  O  O221  1  0.74376034  0.49513453  0.62973531  1
  O  O222  1  0.74547697  0.99481700  0.12946145  1
  O  O223  1  0.74488399  0.99601468  0.63090689  1
  O  O224  1  -0.00019385  0.37596028  0.26268373  1
  O  O225  1  0.00456514  0.37035615  0.75441593  1
  O  O226  1  0.00518126  0.86821505  0.25439888  1
  O  O227  1  0.01139612  0.86872771  0.75103386  1
  O  O228  1  0.49917791  0.36324685  0.25016055  1
  O  O229  1  0.49995471  0.37547958  0.76128443  1
  O  O230  1  0.50516577  0.87152420  0.25494380  1
  O  O231  1  0.50440916  0.86909581  0.75433927  1
  O  O232  1  0.49648740  0.13244940  0.24535724  1
  O  O233  1  0.49183640  0.12529964  0.74502770  1
  O  O234  1  0.49476273  0.63038065  0.24548520  1
  O  O235  1  0.49191141  0.63286972  0.75130856  1
  O  O236  1  0.99851104  0.12519301  0.23988552  1
  O  O237  1  0.99555356  0.13031238  0.74482319  1
  O  O238  1  0.99387055  0.62995661  0.24557812  1
  O  O239  1  0.99469344  0.62810086  0.74456152  1
  O  O240  1  0.36852619  0.25597016  0.00296525  1
  O  O241  1  0.37036431  0.26042130  0.50145759  1
  O  O242  1  0.36737715  0.75631426  0.00015570  1
  O  O243  1  0.36580674  0.75601680  0.50030763  1
  O  O244  1  0.86919771  0.25529122  0.00405486  1
  O  O245  1  0.86682644  0.25661423  0.50171998  1
  O  O246  1  0.86843394  0.74827745  0.00746112  1
  O  O247  1  0.87388149  0.76364286  0.50195203  1
  O  O248  1  0.13269679  0.24300642  0.49826588  1
  O  O249  1  0.13279067  0.24179965  0.99719236  1
  O  O250  1  0.13381674  0.75025923  0.49330928  1
  O  O251  1  0.12897354  0.74294564  0.99474598  1
  O  O252  1  0.63036531  0.24455065  0.49389912  1
  O  O253  1  0.63096504  0.24294306  0.99427626  1
  O  O254  1  0.62446409  0.73911164  0.49951755  1
  O  O255  1  0.63038934  0.74052830  1.00022664  1
  O  O256  1  0.50065649  0.24316642  0.13408216  1
  O  O257  1  0.49835538  0.24197895  0.62656944  1
  O  O258  1  0.49760581  0.74362201  0.13222404  1
  O  O259  1  0.49676594  0.74978299  0.63838681  1
  O  O260  1  0.99388700  0.24306799  0.12230710  1
  O  O261  1  0.99836793  0.24385870  0.63125531  1
  O  O262  1  0.99472931  0.74304853  0.13045783  1
  O  O263  1  0.99918615  0.74240228  0.63216768  1
  O  O264  1  -0.00040718  0.26222957  0.37557545  1
  O  O265  1  0.00119107  0.25618971  0.86818543  1
  O  O266  1  0.00467341  0.75497381  0.36903324  1
  O  O267  1  0.00719468  0.74917548  0.86827902  1
  O  O268  1  0.50666423  0.24982273  0.36554450  1
  O  O269  1  0.50603255  0.26006498  0.87593339  1
  O  O270  1  0.50156347  0.75855918  0.36839854  1
  O  O271  1  0.50162329  0.75626824  0.86385165  1
  O  O272  1  0.24633123  0.13067201  0.49541624  1
  O  O273  1  0.24725775  0.12858634  0.99299569  1
  O  O274  1  0.24938315  0.63531032  0.49420055  1
  O  O275  1  0.24388397  0.62850048  0.99515552  1
  O  O276  1  0.74481230  0.12981613  0.49464010  1
  O  O277  1  0.74467392  0.12974193  0.99390444  1
  O  O278  1  0.74108576  0.62522452  0.49317792  1
  O  O279  1  0.74037060  0.62977179  1.00199023  1
  O  O280  1  0.25460934  0.36978491  0.00421639  1
  O  O281  1  0.25741342  0.37228300  0.50482710  1
  O  O282  1  0.25449546  0.86915700  0.00379347  1
  O  O283  1  0.25563125  0.86543079  0.49847695  1
  O  O284  1  0.75550388  0.36923588  0.00695969  1
  O  O285  1  0.75426224  0.37114897  0.50410677  1
  O  O286  1  0.75011664  0.86728653  0.00736989  1
  O  O287  1  0.75926164  0.87566080  0.50555815  1
  O  O288  1  0.13116594  0.49839501  0.24267254  1
  O  O289  1  0.13009813  0.49364811  0.74438887  1
  O  O290  1  0.12680605  0.99178133  0.24208508  1
  O  O291  1  0.12578404  0.99160898  0.74283507  1
  O  O292  1  0.62819928  0.49596564  0.24610659  1
  O  O293  1  0.63006602  0.50060388  0.74339062  1
  O  O294  1  0.63108748  0.99521721  0.24419480  1
  O  O295  1  0.63098221  0.99535630  0.74423210  1
  O  O296  1  0.37558642  0.00670926  0.25725234  1
  O  O297  1  0.37284389  0.01174836  0.75227726  1
  O  O298  1  0.36801825  0.50724372  0.25157144  1
  O  O299  1  0.36904768  0.50982961  0.75117463  1
  O  O300  1  0.86848211  -0.00029725  0.25625145  1
  O  O301  1  0.87021541  0.00594956  0.75460275  1
  O  O302  1  0.87138212  0.50816777  0.25797423  1
  O  O303  1  0.86905569  0.50465039  0.75528586  1
  O  O304  1  0.11233545  0.37493907  0.37571496  1
  O  O305  1  0.11789929  0.37365309  0.86794144  1
  O  O306  1  0.11967181  0.86998046  0.36897898  1
  O  O307  1  0.12414558  0.86877356  0.86572703  1
  O  O308  1  0.62229230  0.36669149  0.37296841  1
  O  O309  1  0.61509777  0.36984392  0.87649753  1
  O  O310  1  0.61905722  0.87583661  0.36918865  1
  O  O311  1  0.61884224  0.87348136  0.86732836  1
  O  O312  1  0.38304520  0.12564695  0.13178913  1
  O  O313  1  0.38093266  0.12481236  0.63338870  1
  O  O314  1  0.38074865  0.62735972  0.13112673  1
  O  O315  1  0.37523633  0.62889878  0.63865928  1
  O  O316  1  0.88196534  0.13088949  0.12390846  1
  O  O317  1  0.88219393  0.12498531  0.63098566  1
  O  O318  1  0.87962065  0.62943144  0.13153316  1
  O  O319  1  0.88146529  0.62534807  0.63173922  1
  O  O320  1  0.25178648  0.25617103  0.11910425  1
  O  O321  1  0.25296170  0.25757652  0.61788366  1
  O  O322  1  0.24956650  0.75620863  0.11703470  1
  O  O323  1  0.24913255  0.75183357  0.61245735  1
  O  O324  1  0.75574686  0.25613491  0.11847650  1
  O  O325  1  0.74977520  0.25708709  0.61717119  1
  O  O326  1  0.75492831  0.75472925  0.12073482  1
  O  O327  1  0.75404510  0.75963476  0.62312983  1
  O  O328  1  0.24976539  0.24322742  0.38252481  1
  O  O329  1  0.24921725  0.23848330  0.88134626  1
  O  O330  1  0.24480750  0.74589757  0.38241996  1
  O  O331  1  0.24276869  0.74277618  0.88088208  1
  O  O332  1  0.74599698  0.24446884  0.37988532  1
  O  O333  1  0.74555154  0.24508095  0.88022722  1
  O  O334  1  0.74781429  0.73830658  0.37920079  1
  O  O335  1  0.74781091  0.74612285  0.88390242  1
  O  O336  1  0.00684845  0.11886995  0.00409775  1
  O  O337  1  0.00745361  0.12315428  0.50669415  1
  O  O338  1  0.00466873  0.61835555  0.00594752  1
  O  O339  1  0.00053944  0.61864258  0.50617645  1
  O  O340  1  0.50596035  0.11996717  0.00472432  1
  O  O341  1  0.50603662  0.11975623  0.50445118  1
  O  O342  1  0.50579855  0.62164191  0.00388909  1
  O  O343  1  0.50605417  0.61919929  0.50016996  1
  O  O344  1  0.49167581  0.38461112  0.50056777  1
  O  O345  1  0.49544544  0.37921669  0.99331987  1
  O  O346  1  0.49566328  0.88131050  0.49516710  1
  O  O347  1  0.49619571  0.87882053  0.99569313  1
  O  O348  1  0.99400000  0.38067484  0.49309430  1
  O  O349  1  0.99464544  0.37969135  0.99462039  1
  O  O350  1  0.99200039  0.87621324  0.49416109  1
  O  O351  1  0.99780297  0.88232017  0.99703862  1
  O  O352  1  0.49780235  0.49936910  0.38841003  1
  O  O353  1  0.49878193  0.48972503  0.88142655  1
  O  O354  1  0.49591378  0.99606982  0.38106455  1
  O  O355  1  0.50024771  0.99349489  0.88266108  1
  O  O356  1  0.99394672  0.49359327  0.38085993  1
  O  O357  1  0.99386644  0.49332141  0.88075445  1
  O  O358  1  0.99449318  0.99211823  0.37575707  1
  O  O359  1  0.99381193  1.00001227  0.88063128  1
  O  O360  1  0.00551293  0.00447692  0.11819222  1
  O  O361  1  0.01227667  0.00647482  0.62464981  1
  O  O362  1  0.00310668  0.50443003  0.11982452  1
  O  O363  1  0.00457129  0.50397590  0.62019261  1
  O  O364  1  0.50760568  0.00481009  0.11982872  1
  O  O365  1  0.50725037  0.00558230  0.61880210  1
  O  O366  1  0.50088735  0.50704908  0.11771862  1
  O  O367  1  0.50474196  0.50401350  0.61404865  1
  O  O368  1  0.25071192  0.38191005  0.24404284  1
  O  O369  1  0.24625584  0.37932567  0.74522490  1
  O  O370  1  0.24335054  0.87522703  0.24332780  1
  O  O371  1  0.23831793  0.87516734  0.74905121  1
  O  O372  1  0.75017491  0.37418598  0.23815413  1
  O  O373  1  0.74776873  0.38236479  0.74298233  1
  O  O374  1  0.74444578  0.88000654  0.24505441  1
  O  O375  1  0.74523098  0.88120689  0.74536216  1
  O  O376  1  0.25766537  0.12374473  0.25665747  1
  O  O377  1  0.25797510  0.12522424  0.75828947  1
  O  O378  1  0.25443308  0.62047233  0.25393232  1
  O  O379  1  0.25625658  0.62096447  0.75485308  1
  O  O380  1  0.75164212  0.11796877  0.25651550  1
  O  O381  1  0.75501001  0.11985345  0.75459742  1
  O  O382  1  0.75431376  0.62599126  0.26007187  1
  O  O383  1  0.75579743  0.61820792  0.75094997  1
  O  O384  1  0.37083004  0.11952574  0.37108067  1
  O  O385  1  0.36795756  0.12409893  0.86747642  1
  O  O386  1  0.36707935  0.62364471  0.36728415  1
  O  O387  1  0.36843517  0.62424789  0.86431243  1
  O  O388  1  0.86940722  0.11767389  0.37529383  1
  O  O389  1  0.86886437  0.11987291  0.86875770  1
  O  O390  1  0.86720051  0.62163559  0.37223312  1
  O  O391  1  0.87382217  0.61613338  0.86838331  1
  O  O392  1  0.13135484  0.38190350  0.12488157  1
  O  O393  1  0.13028063  0.38048189  0.63028652  1
  O  O394  1  0.12972089  0.87907757  0.12940260  1
  O  O395  1  0.12523940  0.88311004  0.63335750  1
  O  O396  1  0.63762984  0.37411388  0.12454337  1
  O  O397  1  0.63059461  0.38350406  0.62478925  1
  O  O398  1  0.63072100  0.88099900  0.13101634  1
  O  O399  1  0.63085263  0.88205309  0.63032511  1
  O  O400  1  0.12009389  0.25462314  0.25520810  1
  O  O401  1  0.11873545  0.25681710  0.75109855  1
  O  O402  1  0.11862607  0.75479032  0.25463598  1
  O  O403  1  0.12050571  0.75617375  0.75460533  1
  O  O404  1  0.61557522  0.24924118  0.25518325  1
  O  O405  1  0.62237161  0.25357862  0.75905968  1
  O  O406  1  0.61782980  0.75765227  0.25248602  1
  O  O407  1  0.61570242  0.75523536  0.75054271  1
  O  O408  1  0.38613030  0.24345442  0.25048029  1
  O  O409  1  0.37802845  0.23750486  0.74748739  1
  O  O410  1  0.38140629  0.74406892  0.24813326  1
  O  O411  1  0.38195989  0.74293307  0.75047029  1
  O  O412  1  0.87994583  0.24596276  0.24026343  1
  O  O413  1  0.88090686  0.24304572  0.74766076  1
  O  O414  1  0.88026334  0.74442144  0.24548827  1
  O  O415  1  0.88228726  0.74304070  0.74977770  1
  O  O416  1  0.38191770  0.49431488  0.50103988  1
  O  O417  1  0.38110868  0.49326186  0.99669933  1
  O  O418  1  0.38147357  0.99591188  0.49499855  1
  O  O419  1  0.38359051  0.99321908  0.99901300  1
  O  O420  1  0.88006353  0.49467514  0.49437665  1
  O  O421  1  0.88041815  0.49433298  0.99501829  1
  O  O422  1  0.87733489  0.98947330  0.49390279  1
  O  O423  1  0.88118604  0.99852585  0.99258722  1
  O  O424  1  0.11978297  0.00487924  0.00463095  1
  O  O425  1  0.12486020  0.00466981  0.50990003  1
  O  O426  1  0.11857456  0.50491687  0.00538973  1
  O  O427  1  0.11825457  0.50191952  0.50758207  1
  O  O428  1  0.62102268  0.00490508  0.00546478  1
  O  O429  1  0.62061083  0.00588304  0.50525299  1
  O  O430  1  0.61884082  0.50975838  0.00307315  1
  O  O431  1  0.61673600  0.50911641  0.50438379  1
  O  O432  1  0.36759090  0.37284674  0.11748178  1
  O  O433  1  0.36947425  0.37581113  0.61480681  1
  O  O434  1  0.36822451  0.87361220  0.11790980  1
  O  O435  1  0.37113166  0.87475016  0.61708709  1
  O  O436  1  0.86799186  0.36953070  0.11871258  1
  O  O437  1  0.86711429  0.37451695  0.61741048  1
  O  O438  1  0.86810682  0.86699188  0.12393673  1
  O  O439  1  0.87146367  0.87714740  0.61671322  1
  O  O440  1  0.13192636  0.12313860  0.38253917  1
  O  O441  1  0.13525177  0.12554268  0.87995754  1
  O  O442  1  0.13079085  0.63279130  0.37621457  1
  O  O443  1  0.12932983  0.62858125  0.88034491  1
  O  O444  1  0.63181874  0.12995923  0.38117655  1
  O  O445  1  0.63087022  0.12963640  0.88016053  1
  O  O446  1  0.63224394  0.62553066  0.38463855  1
  O  O447  1  0.62562070  0.62685535  0.88884169  1
