# generated using pymatgen
data_V3Zn3O8
_symmetry_space_group_name_H-M   'P 1'
_cell_length_a   17.08697309
_cell_length_b   17.08737110
_cell_length_c   17.08717016
_cell_angle_alpha   89.98722968
_cell_angle_beta   90.00904265
_cell_angle_gamma   90.01510550
_symmetry_Int_Tables_number   1
_chemical_formula_structural   V3Zn3O8
_chemical_formula_sum   'V96 Zn96 O256'
_cell_volume   4988.96549172
_cell_formula_units_Z   32
loop_
 _symmetry_equiv_pos_site_id
 _symmetry_equiv_pos_as_xyz
  1  'x, y, z'
loop_
 _atom_site_type_symbol
 _atom_site_label
 _atom_site_symmetry_multiplicity
 _atom_site_fract_x
 _atom_site_fract_y
 _atom_site_fract_z
 _atom_site_occupancy
  V  V0  1  0.25060545  0.49936959  0.75075014  1
  V  V1  1  0.12309775  0.75291449  0.37452742  1
  V  V2  1  0.62402939  0.75148972  0.37552609  1
  V  V3  1  0.87636389  0.37637218  0.49961178  1
  V  V4  1  0.12377265  0.12441320  -0.00164703  1
  V  V5  1  0.87471970  0.74914057  0.62736509  1
  V  V6  1  0.00015929  0.12526006  0.12274939  1
  V  V7  1  0.87792709  0.87593692  0.49815235  1
  V  V8  1  0.37447146  -0.00011391  0.37347978  1
  V  V9  1  0.49893587  0.12589114  0.12536167  1
  V  V10  1  0.62597933  0.37488546  0.74992713  1
  V  V11  1  0.12658049  0.49984472  0.62485962  1
  V  V12  1  0.87329196  0.12496419  0.74851201  1
  V  V13  1  0.25055911  0.37442136  0.12425392  1
  V  V14  1  0.25023648  0.25093767  0.00039068  1
  V  V15  1  0.37440177  0.12539196  0.74949578  1
  V  V16  1  0.75102653  0.00082949  0.24910816  1
  V  V17  1  0.12465361  -0.00022632  0.12291575  1
  V  V18  1  0.12604936  0.37497848  0.24987303  1
  V  V19  1  0.87481210  0.24968888  0.62478058  1
  V  V20  1  0.24914114  -0.00038948  0.24840697  1
  V  V21  1  0.50008559  0.62542249  0.62671289  1
  V  V22  1  0.49946473  0.00029915  0.00019907  1
  V  V23  1  0.25185390  0.75028184  0.50092020  1
  V  V24  1  0.12425815  0.50138328  0.12566230  1
  V  V25  1  0.24813470  0.87500581  0.12427688  1
  V  V26  1  0.75105603  0.50172762  0.25206013  1
  V  V27  1  0.74919638  0.00071581  0.74966966  1
  V  V28  1  0.12406179  0.25027502  0.87370447  1
  V  V29  1  0.50010951  0.87622716  0.37505731  1
  V  V30  1  0.25100231  0.24894635  0.50055231  1
  V  V31  1  0.75092877  0.49905891  0.75006679  1
  V  V32  1  0.12522781  0.74938318  0.87405126  1
  V  V33  1  0.87515065  0.62525368  0.75068105  1
  V  V34  1  0.75022868  0.25024873  0.49779372  1
  V  V35  1  0.00064397  0.25074613  0.24865030  1
  V  V36  1  0.62383962  0.87459304  0.75088537  1
  V  V37  1  0.62473866  0.12570152  -0.00059000  1
  V  V38  1  -0.00023101  0.12299452  0.62150756  1
  V  V39  1  -0.00034621  0.62639838  0.12695038  1
  V  V40  1  0.74883341  0.87482748  0.62548154  1
  V  V41  1  0.74967174  0.87500293  0.12500072  1
  V  V42  1  0.00223576  0.49915211  0.50052046  1
  V  V43  1  0.74902842  0.74952340  0.00037938  1
  V  V44  1  0.62561010  0.24938309  0.87577476  1
  V  V45  1  0.24825661  0.12509408  0.87354387  1
  V  V46  1  0.24805033  -0.00030142  0.74842936  1
  V  V47  1  0.49981743  0.24972262  0.24967170  1
  V  V48  1  0.12664613  0.62362070  0.50099292  1
  V  V49  1  0.62434520  0.00016484  0.62408856  1
  V  V50  1  0.62552963  0.50033468  0.12568349  1
  V  V51  1  0.12474320  0.87453641  0.74870061  1
  V  V52  1  0.37443229  0.74888589  0.12544720  1
  V  V53  1  0.37585185  0.49932323  0.87628040  1
  V  V54  1  0.25004841  0.12427086  0.37365371  1
  V  V55  1  0.25052206  0.87534812  0.62479980  1
  V  V56  1  0.75013381  0.62476547  0.37673537  1
  V  V57  1  0.25168433  0.62412999  0.37526800  1
  V  V58  1  -0.00028356  0.74988215  0.75078235  1
  V  V59  1  0.87509070  -0.00035902  0.87481456  1
  V  V60  1  0.87527472  0.75006190  0.12629622  1
  V  V61  1  0.24971016  0.62465356  0.87541940  1
  V  V62  1  0.00096276  0.37590065  0.37540144  1
  V  V63  1  0.12643016  0.24892619  0.37417082  1
  V  V64  1  0.24864325  0.74912586  -0.00073673  1
  V  V65  1  0.37613755  0.62527839  0.75018923  1
  V  V66  1  -0.00037272  0.37538761  0.87531957  1
  V  V67  1  0.50112051  0.37406170  0.37563780  1
  V  V68  1  0.37406761  0.87480953  -0.00034518  1
  V  V69  1  0.49884094  0.62543604  0.12601794  1
  V  V70  1  0.87447475  0.25153488  0.12349241  1
  V  V71  1  0.25128934  0.37347122  0.62498290  1
  V  V72  1  0.75058866  0.37615749  0.12573443  1
  V  V73  1  0.87478878  0.87547177  -0.00086474  1
  V  V74  1  0.37569906  0.50051491  0.37536634  1
  V  V75  1  0.37403839  -0.00019339  0.87455147  1
  V  V76  1  0.62447034  0.87460818  0.25043775  1
  V  V77  1  0.74952416  0.74960576  0.50158433  1
  V  V78  1  0.75043059  0.37491434  0.62467930  1
  V  V79  1  0.87470325  0.12536993  0.24804992  1
  V  V80  1  0.87544347  0.50008321  0.87676204  1
  V  V81  1  0.37512683  0.87613742  0.49961615  1
  V  V82  1  0.49988008  0.87465339  0.87456249  1
  V  V83  1  0.25135778  0.49992656  0.25100599  1
  V  V84  1  0.50024554  0.37532086  0.87583184  1
  V  V85  1  0.75013733  0.12590856  0.37441463  1
  V  V86  1  0.62474993  0.62519655  0.50159598  1
  V  V87  1  0.62548983  0.62538302  0.00017653  1
  V  V88  1  0.74961420  0.25073442  0.00067050  1
  V  V89  1  0.62464194  -0.00039329  0.12422029  1
  V  V90  1  0.50048591  0.49898578  0.00066523  1
  V  V91  1  0.62462381  0.75010228  0.87592590  1
  V  V92  1  0.49973300  0.25000841  0.75041231  1
  V  V93  1  0.50087842  0.12494922  0.62306357  1
  V  V94  1  0.50071013  0.49954691  0.49969666  1
  V  V95  1  0.12554222  0.37492997  0.75056181  1
  Zn  Zn96  1  0.00029628  0.87814973  0.37190741  1
  Zn  Zn97  1  0.37549008  0.37386007  0.00150775  1
  Zn  Zn98  1  0.62602858  0.49936822  0.62570392  1
  Zn  Zn99  1  0.87597462  0.62796458  0.25408684  1
  Zn  Zn100  1  0.12331370  -0.00060817  0.62188553  1
  Zn  Zn101  1  0.37454270  0.25005203  0.12345316  1
  Zn  Zn102  1  0.00128433  0.62387468  0.62568361  1
  Zn  Zn103  1  0.49928647  0.75052811  0.75082193  1
  Zn  Zn104  1  0.62634576  0.37424024  0.25117991  1
  Zn  Zn105  1  0.74965432  0.12636161  0.87475379  1
  Zn  Zn106  1  0.12354686  0.12135371  0.49874715  1
  Zn  Zn107  1  0.37457307  0.12457601  0.24788420  1
  Zn  Zn108  1  0.37515357  0.25067256  0.62567164  1
  Zn  Zn109  1  0.00261343  -0.00015728  0.49547721  1
  Zn  Zn110  1  0.00003352  -0.00137001  -0.00138257  1
  Zn  Zn111  1  0.00056222  0.87422069  0.87520932  1
  Zn  Zn112  1  0.74940069  0.62484174  0.87545052  1
  Zn  Zn113  1  0.37634454  0.62595289  0.25026558  1
  Zn  Zn114  1  0.37594056  0.75190993  0.62685806  1
  Zn  Zn115  1  0.62567042  0.12499989  0.49862960  1
  Zn  Zn116  1  0.87651221  0.50258245  0.37651522  1
  Zn  Zn117  1  0.12398762  0.62427015  0.00009657  1
  Zn  Zn118  1  0.00008352  0.50075141  0.00255283  1
  Zn  Zn119  1  0.87521155  0.37571251  0.00061761  1
  Zn  Zn120  1  0.49785769  0.74925927  0.25054590  1
  Zn  Zn121  1  0.37705234  0.37427431  0.50345710  1
  Zn  Zn122  1  -0.00095179  0.24942435  0.74862941  1
  Zn  Zn123  1  0.87828855  -0.00146985  0.37296036  1
  Zn  Zn124  1  0.12153932  0.87469862  0.24844362  1
  Zn  Zn125  1  0.50195608  0.00168540  0.49743014  1
  Zn  Zn126  1  0.62453741  0.24982973  0.37623102  1
  Zn  Zn127  1  -0.00228957  0.75258116  0.25241615  1
  Zn  Zn128  1  0.18773089  0.18627488  0.18649280  1
  Zn  Zn129  1  0.18439228  0.18742422  0.68654619  1
  Zn  Zn130  1  0.18744398  0.68713545  0.18975360  1
  Zn  Zn131  1  0.18895522  0.68802775  0.68747978  1
  Zn  Zn132  1  0.68524150  0.18885642  0.18756827  1
  Zn  Zn133  1  0.68746679  0.18799772  0.68719873  1
  Zn  Zn134  1  0.68653978  0.68751867  0.18872591  1
  Zn  Zn135  1  0.68750834  0.68711439  0.69011397  1
  Zn  Zn136  1  0.31562217  0.31263494  0.31257094  1
  Zn  Zn137  1  0.31370900  0.31220217  0.81354990  1
  Zn  Zn138  1  0.31116193  0.81309344  0.31094271  1
  Zn  Zn139  1  0.31249663  0.81088373  0.81077540  1
  Zn  Zn140  1  0.81467578  0.31384863  0.31211667  1
  Zn  Zn141  1  0.81275406  0.31154769  0.81190447  1
  Zn  Zn142  1  0.81171511  0.81109419  0.31273367  1
  Zn  Zn143  1  0.81084791  0.81288671  0.81357812  1
  Zn  Zn144  1  0.18859551  0.43574036  0.43788043  1
  Zn  Zn145  1  0.18625858  0.43890388  0.94043814  1
  Zn  Zn146  1  0.18706298  0.93911797  0.43939778  1
  Zn  Zn147  1  0.18637605  0.93658225  0.93617625  1
  Zn  Zn148  1  0.68591832  0.43825684  0.43835731  1
  Zn  Zn149  1  0.68800554  0.43661708  0.93837401  1
  Zn  Zn150  1  0.68879355  0.93970951  0.43792211  1
  Zn  Zn151  1  0.68827340  0.93739871  0.93746589  1
  Zn  Zn152  1  0.31219646  0.06411005  0.06249374  1
  Zn  Zn153  1  0.31304442  0.06163275  0.56145623  1
  Zn  Zn154  1  0.31281944  0.56207969  0.06231823  1
  Zn  Zn155  1  0.31482381  0.56158978  0.56193369  1
  Zn  Zn156  1  0.81163592  0.06371240  0.06101004  1
  Zn  Zn157  1  0.81319088  0.06100923  0.56084992  1
  Zn  Zn158  1  0.81367395  0.56407648  0.06318081  1
  Zn  Zn159  1  0.81411925  0.56169525  0.56397531  1
  Zn  Zn160  1  0.43572099  0.43667123  0.18807421  1
  Zn  Zn161  1  0.43730367  0.43786330  0.68785737  1
  Zn  Zn162  1  0.43651368  0.93635116  0.18828900  1
  Zn  Zn163  1  0.43679624  0.93906136  0.68729534  1
  Zn  Zn164  1  0.93629254  0.43898574  0.18952544  1
  Zn  Zn165  1  0.93843923  0.43788573  0.68766065  1
  Zn  Zn166  1  0.93973414  0.93691616  0.18796390  1
  Zn  Zn167  1  0.93786703  0.93697361  0.68680797  1
  Zn  Zn168  1  0.06259127  0.06086257  0.31176289  1
  Zn  Zn169  1  0.05996307  0.06220268  0.80824584  1
  Zn  Zn170  1  0.06382284  0.56431508  0.31258027  1
  Zn  Zn171  1  0.06240380  0.56332871  0.81138435  1
  Zn  Zn172  1  0.56339482  0.06240367  0.31140703  1
  Zn  Zn173  1  0.56201632  0.06257305  0.81190501  1
  Zn  Zn174  1  0.56326263  0.56397510  0.31222444  1
  Zn  Zn175  1  0.56381089  0.56173457  0.81323742  1
  Zn  Zn176  1  0.43451404  0.18657173  0.43665941  1
  Zn  Zn177  1  0.43627386  0.18818711  0.93785224  1
  Zn  Zn178  1  0.43732712  0.68878280  0.43814026  1
  Zn  Zn179  1  0.43789637  0.68694586  0.93863321  1
  Zn  Zn180  1  0.93597339  0.18897845  0.43621445  1
  Zn  Zn181  1  0.93632484  0.18740299  0.93673606  1
  Zn  Zn182  1  0.93826586  0.68635960  0.44055459  1
  Zn  Zn183  1  0.93866570  0.68753720  0.93935336  1
  Zn  Zn184  1  0.06398931  0.31337885  0.06091105  1
  Zn  Zn185  1  0.06386639  0.31052293  0.56225539  1
  Zn  Zn186  1  0.06076618  0.81227333  0.06010929  1
  Zn  Zn187  1  0.06255227  0.81023808  0.56410260  1
  Zn  Zn188  1  0.56380688  0.31373449  0.06422243  1
  Zn  Zn189  1  0.56557028  0.31070602  0.56196012  1
  Zn  Zn190  1  0.56094520  0.81178450  0.06253675  1
  Zn  Zn191  1  0.56065399  0.81288160  0.56182561  1
  O  O192  1  0.11960585  0.12018208  0.11773351  1
  O  O193  1  0.11142864  0.12455065  0.62380316  1
  O  O194  1  0.11603284  0.61998513  0.12600851  1
  O  O195  1  0.12673703  0.61725139  0.61896140  1
  O  O196  1  0.61911516  0.11886718  0.11903066  1
  O  O197  1  0.61519936  0.11947877  0.62630203  1
  O  O198  1  0.61940954  0.62004215  0.11915425  1
  O  O199  1  0.61628712  0.62351260  0.62087131  1
  O  O200  1  0.38718717  0.38069520  0.37700593  1
  O  O201  1  0.38250860  0.38216829  0.87579604  1
  O  O202  1  0.37976916  0.88044398  0.37953740  1
  O  O203  1  0.37922642  0.88057133  0.87990597  1
  O  O204  1  0.88347440  0.37699833  0.38172878  1
  O  O205  1  0.88381114  0.38308084  0.87339128  1
  O  O206  1  0.87446188  0.87290886  0.38727238  1
  O  O207  1  0.87393948  0.88474045  0.87971080  1
  O  O208  1  0.25413221  0.00483963  0.36830798  1
  O  O209  1  0.25508211  0.00576594  0.86882765  1
  O  O210  1  0.25539646  0.50371542  0.37103940  1
  O  O211  1  0.25496668  0.50426819  0.86975511  1
  O  O212  1  0.75305176  0.00934695  0.36772068  1
  O  O213  1  0.75907471  0.00151360  0.86906556  1
  O  O214  1  0.74951580  0.50576623  0.36753881  1
  O  O215  1  0.76087563  0.49826626  0.86956273  1
  O  O216  1  0.24447236  0.49515304  0.13101737  1
  O  O217  1  0.24603150  0.49399454  0.63097905  1
  O  O218  1  0.24465606  0.99492342  0.12775937  1
  O  O219  1  0.24923113  0.99419594  0.63223196  1
  O  O220  1  0.74590219  0.49693312  0.13281170  1
  O  O221  1  0.74976838  0.49228768  0.63213638  1
  O  O222  1  0.74377973  0.99499001  0.12901660  1
  O  O223  1  0.74440756  0.99470543  0.63053698  1
  O  O224  1  0.00607894  0.37018232  0.25509618  1
  O  O225  1  0.00600786  0.37431009  0.76040697  1
  O  O226  1  0.00429559  0.86993195  0.25341212  1
  O  O227  1  0.00605169  0.86768825  0.75088295  1
  O  O228  1  0.50161083  0.36805125  0.25879694  1
  O  O229  1  0.50587614  0.36993912  0.75548593  1
  O  O230  1  0.50754456  0.87366654  0.25633450  1
  O  O231  1  0.50596790  0.87509147  0.75670320  1
  O  O232  1  0.50015911  0.13358313  0.24431262  1
  O  O233  1  0.49498107  0.12981860  0.74259869  1
  O  O234  1  0.49844547  0.62759625  0.24171948  1
  O  O235  1  0.49582308  0.62404220  0.74160478  1
  O  O236  1  0.99489183  0.13217289  0.24273580  1
  O  O237  1  0.99167896  0.12727219  0.73952999  1
  O  O238  1  0.99802768  0.62735265  0.23947983  1
  O  O239  1  0.99301420  0.63132735  0.74811261  1
  O  O240  1  0.36573484  0.25258175  0.00070348  1
  O  O241  1  0.36205489  0.25162275  0.50162397  1
  O  O242  1  0.36874394  0.75603788  0.00455612  1
  O  O243  1  0.36847635  0.75779030  0.50111732  1
  O  O244  1  0.86800438  0.25151645  0.00593228  1
  O  O245  1  0.86918896  0.25762121  0.50483375  1
  O  O246  1  0.86836896  0.75553473  0.00533299  1
  O  O247  1  0.86859905  0.75602691  0.50751799  1
  O  O248  1  0.13620765  0.24869477  0.49297140  1
  O  O249  1  0.13020868  0.24426304  0.99269998  1
  O  O250  1  0.13190707  0.74358891  0.49427815  1
  O  O251  1  0.13180818  0.74853623  0.99203054  1
  O  O252  1  0.63501301  0.24553284  0.49664665  1
  O  O253  1  0.62956949  0.24492812  0.99528175  1
  O  O254  1  0.63065523  0.74530449  0.49574352  1
  O  O255  1  0.62979510  0.74538135  0.99557204  1
  O  O256  1  0.50011018  0.24540116  0.13329638  1
  O  O257  1  0.49990897  0.24070527  0.63135465  1
  O  O258  1  0.49262618  0.74371256  0.12462009  1
  O  O259  1  0.49854346  0.73696013  0.62663508  1
  O  O260  1  0.99557160  0.24609142  0.12935006  1
  O  O261  1  0.99276248  0.24217410  0.62570149  1
  O  O262  1  0.99441731  0.74154785  0.12569809  1
  O  O263  1  0.99263812  0.74676584  0.63298698  1
  O  O264  1  0.00587840  0.25542409  0.36839283  1
  O  O265  1  0.00422905  0.25990632  0.87282354  1
  O  O266  1  0.01275869  0.74880356  0.37695236  1
  O  O267  1  0.00626318  0.75042749  0.86841693  1
  O  O268  1  0.50011504  0.25709334  0.36860989  1
  O  O269  1  0.50590576  0.25489285  0.87004019  1
  O  O270  1  0.50699609  0.75735916  0.37450030  1
  O  O271  1  0.50655301  0.75730070  0.87564246  1
  O  O272  1  0.24913668  0.13423571  0.49405470  1
  O  O273  1  0.24324790  0.13008391  0.99264644  1
  O  O274  1  0.24609902  0.62934592  0.49476289  1
  O  O275  1  0.24907119  0.63152063  0.99279021  1
  O  O276  1  0.75300196  0.13097938  0.48958750  1
  O  O277  1  0.74162426  0.13258806  0.99928415  1
  O  O278  1  0.74441150  0.62997234  0.49759436  1
  O  O279  1  0.74296717  0.63157492  0.99945259  1
  O  O280  1  0.24933368  0.36823919  0.00613315  1
  O  O281  1  0.25131971  0.36490781  0.50558370  1
  O  O282  1  0.25577901  0.86936721  0.00383114  1
  O  O283  1  0.25608663  0.86993785  0.50569209  1
  O  O284  1  0.75148681  0.36849797  0.00745848  1
  O  O285  1  0.75572875  0.37079591  0.50458697  1
  O  O286  1  0.75414067  0.86965731  0.00649413  1
  O  O287  1  0.75640962  0.86876095  0.50617671  1
  O  O288  1  0.13169571  0.49361239  0.24588477  1
  O  O289  1  0.13158006  0.49449391  0.74525669  1
  O  O290  1  0.13196021  0.99904057  0.24057509  1
  O  O291  1  0.13105490  0.99292102  0.74820752  1
  O  O292  1  0.63622349  0.50029475  0.24468964  1
  O  O293  1  0.63278340  0.49243365  0.75037438  1
  O  O294  1  0.63130468  0.99445385  0.24301786  1
  O  O295  1  0.62973432  0.99416931  0.74527717  1
  O  O296  1  0.36720092  0.00021092  0.25582344  1
  O  O297  1  0.36861407  0.00560688  0.75627988  1
  O  O298  1  0.36829781  0.50131031  0.25787103  1
  O  O299  1  0.36967046  0.50515654  0.75676618  1
  O  O300  1  0.86746631  0.00779075  0.24799156  1
  O  O301  1  0.86827491  0.00367963  0.75663029  1
  O  O302  1  0.86156303  0.50314595  0.25285617  1
  O  O303  1  0.87118236  0.50424715  0.75830455  1
  O  O304  1  0.12068439  0.36873043  0.36894612  1
  O  O305  1  0.11741881  0.37159777  0.87029580  1
  O  O306  1  0.12539773  0.86221771  0.37681162  1
  O  O307  1  0.12440196  0.86766623  0.86694352  1
  O  O308  1  0.61187522  0.37396381  0.37363373  1
  O  O309  1  0.61972760  0.36899145  0.86963447  1
  O  O310  1  0.62088953  0.87119102  0.37040755  1
  O  O311  1  0.61911221  0.87093383  0.87083729  1
  O  O312  1  0.38371107  0.12758498  0.12668082  1
  O  O313  1  0.38512836  0.12552015  0.63120332  1
  O  O314  1  0.38137842  0.63117824  0.12492344  1
  O  O315  1  0.38503439  0.62469517  0.63082728  1
  O  O316  1  0.87966750  0.13180851  0.12886490  1
  O  O317  1  0.88008703  0.12998033  0.62869051  1
  O  O318  1  0.88347534  0.63132006  0.12675190  1
  O  O319  1  0.87601778  0.63178338  0.63272662  1
  O  O320  1  0.24928801  0.25637298  0.11861772  1
  O  O321  1  0.24970082  0.25404982  0.61619852  1
  O  O322  1  0.25393955  0.75464166  0.11876700  1
  O  O323  1  0.25270307  0.75641963  0.61833737  1
  O  O324  1  0.75436827  0.25622423  0.12113806  1
  O  O325  1  0.75568188  0.25517971  0.61865938  1
  O  O326  1  0.75385575  0.75578377  0.11959295  1
  O  O327  1  0.75428053  0.75575573  0.62119488  1
  O  O328  1  0.24642948  0.24581471  0.38104445  1
  O  O329  1  0.24344457  0.24425456  0.87894558  1
  O  O330  1  0.24338277  0.74449505  0.38140611  1
  O  O331  1  0.24530922  0.74401030  0.87947328  1
  O  O332  1  0.74995602  0.24190659  0.37791622  1
  O  O333  1  0.74333688  0.24933342  0.88141220  1
  O  O334  1  0.74298282  0.74459616  0.38231230  1
  O  O335  1  0.74297818  0.74901522  0.88295573  1
  O  O336  1  0.00640208  0.12468334  0.00507583  1
  O  O337  1  -0.00206330  0.12571655  0.51025361  1
  O  O338  1  0.00173589  0.62306830  0.01346887  1
  O  O339  1  0.00853481  0.61705284  0.50314934  1
  O  O340  1  0.50519261  0.11943404  0.00462800  1
  O  O341  1  0.50136263  0.12511441  0.51159719  1
  O  O342  1  0.50603079  0.61830936  0.00582646  1
  O  O343  1  0.50480520  0.62025770  0.50797050  1
  O  O344  1  0.50012519  0.37911487  0.49208657  1
  O  O345  1  0.50068531  0.38151208  0.99347186  1
  O  O346  1  0.49345744  0.87769974  0.49336080  1
  O  O347  1  0.49380865  0.88153070  0.99486332  1
  O  O348  1  0.99691265  0.37928943  0.49467840  1
  O  O349  1  0.99888772  0.37723479  0.98667054  1
  O  O350  1  0.98689940  0.87313894  0.50131514  1
  O  O351  1  0.99005825  0.87796286  0.99579313  1
  O  O352  1  0.49655713  0.49277720  0.37941242  1
  O  O353  1  0.49589455  0.49453328  0.88069985  1
  O  O354  1  0.49390443  0.99471431  0.37505955  1
  O  O355  1  0.49377016  0.99509854  0.88061733  1
  O  O356  1  1.00124348  0.49350870  0.38173151  1
  O  O357  1  0.99233102  0.49196593  0.87440019  1
  O  O358  1  0.99492643  0.99719261  0.37786746  1
  O  O359  1  0.98597195  0.99851855  0.87411609  1
  O  O360  1  0.00594993  0.00830573  0.12189621  1
  O  O361  1  -0.00199903  0.01197468  0.62247734  1
  O  O362  1  0.00468906  0.50825879  0.12630812  1
  O  O363  1  0.00900388  0.49982146  0.61920425  1
  O  O364  1  0.50529273  0.00440579  0.11929918  1
  O  O365  1  0.50547354  0.01088277  0.62535285  1
  O  O366  1  0.50559235  0.50439816  0.12053823  1
  O  O367  1  0.50174850  0.50981745  0.61978311  1
  O  O368  1  0.24480875  0.37953060  0.24570278  1
  O  O369  1  0.24489048  0.38010724  0.74587915  1
  O  O370  1  0.24669510  0.88176413  0.24122960  1
  O  O371  1  0.24531077  0.88001904  0.74466462  1
  O  O372  1  0.74881616  0.38467137  0.24576187  1
  O  O373  1  0.74561474  0.37907122  0.74414262  1
  O  O374  1  0.74423761  0.88093617  0.24434700  1
  O  O375  1  0.74341398  0.88083683  0.74433991  1
  O  O376  1  0.25182027  0.11846750  0.25534333  1
  O  O377  1  0.25427866  0.12046420  0.75451428  1
  O  O378  1  0.25152074  0.61675105  0.25766980  1
  O  O379  1  0.25604238  0.61835610  0.75546192  1
  O  O380  1  0.75470250  0.12145078  0.25513579  1
  O  O381  1  0.75555670  0.11808429  0.75020599  1
  O  O382  1  0.74938317  0.61655225  0.25710221  1
  O  O383  1  0.75683984  0.61775962  0.75334001  1
  O  O384  1  0.36779387  0.11756269  0.37211804  1
  O  O385  1  0.36890742  0.11902122  0.86949594  1
  O  O386  1  0.36932713  0.61841875  0.37477854  1
  O  O387  1  0.37038846  0.61887180  0.87009154  1
  O  O388  1  0.86487316  0.12615325  0.36670656  1
  O  O389  1  0.87284898  0.11627739  0.86840398  1
  O  O390  1  0.86615642  0.62317965  0.37518319  1
  O  O391  1  0.87499649  0.61464570  0.87042293  1
  O  O392  1  0.12964455  0.38066671  0.13141916  1
  O  O393  1  0.13127782  0.37978553  0.63089802  1
  O  O394  1  0.13176564  0.88155118  0.12193476  1
  O  O395  1  0.13237182  0.87492678  0.63168241  1
  O  O396  1  0.63252920  0.38345460  0.12773731  1
  O  O397  1  0.63213568  0.37583946  0.63224560  1
  O  O398  1  0.63001558  0.88031539  0.12918296  1
  O  O399  1  0.62910380  0.87977544  0.63047969  1
  O  O400  1  0.11987439  0.25579138  0.25419911  1
  O  O401  1  0.12315512  0.25726089  0.75696883  1
  O  O402  1  0.12553386  0.75101855  0.26364761  1
  O  O403  1  0.12041753  0.75467839  0.75483087  1
  O  O404  1  0.61244710  0.25261440  0.25280905  1
  O  O405  1  0.61996967  0.25532172  0.75595306  1
  O  O406  1  0.62459076  0.75757957  0.25747905  1
  O  O407  1  0.62378155  0.75717190  0.75775816  1
  O  O408  1  0.38854687  0.24816464  0.24828805  1
  O  O409  1  0.38174059  0.24258219  0.74990704  1
  O  O410  1  0.37606008  0.74786531  0.24097601  1
  O  O411  1  0.37860298  0.74101043  0.74822070  1
  O  O412  1  0.88137770  0.24551645  0.24280436  1
  O  O413  1  0.87496375  0.24315928  0.74245506  1
  O  O414  1  0.87494699  0.74768935  0.24126263  1
  O  O415  1  0.87866123  0.74542564  0.74701003  1
  O  O416  1  0.38274317  0.49687084  0.49296786  1
  O  O417  1  0.38255750  0.49858747  0.99320095  1
  O  O418  1  0.37616978  0.99337056  0.49131133  1
  O  O419  1  0.37951599  0.99478716  0.99374670  1
  O  O420  1  0.88331734  0.49324076  0.50015451  1
  O  O421  1  0.87618314  0.49823746  0.98833781  1
  O  O422  1  0.87422237  0.98592112  0.49842096  1
  O  O423  1  0.87337748  0.99550826  0.99004606  1
  O  O424  1  0.12364902  0.00718586  0.00369283  1
  O  O425  1  0.12093801  0.00405537  0.50463446  1
  O  O426  1  0.12158152  0.50358993  0.00980550  1
  O  O427  1  0.12221999  0.50381876  0.50553573  1
  O  O428  1  0.61902825  0.00472584  0.00478084  1
  O  O429  1  0.62352949  0.00376498  0.50858235  1
  O  O430  1  0.62058046  0.50547243  0.00558966  1
  O  O431  1  0.61850815  0.50758884  0.50257438  1
  O  O432  1  0.36591382  0.37265029  0.12241970  1
  O  O433  1  0.36766395  0.37149807  0.62406271  1
  O  O434  1  0.36893173  0.87001308  0.11775818  1
  O  O435  1  0.36933748  0.87458617  0.61866050  1
  O  O436  1  0.86938801  0.36947259  0.12365471  1
  O  O437  1  0.87052242  0.36957155  0.61984821  1
  O  O438  1  0.86822687  0.87075120  0.11894383  1
  O  O439  1  0.86777822  0.86897624  0.61913636  1
  O  O440  1  0.13199759  0.13279568  0.37471946  1
  O  O441  1  0.12876237  0.13004794  0.87736592  1
  O  O442  1  0.13208416  0.63180435  0.38175844  1
  O  O443  1  0.13228699  0.63077882  0.87509851  1
  O  O444  1  0.63914120  0.12560225  0.37481116  1
  O  O445  1  0.62535518  0.13113188  0.88126648  1
  O  O446  1  0.62962672  0.63134257  0.38265489  1
  O  O447  1  0.62607164  0.63100050  0.88252523  1
