# generated using pymatgen
data_V3Zn3O8
_symmetry_space_group_name_H-M   'P 1'
_cell_length_a   17.08533894
_cell_length_b   17.08471394
_cell_length_c   17.08604089
_cell_angle_alpha   90.00140600
_cell_angle_beta   89.99749445
_cell_angle_gamma   89.99792726
_symmetry_Int_Tables_number   1
_chemical_formula_structural   V3Zn3O8
_chemical_formula_sum   'V96 Zn96 O256'
_cell_volume   4987.38334820
_cell_formula_units_Z   32
loop_
 _symmetry_equiv_pos_site_id
 _symmetry_equiv_pos_as_xyz
  1  'x, y, z'
loop_
 _atom_site_type_symbol
 _atom_site_label
 _atom_site_symmetry_multiplicity
 _atom_site_fract_x
 _atom_site_fract_y
 _atom_site_fract_z
 _atom_site_occupancy
  V  V0  1  0.12425410  0.24957135  0.37485380  1
  V  V1  1  0.74977151  0.25117577  0.50137651  1
  V  V2  1  0.00100566  0.62447816  0.12492011  1
  V  V3  1  0.50000742  0.87490127  0.87449922  1
  V  V4  1  0.25036415  0.25039658  0.49959719  1
  V  V5  1  0.50039756  0.50052041  0.50009447  1
  V  V6  1  0.87562902  0.12501441  0.75044592  1
  V  V7  1  0.87523055  0.50012138  0.37588784  1
  V  V8  1  0.62425963  0.12446936  0.49941707  1
  V  V9  1  0.74982800  0.74937889  0.50185997  1
  V  V10  1  0.37510409  0.62487624  0.75012757  1
  V  V11  1  0.62438782  0.87445287  0.24966287  1
  V  V12  1  0.25052338  0.50024973  0.24935416  1
  V  V13  1  0.74969549  0.12526350  0.87398851  1
  V  V14  1  0.37462881  0.87544670  -0.00048601  1
  V  V15  1  0.62577875  -0.00176827  0.62603475  1
  V  V16  1  0.87412268  0.75067440  0.12562244  1
  V  V17  1  0.12519655  0.62589524  0.00051062  1
  V  V18  1  0.25030781  0.62455025  0.37455599  1
  V  V19  1  -0.00064319  0.87448833  0.37530578  1
  V  V20  1  0.62390206  0.12548511  -0.00019434  1
  V  V21  1  0.37505064  0.62532606  0.25017489  1
  V  V22  1  0.87279248  0.12506364  0.25126769  1
  V  V23  1  0.62540821  0.74980094  0.37629363  1
  V  V24  1  0.62466573  0.24943282  0.37468991  1
  V  V25  1  0.50029710  0.62539499  0.12552039  1
  V  V26  1  0.37551564  0.37462970  0.49887174  1
  V  V27  1  0.25031041  0.00029171  0.75007972  1
  V  V28  1  0.00062956  0.37527903  0.37534482  1
  V  V29  1  0.12472959  0.75116367  0.87445176  1
  V  V30  1  0.50021769  0.62490987  0.62558428  1
  V  V31  1  0.37444464  -0.00062448  0.37432700  1
  V  V32  1  0.24924839  0.37528192  0.12483606  1
  V  V33  1  0.12476540  -0.00024760  0.62518808  1
  V  V34  1  0.24904012  0.12484260  0.37395801  1
  V  V35  1  0.25037223  0.25027697  -0.00156504  1
  V  V36  1  0.12510994  0.87460977  0.75076424  1
  V  V37  1  0.62497109  0.50045838  0.62509130  1
  V  V38  1  0.62480831  0.75094411  0.87516520  1
  V  V39  1  0.87505046  -0.00115271  0.87604819  1
  V  V40  1  0.75057631  0.49938719  0.24940687  1
  V  V41  1  0.87435800  0.25121097  0.12452831  1
  V  V42  1  0.74930182  0.87350281  0.12536280  1
  V  V43  1  -0.00090277  0.00064132  0.00088993  1
  V  V44  1  0.49941004  0.25031236  0.24908307  1
  V  V45  1  0.87640391  0.87434810  0.50085364  1
  V  V46  1  0.74955305  0.12470480  0.37440555  1
  V  V47  1  0.75107615  0.62427936  0.87513354  1
  V  V48  1  0.12387417  0.87516940  0.25059513  1
  V  V49  1  0.37536108  0.24928002  0.62374058  1
  V  V50  1  0.37552625  0.37560104  -0.00075450  1
  V  V51  1  0.00016475  0.37545911  0.87489753  1
  V  V52  1  0.12588631  0.37540491  0.74931462  1
  V  V53  1  0.25002574  0.87466588  0.62437518  1
  V  V54  1  -0.00092596  0.12476497  0.12575306  1
  V  V55  1  0.49985908  0.12503771  0.62339856  1
  V  V56  1  0.50004361  0.37594119  0.37478202  1
  V  V57  1  0.24919039  -0.00004745  0.24885469  1
  V  V58  1  -0.00078811  0.12489914  0.62540344  1
  V  V59  1  0.00048234  0.62491826  0.62588851  1
  V  V60  1  0.37472044  0.12519108  0.24861787  1
  V  V61  1  0.87564266  0.37529437  -0.00100727  1
  V  V62  1  0.50021445  0.49929994  -0.00071385  1
  V  V63  1  0.24951565  0.74913303  0.49968085  1
  V  V64  1  0.50029658  0.74969639  0.75043972  1
  V  V65  1  -0.00066879  0.25004973  0.25028712  1
  V  V66  1  0.49987359  0.25050247  0.74854863  1
  V  V67  1  0.74998636  0.74939130  0.00104583  1
  V  V68  1  0.00045060  0.24937879  0.74951666  1
  V  V69  1  0.00042039  0.74985009  0.75052554  1
  V  V70  1  0.62413264  0.24948700  0.87426005  1
  V  V71  1  0.25013303  0.87540172  0.12446925  1
  V  V72  1  0.62481095  0.37413958  0.75076220  1
  V  V73  1  -0.00059377  0.75074388  0.25029971  1
  V  V74  1  0.12584163  0.37508398  0.24885064  1
  V  V75  1  0.00058234  0.49954167  0.49989473  1
  V  V76  1  0.12659103  0.24962894  0.87453096  1
  V  V77  1  -0.00120363  -0.00095192  0.49970731  1
  V  V78  1  0.12571807  0.49922190  0.62497635  1
  V  V79  1  0.37548675  0.87549511  0.49898422  1
  V  V80  1  0.50014871  0.74899889  0.25062433  1
  V  V81  1  0.25037440  0.75089244  0.00037911  1
  V  V82  1  0.62451886  0.00063265  0.12535155  1
  V  V83  1  0.37511804  -0.00015743  0.87382162  1
  V  V84  1  0.25069649  0.62497635  0.87505291  1
  V  V85  1  0.62494622  0.62422385  0.00107987  1
  V  V86  1  0.75034351  0.37436787  0.62477039  1
  V  V87  1  0.87574315  0.74931317  0.62620290  1
  V  V88  1  0.25040834  0.50040223  0.74979048  1
  V  V89  1  0.25054888  0.12512579  0.87422476  1
  V  V90  1  0.12332679  0.00101442  0.12449432  1
  V  V91  1  0.75081746  0.50079260  0.75116216  1
  V  V92  1  0.62584748  0.37539915  0.24931268  1
  V  V93  1  0.12419070  0.12463319  0.49958303  1
  V  V94  1  0.12660991  0.62470076  0.49925285  1
  V  V95  1  0.37518823  0.24931917  0.12465920  1
  Zn  Zn96  1  0.75141526  0.62469590  0.37557031  1
  Zn  Zn97  1  0.74857481  0.25227120  0.00091983  1
  Zn  Zn98  1  0.62683711  0.87563745  0.75046087  1
  Zn  Zn99  1  0.37473900  0.49865917  0.87432543  1
  Zn  Zn100  1  0.87606262  0.62432537  0.75230580  1
  Zn  Zn101  1  0.37521269  0.12540320  0.74862815  1
  Zn  Zn102  1  0.49969809  0.87623269  0.37445931  1
  Zn  Zn103  1  0.49899575  0.37476405  0.87417389  1
  Zn  Zn104  1  0.50022582  -0.00032105  0.49806431  1
  Zn  Zn105  1  0.12411541  0.74942254  0.37453872  1
  Zn  Zn106  1  -0.00031624  0.87476152  0.87698418  1
  Zn  Zn107  1  0.25079925  0.37481822  0.62444963  1
  Zn  Zn108  1  0.49935864  0.12452923  0.12395495  1
  Zn  Zn109  1  0.74986712  -0.00065880  0.25284057  1
  Zn  Zn110  1  0.75076259  -0.00254197  0.74972647  1
  Zn  Zn111  1  0.87482902  0.25041640  0.62476391  1
  Zn  Zn112  1  0.49936229  -0.00066691  -0.00149171  1
  Zn  Zn113  1  0.87519278  0.62500937  0.25030406  1
  Zn  Zn114  1  0.87484121  0.87504226  0.00045939  1
  Zn  Zn115  1  0.74952776  0.37477244  0.12267575  1
  Zn  Zn116  1  0.62768292  0.49869163  0.12525208  1
  Zn  Zn117  1  0.12512992  0.12593101  0.00012095  1
  Zn  Zn118  1  0.00167671  0.50048539  -0.00145132  1
  Zn  Zn119  1  0.37628688  0.50029324  0.37492965  1
  Zn  Zn120  1  0.87726503  0.50170827  0.87477066  1
  Zn  Zn121  1  0.87197972  -0.00052385  0.37495333  1
  Zn  Zn122  1  0.37532454  0.75142008  0.12549793  1
  Zn  Zn123  1  0.37591498  0.75005943  0.62478210  1
  Zn  Zn124  1  0.75018537  0.87499112  0.62866762  1
  Zn  Zn125  1  0.62497727  0.62502519  0.50059288  1
  Zn  Zn126  1  0.12486205  0.49949350  0.12306799  1
  Zn  Zn127  1  0.87600616  0.37327145  0.50291441  1
  Zn  Zn128  1  0.18708857  0.18790033  0.18606792  1
  Zn  Zn129  1  0.18847322  0.18751795  0.68703165  1
  Zn  Zn130  1  0.18696646  0.68930719  0.18775554  1
  Zn  Zn131  1  0.18831611  0.68731194  0.68662164  1
  Zn  Zn132  1  0.68924175  0.18904598  0.18690935  1
  Zn  Zn133  1  0.68810559  0.18553023  0.68762523  1
  Zn  Zn134  1  0.68742546  0.68444132  0.18853815  1
  Zn  Zn135  1  0.68690823  0.68657058  0.68892623  1
  Zn  Zn136  1  0.31309747  0.31305857  0.31267820  1
  Zn  Zn137  1  0.31434636  0.31386993  0.81159892  1
  Zn  Zn138  1  0.31166518  0.81043949  0.31288517  1
  Zn  Zn139  1  0.31338982  0.81201861  0.81220725  1
  Zn  Zn140  1  0.81230929  0.31350795  0.31390577  1
  Zn  Zn141  1  0.81194666  0.31151387  0.81294490  1
  Zn  Zn142  1  0.81249339  0.81347891  0.31256179  1
  Zn  Zn143  1  0.81120491  0.81328072  0.81109647  1
  Zn  Zn144  1  0.18903656  0.43812352  0.43635706  1
  Zn  Zn145  1  0.18634234  0.43937591  0.93735874  1
  Zn  Zn146  1  0.18679331  0.93672454  0.43652496  1
  Zn  Zn147  1  0.18685029  0.93840378  0.93780535  1
  Zn  Zn148  1  0.68699412  0.43655623  0.43798761  1
  Zn  Zn149  1  0.68786052  0.43716118  0.93608783  1
  Zn  Zn150  1  0.68869714  0.93690504  0.43966350  1
  Zn  Zn151  1  0.68826771  0.93684233  0.93864804  1
  Zn  Zn152  1  0.31197058  0.06270378  0.06035176  1
  Zn  Zn153  1  0.31224622  0.06244800  0.56230393  1
  Zn  Zn154  1  0.31392585  0.56296456  0.06409455  1
  Zn  Zn155  1  0.31452902  0.56153504  0.56334809  1
  Zn  Zn156  1  0.81023052  0.06369848  0.06300198  1
  Zn  Zn157  1  0.81168201  0.06286973  0.56198847  1
  Zn  Zn158  1  0.81515990  0.56153891  0.06216101  1
  Zn  Zn159  1  0.81301174  0.56311258  0.56368553  1
  Zn  Zn160  1  0.43706727  0.43868650  0.18630903  1
  Zn  Zn161  1  0.43690860  0.43703984  0.68619905  1
  Zn  Zn162  1  0.43868044  0.93642971  0.18713565  1
  Zn  Zn163  1  0.43905862  0.93759798  0.68728666  1
  Zn  Zn164  1  0.93751909  0.43791679  0.18662014  1
  Zn  Zn165  1  0.93554992  0.43733786  0.68834259  1
  Zn  Zn166  1  0.93477694  0.93814389  0.18895988  1
  Zn  Zn167  1  0.93784119  0.93583673  0.68848616  1
  Zn  Zn168  1  0.05954989  0.06121052  0.31292764  1
  Zn  Zn169  1  0.06292671  0.06289654  0.81336673  1
  Zn  Zn170  1  0.06450325  0.56231781  0.31126735  1
  Zn  Zn171  1  0.06286065  0.56238521  0.81319826  1
  Zn  Zn172  1  0.56054852  0.06212551  0.31206988  1
  Zn  Zn173  1  0.56045185  0.06267095  0.81009102  1
  Zn  Zn174  1  0.56377179  0.56324297  0.31400133  1
  Zn  Zn175  1  0.56367606  0.56298188  0.81301733  1
  Zn  Zn176  1  0.43786849  0.18707021  0.43670146  1
  Zn  Zn177  1  0.43816387  0.18694407  0.93554814  1
  Zn  Zn178  1  0.43725240  0.68728267  0.43759048  1
  Zn  Zn179  1  0.43634785  0.68758485  0.93720028  1
  Zn  Zn180  1  0.93468513  0.18744276  0.43848244  1
  Zn  Zn181  1  0.93811246  0.18782884  0.93788468  1
  Zn  Zn182  1  0.93845227  0.68680289  0.43807048  1
  Zn  Zn183  1  0.93626757  0.68843051  0.93822673  1
  Zn  Zn184  1  0.06220760  0.31156710  0.06159824  1
  Zn  Zn185  1  0.06245031  0.31271778  0.56323623  1
  Zn  Zn186  1  0.06148053  0.81378385  0.06210049  1
  Zn  Zn187  1  0.06317556  0.81134070  0.56270047  1
  Zn  Zn188  1  0.56276383  0.31371669  0.06401993  1
  Zn  Zn189  1  0.56300337  0.31325635  0.56257604  1
  Zn  Zn190  1  0.56128672  0.81225130  0.06191229  1
  Zn  Zn191  1  0.56062972  0.81302485  0.56380512  1
  O  O192  1  0.11731469  0.11869604  0.12504636  1
  O  O193  1  0.11966738  0.11912460  0.61900986  1
  O  O194  1  0.11552720  0.62700353  0.11923189  1
  O  O195  1  0.12020431  0.61873360  0.61906453  1
  O  O196  1  0.62540927  0.11770125  0.11723576  1
  O  O197  1  0.61978005  0.11786222  0.61877068  1
  O  O198  1  0.61830442  0.62184909  0.11861060  1
  O  O199  1  0.61792208  0.61780394  0.62415526  1
  O  O200  1  0.38273141  0.37542512  0.38080957  1
  O  O201  1  0.37853087  0.37803198  0.88367265  1
  O  O202  1  0.37257666  0.88078107  0.38403142  1
  O  O203  1  0.37937121  0.88048039  0.88017381  1
  O  O204  1  0.88203682  0.38524125  0.37680730  1
  O  O205  1  0.88170500  0.37335007  0.88399627  1
  O  O206  1  0.88155929  0.87621997  0.38259993  1
  O  O207  1  0.87616943  0.88780282  0.87704644  1
  O  O208  1  0.25355604  0.00592373  0.36808212  1
  O  O209  1  0.25471870  0.00492498  0.86920132  1
  O  O210  1  0.25242379  0.50662025  0.36746295  1
  O  O211  1  0.25043584  0.50789920  0.86782167  1
  O  O212  1  0.75052613  0.00872666  0.37405378  1
  O  O213  1  0.76024653  0.00642650  0.87635102  1
  O  O214  1  0.75894970  0.49984293  0.36896097  1
  O  O215  1  0.75023321  0.50697718  0.86840383  1
  O  O216  1  0.24872541  0.49275728  0.13132115  1
  O  O217  1  0.24297726  0.49883560  0.63132043  1
  O  O218  1  0.24353674  0.99567341  0.13017974  1
  O  O219  1  0.24342141  0.99509721  0.62980512  1
  O  O220  1  0.75155464  0.49770788  0.13774599  1
  O  O221  1  0.74411743  0.49539171  0.63036001  1
  O  O222  1  0.73814973  0.99424128  0.12561442  1
  O  O223  1  0.73826565  0.99940719  0.62496896  1
  O  O224  1  0.00559475  0.36937922  0.25531335  1
  O  O225  1  0.00608350  0.36902456  0.75472224  1
  O  O226  1  0.00450139  0.87062861  0.25495408  1
  O  O227  1  0.00829164  0.86813336  0.75195804  1
  O  O228  1  0.50500451  0.37027021  0.25493179  1
  O  O229  1  0.50741791  0.36903122  0.75015123  1
  O  O230  1  0.50675434  0.86717879  0.25167674  1
  O  O231  1  0.50123206  0.86731705  0.75692603  1
  O  O232  1  0.49236525  0.13257763  0.24835778  1
  O  O233  1  0.49789166  0.13295418  0.74130312  1
  O  O234  1  0.49571708  0.62918194  0.24554043  1
  O  O235  1  0.49480641  0.62940318  0.74572635  1
  O  O236  1  0.99369168  0.13115839  0.24577751  1
  O  O237  1  0.99623303  0.12987536  0.74473502  1
  O  O238  1  1.00110319  0.63135019  0.24022958  1
  O  O239  1  1.00110843  0.63206841  0.74300545  1
  O  O240  1  0.37032730  0.25520187  0.00478455  1
  O  O241  1  0.36960795  0.25465378  0.50342941  1
  O  O242  1  0.36749518  0.75716940  0.00100195  1
  O  O243  1  0.36849956  0.76011304  0.50034168  1
  O  O244  1  0.87490734  0.25886515  0.00561550  1
  O  O245  1  0.86603829  0.25257080  0.50286971  1
  O  O246  1  0.86758401  0.75236485  0.00764718  1
  O  O247  1  0.86846328  0.75393399  0.50507279  1
  O  O248  1  0.12950179  0.24398058  0.49392754  1
  O  O249  1  0.13255257  0.24939364  0.99265854  1
  O  O250  1  0.13160716  0.74225600  0.49903406  1
  O  O251  1  0.13083190  0.74632674  0.99440447  1
  O  O252  1  0.62947544  0.24448947  0.49382136  1
  O  O253  1  0.62480159  0.24117526  0.99493518  1
  O  O254  1  0.63294893  0.75156231  0.49318991  1
  O  O255  1  0.63020379  0.74349033  0.99518476  1
  O  O256  1  0.49269155  0.24879100  0.13170757  1
  O  O257  1  0.49557361  0.24455291  0.62875880  1
  O  O258  1  0.49974835  0.74322113  0.13263147  1
  O  O259  1  0.49882220  0.74317601  0.63216033  1
  O  O260  1  0.99489773  0.24422922  0.13154070  1
  O  O261  1  1.00031269  0.24235002  0.63153142  1
  O  O262  1  0.99470715  0.74376612  0.13004776  1
  O  O263  1  0.99604978  0.74399660  0.63007828  1
  O  O264  1  0.00508633  0.25481081  0.37025592  1
  O  O265  1  0.00713230  0.25427404  0.86878402  1
  O  O266  1  0.00109347  0.75611284  0.36877312  1
  O  O267  1  0.00689792  0.75155935  0.86939564  1
  O  O268  1  0.50544842  0.25554248  0.36869526  1
  O  O269  1  0.50669139  0.25056245  0.86675626  1
  O  O270  1  0.51006329  0.75153347  0.37041071  1
  O  O271  1  0.50541915  0.75451572  0.87038904  1
  O  O272  1  0.24345186  0.12979666  0.49334451  1
  O  O273  1  0.24825156  0.13273794  0.99279785  1
  O  O274  1  0.24625128  0.62883806  0.49508488  1
  O  O275  1  0.24559574  0.63122429  0.99576195  1
  O  O276  1  0.74342287  0.13171671  0.49444220  1
  O  O277  1  0.73824603  0.12671291  0.99406858  1
  O  O278  1  0.74879472  0.63765602  0.49798981  1
  O  O279  1  0.74441003  0.62923971  0.99629248  1
  O  O280  1  0.25507886  0.36995037  0.00489959  1
  O  O281  1  0.25627530  0.36765976  0.49952023  1
  O  O282  1  0.25454439  0.87061720  0.00505025  1
  O  O283  1  0.25618719  0.87032408  0.50429745  1
  O  O284  1  0.76184930  0.37356196  0.00057733  1
  O  O285  1  0.74955403  0.36837087  0.50694481  1
  O  O286  1  0.75045364  0.86692045  0.00789039  1
  O  O287  1  0.75668226  0.86323543  0.50212272  1
  O  O288  1  0.13212228  0.49216169  0.24743470  1
  O  O289  1  0.13058110  0.49502336  0.74413001  1
  O  O290  1  0.12929528  0.99525888  0.24446842  1
  O  O291  1  0.12994944  0.99455761  0.74458607  1
  O  O292  1  0.63520026  0.49449497  0.25176904  1
  O  O293  1  0.63026938  0.49414018  0.74489706  1
  O  O294  1  0.62524899  0.99473383  0.24057614  1
  O  O295  1  0.62633551  1.00052031  0.73799988  1
  O  O296  1  0.36838257  0.00481088  0.25386697  1
  O  O297  1  0.36744297  0.00054793  0.75550338  1
  O  O298  1  0.36862941  0.50684296  0.25139663  1
  O  O299  1  0.36898378  0.50625170  0.75110727  1
  O  O300  1  0.87099941  0.00946593  0.25251062  1
  O  O301  1  0.87727888  0.00629621  0.76083444  1
  O  O302  1  0.86796771  0.49896156  0.25941748  1
  O  O303  1  0.86595616  0.50262291  0.75286026  1
  O  O304  1  0.12029782  0.36873339  0.36889772  1
  O  O305  1  0.12039503  0.36892941  0.86895796  1
  O  O306  1  0.11801127  0.87390103  0.36807239  1
  O  O307  1  0.12466160  0.86891150  0.86811336  1
  O  O308  1  0.61921065  0.36832429  0.36951315  1
  O  O309  1  0.62324638  0.36719125  0.86856173  1
  O  O310  1  0.62474973  0.86459182  0.37016079  1
  O  O311  1  0.61806456  0.86844773  0.87587793  1
  O  O312  1  0.37550377  0.13090848  0.13071944  1
  O  O313  1  0.38147143  0.13120940  0.62413720  1
  O  O314  1  0.38220119  0.62852240  0.13222243  1
  O  O315  1  0.38223002  0.62669143  0.63220299  1
  O  O316  1  0.87941382  0.13120037  0.13054245  1
  O  O317  1  0.88228870  0.12498489  0.63208950  1
  O  O318  1  0.88573983  0.63142357  0.12555014  1
  O  O319  1  0.88342530  0.63161729  0.62631885  1
  O  O320  1  0.25546360  0.25525745  0.11906231  1
  O  O321  1  0.25598291  0.25032670  0.61662015  1
  O  O322  1  0.25058303  0.75828106  0.11835040  1
  O  O323  1  0.25182126  0.75719021  0.61814882  1
  O  O324  1  0.75948639  0.25357932  0.12237698  1
  O  O325  1  0.74925259  0.25605558  0.61902479  1
  O  O326  1  0.75389845  0.75329761  0.12077627  1
  O  O327  1  0.75509448  0.74977279  0.61625350  1
  O  O328  1  0.24371895  0.24376108  0.37905843  1
  O  O329  1  0.24596042  0.24522834  0.87888298  1
  O  O330  1  0.24662318  0.74252846  0.38150639  1
  O  O331  1  0.24405325  0.74477092  0.88022936  1
  O  O332  1  0.74309094  0.24554167  0.38061427  1
  O  O333  1  0.74193278  0.24240389  0.87672450  1
  O  O334  1  0.74295018  0.74926856  0.38356423  1
  O  O335  1  0.74469659  0.74444790  0.88152642  1
  O  O336  1  0.00142882  0.11832770  0.00769587  1
  O  O337  1  0.00541101  0.11971483  0.50473141  1
  O  O338  1  0.00610742  0.62715266  0.01001177  1
  O  O339  1  0.00682369  0.61893737  0.50559375  1
  O  O340  1  0.51245263  0.12254602  0.00115113  1
  O  O341  1  0.50684524  0.12422058  0.50522319  1
  O  O342  1  0.50444133  0.61827520  0.00487519  1
  O  O343  1  0.50073929  0.61894421  0.50719180  1
  O  O344  1  0.49569483  0.38004723  0.49411976  1
  O  O345  1  0.49496030  0.38437776  1.00041336  1
  O  O346  1  0.48594568  0.87559062  0.49817998  1
  O  O347  1  0.49261818  0.87532736  0.99270786  1
  O  O348  1  1.00040673  0.38175983  0.49298705  1
  O  O349  1  0.99225682  0.37461094  0.99366658  1
  O  O350  1  0.99625189  0.87941507  0.49543929  1
  O  O351  1  0.99645632  0.88559023  0.99862437  1
  O  O352  1  0.50010742  0.49344499  0.38158894  1
  O  O353  1  0.49930872  0.50004760  0.88860931  1
  O  O354  1  0.49065041  0.99666252  0.37722369  1
  O  O355  1  0.49306966  0.99321769  0.87477820  1
  O  O356  1  0.99393798  0.49497137  0.37891006  1
  O  O357  1  0.99861187  0.49112243  0.87667480  1
  O  O358  1  0.99777595  0.99306136  0.38270754  1
  O  O359  1  0.99094097  1.00146417  0.88226113  1
  O  O360  1  0.00366768  0.00552575  0.12043490  1
  O  O361  1  0.00634567  0.00496505  0.61973693  1
  O  O362  1  0.00174565  0.51307388  0.12463671  1
  O  O363  1  0.00569270  0.50476127  0.61972507  1
  O  O364  1  0.51284134  0.00131583  0.12227288  1
  O  O365  1  0.50820671  0.00658628  0.62220887  1
  O  O366  1  0.50145956  0.50589527  0.11436281  1
  O  O367  1  0.50622767  0.50481537  0.61988824  1
  O  O368  1  0.24531274  0.37907618  0.24479299  1
  O  O369  1  0.24329959  0.38170154  0.74830407  1
  O  O370  1  0.24456496  0.88091661  0.24485771  1
  O  O371  1  0.24468086  0.88011012  0.74412248  1
  O  O372  1  0.74473278  0.38450862  0.25102135  1
  O  O373  1  0.74375442  0.38001386  0.74516334  1
  O  O374  1  0.74186954  0.87598020  0.24314637  1
  O  O375  1  0.74516304  0.87932366  0.74617186  1
  O  O376  1  0.25460561  0.11981772  0.25462839  1
  O  O377  1  0.25139548  0.11795613  0.75560983  1
  O  O378  1  0.25439714  0.62072299  0.25410919  1
  O  O379  1  0.25479687  0.62049746  0.75512329  1
  O  O380  1  0.75529809  0.12536605  0.25707424  1
  O  O381  1  0.75744757  0.12189400  0.75685020  1
  O  O382  1  0.75304024  0.61286265  0.25374863  1
  O  O383  1  0.75040092  0.61860750  0.75759464  1
  O  O384  1  0.36789411  0.12025715  0.36886863  1
  O  O385  1  0.36834136  0.11832885  0.87256008  1
  O  O386  1  0.36852658  0.62334381  0.36813399  1
  O  O387  1  0.36770644  0.62339100  0.86843141  1
  O  O388  1  0.86767241  0.12467019  0.36884023  1
  O  O389  1  0.87041233  0.11781180  0.87094850  1
  O  O390  1  0.87638173  0.61116310  0.37302675  1
  O  O391  1  0.86636896  0.62311240  0.87427306  1
  O  O392  1  0.13137393  0.37424622  0.13155045  1
  O  O393  1  0.12661543  0.38144467  0.63140769  1
  O  O394  1  0.13000054  0.88185556  0.13081439  1
  O  O395  1  0.13037579  0.88090549  0.63002149  1
  O  O396  1  0.62877122  0.37785755  0.13379034  1
  O  O397  1  0.63039420  0.38090333  0.63125884  1
  O  O398  1  0.62920318  0.88199511  0.12897308  1
  O  O399  1  0.62440257  0.88683064  0.62507141  1
  O  O400  1  0.11937065  0.25456912  0.25580243  1
  O  O401  1  0.12061545  0.25541880  0.75475430  1
  O  O402  1  0.11773603  0.75851995  0.25085179  1
  O  O403  1  0.12085680  0.75522160  0.75476605  1
  O  O404  1  0.61943640  0.25494695  0.25526782  1
  O  O405  1  0.61969724  0.25445646  0.75427656  1
  O  O406  1  0.62139925  0.75392562  0.25827731  1
  O  O407  1  0.61764899  0.75016901  0.75796935  1
  O  O408  1  0.37905401  0.24476158  0.24441976  1
  O  O409  1  0.38134893  0.24944232  0.74149508  1
  O  O410  1  0.38210380  0.74374766  0.24934500  1
  O  O411  1  0.38178254  0.74319056  0.74847209  1
  O  O412  1  0.88103685  0.24627745  0.24539471  1
  O  O413  1  0.88293620  0.24258035  0.74978113  1
  O  O414  1  0.88098240  0.74735098  0.24388685  1
  O  O415  1  0.88252930  0.74862660  0.74384587  1
  O  O416  1  0.38248111  0.49255619  0.49847286  1
  O  O417  1  0.38446749  0.49474956  0.99995977  1
  O  O418  1  0.37251993  0.99051603  0.49330028  1
  O  O419  1  0.37597950  0.99350764  0.99253866  1
  O  O420  1  0.88123969  0.49861669  0.49131682  1
  O  O421  1  0.87902653  0.48758694  0.99836209  1
  O  O422  1  0.88202474  0.99286093  0.50015959  1
  O  O423  1  0.88042632  1.00148404  0.99182676  1
  O  O424  1  0.11763920  0.00227419  0.00675059  1
  O  O425  1  0.11986896  0.00534730  0.50534047  1
  O  O426  1  0.12246811  0.50962387  0.00320416  1
  O  O427  1  0.12024821  0.50478030  0.50474962  1
  O  O428  1  0.62412711  0.00841467  0.00786028  1
  O  O429  1  0.62292903  0.00584081  0.50814940  1
  O  O430  1  0.61663564  0.50500113  0.00155497  1
  O  O431  1  0.61886074  0.50162529  0.50651312  1
  O  O432  1  0.36876729  0.36851741  0.11953572  1
  O  O433  1  0.37383957  0.36726088  0.61645073  1
  O  O434  1  0.36755866  0.87504048  0.11837889  1
  O  O435  1  0.36839765  0.87562786  0.61457119  1
  O  O436  1  0.87730691  0.36876286  0.11547002  1
  O  O437  1  0.86634238  0.37195193  0.62319641  1
  O  O438  1  0.86682286  0.86878207  0.12480657  1
  O  O439  1  0.87530826  0.86722972  0.61810707  1
  O  O440  1  0.12910578  0.12984949  0.37958676  1
  O  O441  1  0.13236143  0.13189882  0.87601066  1
  O  O442  1  0.13150564  0.62557833  0.38192303  1
  O  O443  1  0.13098434  0.63203541  0.88041018  1
  O  O444  1  0.62893818  0.13085548  0.37924091  1
  O  O445  1  0.62907746  0.12823756  0.88196577  1
  O  O446  1  0.62743823  0.63861799  0.37783991  1
  O  O447  1  0.63075756  0.63127547  0.88201424  1
