# generated using pymatgen
data_V3Zn3O8
_symmetry_space_group_name_H-M   'P 1'
_cell_length_a   17.09139285
_cell_length_b   17.09100821
_cell_length_c   17.09178153
_cell_angle_alpha   89.98006657
_cell_angle_beta   89.99628588
_cell_angle_gamma   89.99672819
_symmetry_Int_Tables_number   1
_chemical_formula_structural   V3Zn3O8
_chemical_formula_sum   'V96 Zn96 O256'
_cell_volume   4992.66520739
_cell_formula_units_Z   32
loop_
 _symmetry_equiv_pos_site_id
 _symmetry_equiv_pos_as_xyz
  1  'x, y, z'
loop_
 _atom_site_type_symbol
 _atom_site_label
 _atom_site_symmetry_multiplicity
 _atom_site_fract_x
 _atom_site_fract_y
 _atom_site_fract_z
 _atom_site_occupancy
  V  V0  1  0.75009013  0.87477006  0.62392929  1
  V  V1  1  0.00075158  0.75006421  0.75038084  1
  V  V2  1  0.62392031  0.12315302  0.00192922  1
  V  V3  1  0.12473920  0.25120715  0.87511728  1
  V  V4  1  0.87435395  0.37410990  0.00078448  1
  V  V5  1  -0.00188805  0.12626573  0.12477809  1
  V  V6  1  0.49878358  0.24642983  0.74778309  1
  V  V7  1  0.62477625  0.74972810  0.37494105  1
  V  V8  1  0.87541676  0.74923850  0.12517107  1
  V  V9  1  0.75098805  0.37374420  0.62507531  1
  V  V10  1  0.87554650  0.49968918  0.87520566  1
  V  V11  1  0.00079043  0.50020077  0.00057106  1
  V  V12  1  0.25141171  0.37578792  0.62439879  1
  V  V13  1  0.75036266  0.25095243  0.50060300  1
  V  V14  1  0.87484323  0.87540087  -0.00096026  1
  V  V15  1  0.25009849  0.50016177  0.24984053  1
  V  V16  1  0.12407084  0.87572517  0.24927183  1
  V  V17  1  0.74885357  0.87492392  0.12597853  1
  V  V18  1  0.49778421  -0.00267029  -0.00089365  1
  V  V19  1  0.25212170  0.12337977  0.87103641  1
  V  V20  1  0.75072823  0.49893660  0.75066463  1
  V  V21  1  0.87450218  0.87495580  0.50017096  1
  V  V22  1  0.49910704  0.24847441  0.24977387  1
  V  V23  1  0.25077946  0.62513585  0.87619866  1
  V  V24  1  0.74975110  0.12612579  0.37553140  1
  V  V25  1  0.75080524  0.74989557  0.50025021  1
  V  V26  1  0.62472563  -0.00122551  0.62388070  1
  V  V27  1  0.37556561  0.37417019  -0.00060040  1
  V  V28  1  -0.00265603  0.00029860  -0.00207665  1
  V  V29  1  0.75037340  0.12304388  0.87477735  1
  V  V30  1  0.75058665  0.62442900  0.87559628  1
  V  V31  1  -0.00117823  0.75043455  0.24938083  1
  V  V32  1  0.00039255  0.62617800  0.12533813  1
  V  V33  1  0.87659552  0.62554772  0.75031892  1
  V  V34  1  0.37634645  0.62495701  0.24874296  1
  V  V35  1  0.37495763  0.50083959  0.37494081  1
  V  V36  1  0.00087865  0.62592202  0.62624361  1
  V  V37  1  0.24909276  0.24925853  -0.00016045  1
  V  V38  1  0.87493006  0.00038946  0.37482064  1
  V  V39  1  0.25037460  0.87459769  0.12157268  1
  V  V40  1  0.75068762  0.75012232  0.00045275  1
  V  V41  1  0.75056426  0.37416391  0.12551731  1
  V  V42  1  0.37666031  0.62377806  0.75102616  1
  V  V43  1  0.49749026  0.00012995  0.49932790  1
  V  V44  1  0.62611648  0.62393575  0.50018945  1
  V  V45  1  0.24985613  0.25149753  0.49957272  1
  V  V46  1  0.50040215  0.37454854  0.87641221  1
  V  V47  1  0.12397519  0.25209294  0.37444432  1
  V  V48  1  0.49770458  0.87511236  0.37395995  1
  V  V49  1  0.75166635  0.50046912  0.25183183  1
  V  V50  1  0.87451215  0.12394178  0.74964214  1
  V  V51  1  0.25036741  0.62708843  0.37483941  1
  V  V52  1  0.12488341  0.75019080  0.37540957  1
  V  V53  1  -0.00061058  0.87513046  0.37455643  1
  V  V54  1  0.62662816  0.87435552  0.74886646  1
  V  V55  1  0.12396843  0.12602252  0.50020589  1
  V  V56  1  0.12389170  0.37527308  0.25048385  1
  V  V57  1  0.62574000  0.49999841  0.12528567  1
  V  V58  1  0.12606669  0.62717181  0.49988849  1
  V  V59  1  0.37404575  0.37516372  0.50016962  1
  V  V60  1  0.25148564  0.49984008  0.75024443  1
  V  V61  1  0.00022593  0.37557925  0.87530139  1
  V  V62  1  0.49955527  0.62542492  0.12587295  1
  V  V63  1  0.37623403  0.49867482  0.87552271  1
  V  V64  1  0.62486127  0.24915511  0.87624559  1
  V  V65  1  0.62484413  0.12455950  0.49992091  1
  V  V66  1  0.75050034  0.62365845  0.37523907  1
  V  V67  1  0.62534208  0.87515906  0.25047025  1
  V  V68  1  0.37456617  0.24809814  0.12515296  1
  V  V69  1  0.74930181  0.00011047  0.25012805  1
  V  V70  1  -0.00084085  0.49860280  0.49898767  1
  V  V71  1  0.00059142  0.12568919  0.62491174  1
  V  V72  1  0.12638947  0.50205221  0.62561563  1
  V  V73  1  0.62578199  0.74901850  0.87497083  1
  V  V74  1  0.37392448  0.75225153  0.62343753  1
  V  V75  1  0.50129157  0.62405387  0.62546219  1
  V  V76  1  -0.00048224  0.25033028  0.74980408  1
  V  V77  1  0.50020503  0.49889398  0.49990587  1
  V  V78  1  0.00085615  0.00160447  0.49992604  1
  V  V79  1  0.12660465  0.62622950  -0.00032141  1
  V  V80  1  0.12526164  0.50056086  0.12525066  1
  V  V81  1  0.62603129  0.37433802  0.75176838  1
  V  V82  1  -0.00040435  0.25088105  0.25046409  1
  V  V83  1  0.50164822  0.74868089  0.75062138  1
  V  V84  1  0.62588852  0.49955732  0.62585774  1
  V  V85  1  0.87504840  0.12657921  0.25023480  1
  V  V86  1  0.12568761  0.37647591  0.75058266  1
  V  V87  1  0.62513185  0.62434403  0.00093944  1
  V  V88  1  0.24952205  0.37435479  0.12465091  1
  V  V89  1  0.24950693  0.00140129  0.24956929  1
  V  V90  1  0.12570839  0.75006145  0.87496378  1
  V  V91  1  0.24909358  0.12473491  0.37384648  1
  V  V92  1  0.49961848  0.87369375  0.87554580  1
  V  V93  1  0.12251159  0.12571992  -0.00092229  1
  V  V94  1  0.12735680  0.87733845  0.74787848  1
  V  V95  1  0.49942813  0.37389080  0.37397148  1
  Zn  Zn96  1  0.12385917  0.00058291  0.12318240  1
  Zn  Zn97  1  0.25150085  0.75124589  -0.00003692  1
  Zn  Zn98  1  0.87381518  0.25030331  0.12567347  1
  Zn  Zn99  1  -0.00150463  0.87537373  0.87321072  1
  Zn  Zn100  1  0.37333280  -0.00299285  0.87162213  1
  Zn  Zn101  1  0.37482882  0.12319225  0.24943061  1
  Zn  Zn102  1  0.37198942  0.87469310  0.49880167  1
  Zn  Zn103  1  0.37451321  0.75039769  0.12355710  1
  Zn  Zn104  1  0.12875581  0.00074697  0.62477305  1
  Zn  Zn105  1  0.87614253  0.62506623  0.25221428  1
  Zn  Zn106  1  0.37294041  0.87235841  -0.00245982  1
  Zn  Zn107  1  0.49765898  0.12215528  0.12625102  1
  Zn  Zn108  1  0.87598024  0.37543462  0.50015235  1
  Zn  Zn109  1  0.87564753  0.25170654  0.62471988  1
  Zn  Zn110  1  0.87576994  0.75096178  0.62578619  1
  Zn  Zn111  1  0.49883942  0.75080047  0.24955426  1
  Zn  Zn112  1  0.25098238  0.87967616  0.62117153  1
  Zn  Zn113  1  0.75010855  -0.00110299  0.74782863  1
  Zn  Zn114  1  0.49780341  0.12455480  0.62409362  1
  Zn  Zn115  1  0.87287076  -0.00322782  0.87309556  1
  Zn  Zn116  1  0.25034607  0.75337313  0.49958744  1
  Zn  Zn117  1  0.37604739  0.24865826  0.62383445  1
  Zn  Zn118  1  -0.00247619  0.37671337  0.37489543  1
  Zn  Zn119  1  0.62539258  0.37262387  0.25086903  1
  Zn  Zn120  1  0.75027322  0.24795884  0.00316329  1
  Zn  Zn121  1  0.50062374  0.49868876  0.00043999  1
  Zn  Zn122  1  0.37248761  0.00004617  0.37534382  1
  Zn  Zn123  1  0.62288073  -0.00066368  0.12700488  1
  Zn  Zn124  1  0.37459755  0.12211988  0.74538078  1
  Zn  Zn125  1  0.25415772  0.00018535  0.74578329  1
  Zn  Zn126  1  0.87562084  0.49958546  0.37687192  1
  Zn  Zn127  1  0.62434024  0.25057351  0.37354564  1
  Zn  Zn128  1  0.18439586  0.18703357  0.18627187  1
  Zn  Zn129  1  0.18682123  0.18971984  0.68582676  1
  Zn  Zn130  1  0.18747516  0.68930731  0.18820301  1
  Zn  Zn131  1  0.18913116  0.68922107  0.68884456  1
  Zn  Zn132  1  0.68585921  0.18757565  0.18810396  1
  Zn  Zn133  1  0.68522398  0.18613468  0.68569528  1
  Zn  Zn134  1  0.68671708  0.68798137  0.18901922  1
  Zn  Zn135  1  0.68965886  0.68780326  0.68692654  1
  Zn  Zn136  1  0.31285692  0.31188158  0.31244882  1
  Zn  Zn137  1  0.31389941  0.31084939  0.81231180  1
  Zn  Zn138  1  0.31315382  0.81114809  0.30830220  1
  Zn  Zn139  1  0.31222797  0.81234009  0.81176789  1
  Zn  Zn140  1  0.81645832  0.31501258  0.31640691  1
  Zn  Zn141  1  0.81236189  0.30962696  0.81440649  1
  Zn  Zn142  1  0.81244411  0.81182531  0.31269253  1
  Zn  Zn143  1  0.81335831  0.81218027  0.81195072  1
  Zn  Zn144  1  0.18618720  0.43901735  0.43692469  1
  Zn  Zn145  1  0.18851524  0.43827940  0.93800589  1
  Zn  Zn146  1  0.18776719  0.93669173  0.43886199  1
  Zn  Zn147  1  0.18369983  0.93917171  0.93491134  1
  Zn  Zn148  1  0.68546754  0.43471600  0.43650557  1
  Zn  Zn149  1  0.68751987  0.43761977  0.93940080  1
  Zn  Zn150  1  0.68616729  0.93763125  0.43711007  1
  Zn  Zn151  1  0.68622252  0.93757368  0.93715893  1
  Zn  Zn152  1  0.31320929  0.06189688  0.06104063  1
  Zn  Zn153  1  0.31293353  0.06463540  0.56538544  1
  Zn  Zn154  1  0.31343170  0.56120347  0.06135854  1
  Zn  Zn155  1  0.31288907  0.56511031  0.56178683  1
  Zn  Zn156  1  0.81244936  0.06105325  0.06456606  1
  Zn  Zn157  1  0.81290800  0.06266664  0.56311348  1
  Zn  Zn158  1  0.81400797  0.56237144  0.06344127  1
  Zn  Zn159  1  0.81427123  0.56313642  0.56442515  1
  Zn  Zn160  1  0.43722213  0.43636044  0.18699084  1
  Zn  Zn161  1  0.43851990  0.43468490  0.68791363  1
  Zn  Zn162  1  0.43546708  0.93798049  0.18575980  1
  Zn  Zn163  1  0.43762281  0.93837044  0.68994134  1
  Zn  Zn164  1  0.93663574  0.43802215  0.18788032  1
  Zn  Zn165  1  0.93699551  0.43733859  0.68556809  1
  Zn  Zn166  1  0.93561393  0.93849975  0.18547571  1
  Zn  Zn167  1  0.93986442  0.93821754  0.68579524  1
  Zn  Zn168  1  0.06351175  0.06347758  0.31220648  1
  Zn  Zn169  1  0.06313954  0.06179069  0.81284813  1
  Zn  Zn170  1  0.06327008  0.56413627  0.31288426  1
  Zn  Zn171  1  0.06362661  0.56328942  0.81344438  1
  Zn  Zn172  1  0.56338425  0.06376128  0.31358748  1
  Zn  Zn173  1  0.56331899  0.05987537  0.81284225  1
  Zn  Zn174  1  0.56425290  0.56062578  0.31173650  1
  Zn  Zn175  1  0.56294318  0.56110661  0.81363990  1
  Zn  Zn176  1  0.43382643  0.18589522  0.43535065  1
  Zn  Zn177  1  0.43669238  0.18683018  0.93654296  1
  Zn  Zn178  1  0.43846435  0.68739268  0.43790925  1
  Zn  Zn179  1  0.43592190  0.68887486  0.94107696  1
  Zn  Zn180  1  0.93686149  0.18922043  0.43658133  1
  Zn  Zn181  1  0.93494515  0.18922144  0.93775652  1
  Zn  Zn182  1  0.93635602  0.68634303  0.43756928  1
  Zn  Zn183  1  0.93918808  0.68839959  0.93716246  1
  Zn  Zn184  1  0.06144726  0.31197680  0.06397542  1
  Zn  Zn185  1  0.06431494  0.31289756  0.56450077  1
  Zn  Zn186  1  0.06378411  0.81371018  0.06172506  1
  Zn  Zn187  1  0.06190755  0.81279627  0.56350700  1
  Zn  Zn188  1  0.56283794  0.31127871  0.06426323  1
  Zn  Zn189  1  0.56438050  0.31294237  0.56270954  1
  Zn  Zn190  1  0.56348337  0.81149628  0.06320976  1
  Zn  Zn191  1  0.56216133  0.81254036  0.56146330  1
  O  O192  1  0.11626700  0.12418870  0.11629275  1
  O  O193  1  0.11757527  0.12634214  0.61760949  1
  O  O194  1  0.12034831  0.61967752  0.12016550  1
  O  O195  1  0.12115540  0.62053224  0.62088392  1
  O  O196  1  0.62371815  0.12294635  0.11236936  1
  O  O197  1  0.62196644  0.11687153  0.61746439  1
  O  O198  1  0.61867189  0.62039918  0.12085922  1
  O  O199  1  0.62090099  0.61894620  0.62039336  1
  O  O200  1  0.37889620  0.38226118  0.38051614  1
  O  O201  1  0.38017957  0.37926919  0.88025877  1
  O  O202  1  0.38745547  0.87548651  0.37431349  1
  O  O203  1  0.38440186  0.87490246  0.87649800  1
  O  O204  1  0.88035562  0.38216879  0.38235039  1
  O  O205  1  0.88043604  0.38041011  0.87954238  1
  O  O206  1  0.87996080  0.88081886  0.38006007  1
  O  O207  1  0.87694623  0.87734910  0.88269171  1
  O  O208  1  0.24812577  0.00478513  0.36458317  1
  O  O209  1  0.24850831  0.01318091  0.87325897  1
  O  O210  1  0.25505020  0.50646630  0.36927815  1
  O  O211  1  0.25623634  0.50433197  0.86898441  1
  O  O212  1  0.75576086  0.00547038  0.37051394  1
  O  O213  1  0.74997153  0.01198974  0.87144297  1
  O  O214  1  0.74787550  0.50460752  0.36676696  1
  O  O215  1  0.75561711  0.50467586  0.87013502  1
  O  O216  1  0.24461356  0.49417582  0.13031204  1
  O  O217  1  0.24588901  0.49644940  0.63070127  1
  O  O218  1  0.24684734  0.99348592  0.13235167  1
  O  O219  1  0.24577726  0.99780603  0.62834952  1
  O  O220  1  0.74618345  0.49379715  0.13228152  1
  O  O221  1  0.74468660  0.49500307  0.63150182  1
  O  O222  1  0.74831453  0.99242257  0.13268557  1
  O  O223  1  0.74273156  0.99272377  0.62409177  1
  O  O224  1  0.00686251  0.37018361  0.24978738  1
  O  O225  1  0.00565430  0.37145135  0.75580194  1
  O  O226  1  0.00354554  0.87095765  0.25457122  1
  O  O227  1  0.00793297  0.86896923  0.75082847  1
  O  O228  1  0.49931584  0.36542219  0.25481160  1
  O  O229  1  0.50693496  0.36738662  0.75607751  1
  O  O230  1  0.50567486  0.87594691  0.25871480  1
  O  O231  1  0.50795466  0.86718707  0.75547524  1
  O  O232  1  0.49766428  0.13430338  0.24869044  1
  O  O233  1  0.50284004  0.13704039  0.75106345  1
  O  O234  1  0.49566441  0.62345218  0.24141737  1
  O  O235  1  0.49644740  0.62882529  0.74512147  1
  O  O236  1  0.99498405  0.13028539  0.24501266  1
  O  O237  1  0.99311287  0.13044252  0.74671710  1
  O  O238  1  0.99961891  0.63185827  0.24311585  1
  O  O239  1  0.99618369  0.62894691  0.74585849  1
  O  O240  1  0.36903442  0.25528659  0.00471834  1
  O  O241  1  0.36747526  0.25845577  0.49896267  1
  O  O242  1  0.36939651  0.75368812  0.00578400  1
  O  O243  1  0.37654252  0.74960902  0.51195080  1
  O  O244  1  0.87118073  0.25853209  0.00347928  1
  O  O245  1  0.86177757  0.24978158  0.50263760  1
  O  O246  1  0.86994718  0.75477818  0.00518251  1
  O  O247  1  0.86875346  0.75710205  0.50100728  1
  O  O248  1  0.13027978  0.24632042  0.49406811  1
  O  O249  1  0.12905094  0.24601079  0.99403817  1
  O  O250  1  0.12428487  0.74392135  0.49275660  1
  O  O251  1  0.12637462  0.74323168  0.99330967  1
  O  O252  1  0.63473892  0.24408919  0.49892611  1
  O  O253  1  0.62503600  0.23878526  0.99461502  1
  O  O254  1  0.63061144  0.74336259  0.49489146  1
  O  O255  1  0.63177025  0.74384656  0.99445514  1
  O  O256  1  0.49340631  0.24928316  0.13397557  1
  O  O257  1  0.50199585  0.25041527  0.63673581  1
  O  O258  1  0.50095499  0.73623455  0.12736744  1
  O  O259  1  0.49523854  0.74302441  0.63052259  1
  O  O260  1  0.99753333  0.24440382  0.13241184  1
  O  O261  1  0.99861781  0.24441810  0.63243262  1
  O  O262  1  0.99552585  0.74582529  0.12969641  1
  O  O263  1  0.99849113  0.74242713  0.63191590  1
  O  O264  1  0.00696972  0.25183303  0.36882744  1
  O  O265  1  0.00511284  0.25641235  0.87007672  1
  O  O266  1  0.00431058  0.75551335  0.36934501  1
  O  O267  1  0.00796192  0.74997041  0.86811423  1
  O  O268  1  0.49794683  0.25532044  0.36540086  1
  O  O269  1  0.50575948  0.25501698  0.86783215  1
  O  O270  1  0.50657217  0.75895985  0.37511818  1
  O  O271  1  0.50708269  0.75256126  0.87017397  1
  O  O272  1  0.24344822  0.13159909  0.49363693  1
  O  O273  1  0.24283409  0.13038802  0.99212308  1
  O  O274  1  0.24372364  0.62695261  0.49252487  1
  O  O275  1  0.24317909  0.62377798  0.99370742  1
  O  O276  1  0.74550947  0.13212156  0.49564557  1
  O  O277  1  0.74160981  0.12358123  0.99232241  1
  O  O278  1  0.74452676  0.62890921  0.49625006  1
  O  O279  1  0.74585568  0.63006889  0.99507463  1
  O  O280  1  0.25447411  0.36890573  0.00494015  1
  O  O281  1  0.25417485  0.37223377  0.50458503  1
  O  O282  1  0.24769916  0.87788389  0.01042486  1
  O  O283  1  0.25478954  0.87037837  0.50239179  1
  O  O284  1  0.75525225  0.37569028  0.01012631  1
  O  O285  1  0.74804543  0.36601117  0.50642567  1
  O  O286  1  0.75395785  0.86934394  0.00511107  1
  O  O287  1  0.75464420  0.86956634  0.50349725  1
  O  O288  1  0.13067973  0.49586164  0.24424055  1
  O  O289  1  0.13151685  0.49570938  0.74571157  1
  O  O290  1  0.13332397  0.99444047  0.24796613  1
  O  O291  1  0.12446206  0.98860567  0.74907746  1
  O  O292  1  0.63624660  0.49778639  0.24416911  1
  O  O293  1  0.63143884  0.49435229  0.74586803  1
  O  O294  1  0.63201997  0.99379202  0.24975029  1
  O  O295  1  0.62553044  0.99182790  0.74215363  1
  O  O296  1  0.36069084  0.00108440  0.25107770  1
  O  O297  1  0.37337736  0.00481919  0.75524133  1
  O  O298  1  0.36902762  0.50417469  0.25568354  1
  O  O299  1  0.37110277  0.50395833  0.75525159  1
  O  O300  1  0.86953242  0.00569408  0.25596389  1
  O  O301  1  0.87423306  0.01248579  0.75172725  1
  O  O302  1  0.86242470  0.50276732  0.25064990  1
  O  O303  1  0.87033174  0.50494595  0.75641066  1
  O  O304  1  0.12376834  0.36998675  0.36761274  1
  O  O305  1  0.11982316  0.37151712  0.87022621  1
  O  O306  1  0.11787141  0.86983426  0.36903096  1
  O  O307  1  0.12213194  0.86849834  0.86548260  1
  O  O308  1  0.61489365  0.37148843  0.37164612  1
  O  O309  1  0.62119661  0.36957984  0.87124810  1
  O  O310  1  0.61697287  0.86978896  0.37030570  1
  O  O311  1  0.62118984  0.86728569  0.86936860  1
  O  O312  1  0.37636690  0.13333129  0.12655541  1
  O  O313  1  0.38104006  0.13225198  0.62751333  1
  O  O314  1  0.38463480  0.62166789  0.13041208  1
  O  O315  1  0.38227318  0.63055422  0.63115477  1
  O  O316  1  0.87955526  0.12710919  0.13263384  1
  O  O317  1  0.88006740  0.12705924  0.63488887  1
  O  O318  1  0.88266736  0.63192590  0.12537831  1
  O  O319  1  0.88218346  0.62629447  0.63360954  1
  O  O320  1  0.25315667  0.25528062  0.11930306  1
  O  O321  1  0.24974776  0.25924019  0.61728701  1
  O  O322  1  0.24866462  0.76261161  0.12460619  1
  O  O323  1  0.26410404  0.74858555  0.62462619  1
  O  O324  1  0.75050037  0.26270359  0.12568530  1
  O  O325  1  0.74921469  0.25481985  0.61639427  1
  O  O326  1  0.75484976  0.75437244  0.11947528  1
  O  O327  1  0.75158331  0.75622865  0.61758099  1
  O  O328  1  0.24322460  0.24577558  0.37950307  1
  O  O329  1  0.24374995  0.24475681  0.88065818  1
  O  O330  1  0.24298797  0.74390123  0.37357216  1
  O  O331  1  0.24360036  0.74173452  0.87520207  1
  O  O332  1  0.74872892  0.24502120  0.38411042  1
  O  O333  1  0.74368986  0.23872811  0.87752450  1
  O  O334  1  0.74431003  0.74442164  0.38089928  1
  O  O335  1  0.74512895  0.74345312  0.88071174  1
  O  O336  1  0.00175014  0.11945798  0.00400874  1
  O  O337  1  0.00388971  0.12174047  0.50455802  1
  O  O338  1  0.00635781  0.61917931  0.00531625  1
  O  O339  1  0.00618846  0.61811683  0.50591748  1
  O  O340  1  0.50917873  0.11610627  -0.00298761  1
  O  O341  1  0.50563851  0.11485918  0.49678361  1
  O  O342  1  0.50642472  0.62240742  0.00926047  1
  O  O343  1  0.50674931  0.61796043  0.50531392  1
  O  O344  1  0.49476286  0.38019697  0.49509622  1
  O  O345  1  0.49389880  0.37479089  0.99425572  1
  O  O346  1  0.50134341  0.88341535  0.48983392  1
  O  O347  1  0.50260832  0.88276419  0.99474977  1
  O  O348  1  1.00260345  0.38805454  0.50197489  1
  O  O349  1  0.99554053  0.38089012  0.99492662  1
  O  O350  1  0.99465785  0.88069897  0.49376064  1
  O  O351  1  0.99413373  0.88450905  0.99990052  1
  O  O352  1  0.49457706  0.49521384  0.38046487  1
  O  O353  1  0.49437076  0.49236930  0.87599497  1
  O  O354  1  0.50025054  0.99116637  0.38266317  1
  O  O355  1  0.50235900  0.99188305  0.88415708  1
  O  O356  1  1.00174398  0.50134043  0.38756162  1
  O  O357  1  0.99549271  0.49499301  0.88065493  1
  O  O358  1  0.99409518  0.99513535  0.37926932  1
  O  O359  1  0.99631366  1.00091774  0.88793100  1
  O  O360  1  -0.00064065  0.00673622  0.11431020  1
  O  O361  1  0.00243380  0.00830973  0.61672617  1
  O  O362  1  0.00585584  0.50536930  0.11983420  1
  O  O363  1  0.00748991  0.50593410  0.61945953  1
  O  O364  1  0.50218249  0.00107038  0.11378381  1
  O  O365  1  0.50639632  -0.00221168  0.61347879  1
  O  O366  1  0.50635151  0.50837080  0.12463079  1
  O  O367  1  0.50612531  0.50410782  0.62039728  1
  O  O368  1  0.24450217  0.38051390  0.24403648  1
  O  O369  1  0.24534001  0.38045374  0.74553011  1
  O  O370  1  0.24402943  0.88291164  0.24300194  1
  O  O371  1  0.23814904  0.87483659  0.74833501  1
  O  O372  1  0.75014764  0.38300755  0.24181340  1
  O  O373  1  0.74529883  0.37933404  0.74700319  1
  O  O374  1  0.74533377  0.88045734  0.24624587  1
  O  O375  1  0.74439885  0.87551690  0.74312253  1
  O  O376  1  0.24614694  0.11580169  0.25422163  1
  O  O377  1  0.24820754  0.12856098  0.76157316  1
  O  O378  1  0.25510302  0.61885794  0.25447978  1
  O  O379  1  0.25676176  0.61844098  0.75595164  1
  O  O380  1  0.75458560  0.12060717  0.25556810  1
  O  O381  1  0.75707063  0.12492902  0.75732712  1
  O  O382  1  0.74994355  0.61590292  0.25562004  1
  O  O383  1  0.75545790  0.61888246  0.75600330  1
  O  O384  1  0.36367328  0.12098767  0.37078556  1
  O  O385  1  0.36149491  0.12614275  0.87398785  1
  O  O386  1  0.37111949  0.61946196  0.36956464  1
  O  O387  1  0.37151658  0.61887674  0.86984561  1
  O  O388  1  0.86952793  0.11925434  0.36975660  1
  O  O389  1  0.86583835  0.12512072  0.86692082  1
  O  O390  1  0.86605199  0.62107698  0.37284680  1
  O  O391  1  0.86997733  0.61880970  0.87101523  1
  O  O392  1  0.13046975  0.38103906  0.12982248  1
  O  O393  1  0.13168485  0.38236206  0.63197233  1
  O  O394  1  0.13261877  0.87775104  0.13137761  1
  O  O395  1  0.12604985  0.87484641  0.63607148  1
  O  O396  1  0.63517850  0.38097497  0.12535055  1
  O  O397  1  0.63104758  0.38139855  0.63187227  1
  O  O398  1  0.63206842  0.87469391  0.13226406  1
  O  O399  1  0.63054187  0.87841011  0.62923360  1
  O  O400  1  0.11952400  0.25606612  0.25473308  1
  O  O401  1  0.11894820  0.25786378  0.75576762  1
  O  O402  1  0.11776026  0.75571699  0.25578545  1
  O  O403  1  0.12012585  0.75619646  0.75509907  1
  O  O404  1  0.61228774  0.25124984  0.25114331  1
  O  O405  1  0.61881056  0.25504956  0.75628374  1
  O  O406  1  0.62360145  0.75674396  0.25794886  1
  O  O407  1  0.62100852  0.75337967  0.75543031  1
  O  O408  1  0.38267981  0.24924264  0.24383694  1
  O  O409  1  0.38833910  0.25012911  0.74909364  1
  O  O410  1  0.37902479  0.74034629  0.24479181  1
  O  O411  1  0.38242522  0.74254180  0.74331713  1
  O  O412  1  0.88152825  0.24362933  0.25041966  1
  O  O413  1  0.88062298  0.23945356  0.75057055  1
  O  O414  1  0.88096423  0.74913115  0.24297316  1
  O  O415  1  0.88189133  0.74241696  0.74963458  1
  O  O416  1  0.38080107  0.49582260  0.49465688  1
  O  O417  1  0.37637004  0.49164624  0.99297432  1
  O  O418  1  0.38743948  0.99757772  0.49815537  1
  O  O419  1  0.38720964  0.99827550  0.99541449  1
  O  O420  1  0.88833905  0.50040691  0.50230628  1
  O  O421  1  0.88132646  0.49502445  0.99412109  1
  O  O422  1  0.88040515  0.99533353  0.49349607  1
  O  O423  1  0.88226597  0.99456805  0.99902281  1
  O  O424  1  0.11284968  0.00728203  0.00020542  1
  O  O425  1  0.11711137  0.00824735  0.49861056  1
  O  O426  1  0.11984952  0.50493474  0.00559880  1
  O  O427  1  0.11885239  0.50707734  0.50607726  1
  O  O428  1  0.61667724  0.00777414  0.00042605  1
  O  O429  1  0.61667239  0.00416981  0.50353738  1
  O  O430  1  0.62438708  0.50743425  0.00682251  1
  O  O431  1  0.61990067  0.50443465  0.50641531  1
  O  O432  1  0.36797109  0.36945579  0.11908143  1
  O  O433  1  0.36871324  0.37465431  0.61778904  1
  O  O434  1  0.36207607  0.87419931  0.12328629  1
  O  O435  1  0.37798242  0.86095737  0.62566172  1
  O  O436  1  0.86507328  0.37663374  0.11942797  1
  O  O437  1  0.86662416  0.37185895  0.62289179  1
  O  O438  1  0.86851879  0.86868040  0.11906464  1
  O  O439  1  0.86886561  0.87468443  0.61755220  1
  O  O440  1  0.12932009  0.13253854  0.38035623  1
  O  O441  1  0.13086961  0.13260423  0.87974248  1
  O  O442  1  0.13097110  0.63128269  0.37951908  1
  O  O443  1  0.13135129  0.62895603  0.88022087  1
  O  O444  1  0.63313964  0.12702963  0.38218145  1
  O  O445  1  0.63271513  0.12836953  0.88255216  1
  O  O446  1  0.62994274  0.62920061  0.38144373  1
  O  O447  1  0.63116960  0.62913400  0.88006755  1
