# generated using pymatgen
data_V3Zn3O8
_symmetry_space_group_name_H-M   'P 1'
_cell_length_a   17.08556524
_cell_length_b   17.08648791
_cell_length_c   17.08692302
_cell_angle_alpha   90.00570842
_cell_angle_beta   90.00152033
_cell_angle_gamma   89.99055038
_symmetry_Int_Tables_number   1
_chemical_formula_structural   V3Zn3O8
_chemical_formula_sum   'V96 Zn96 O256'
_cell_volume   4988.22471003
_cell_formula_units_Z   32
loop_
 _symmetry_equiv_pos_site_id
 _symmetry_equiv_pos_as_xyz
  1  'x, y, z'
loop_
 _atom_site_type_symbol
 _atom_site_label
 _atom_site_symmetry_multiplicity
 _atom_site_fract_x
 _atom_site_fract_y
 _atom_site_fract_z
 _atom_site_occupancy
  V  V0  1  0.37366184  0.62579153  0.25025182  1
  V  V1  1  0.37489820  0.87500026  0.50062757  1
  V  V2  1  0.00052653  0.49872454  -0.00002466  1
  V  V3  1  0.12549736  -0.00057502  0.12728902  1
  V  V4  1  -0.00151553  0.62458482  0.62547294  1
  V  V5  1  0.62587347  0.74971728  0.87474824  1
  V  V6  1  -0.00071124  0.62535910  0.12467160  1
  V  V7  1  0.74933696  0.12514731  0.37402353  1
  V  V8  1  0.37527890  0.87520680  0.00158910  1
  V  V9  1  0.12318905  0.12505491  0.50267263  1
  V  V10  1  0.75096640  0.12466845  0.87572200  1
  V  V11  1  0.37536008  0.50061653  0.87441881  1
  V  V12  1  0.62372428  0.74994647  0.37389118  1
  V  V13  1  0.87756350  -0.00070000  0.87509474  1
  V  V14  1  0.50092677  0.12531546  0.62510294  1
  V  V15  1  0.12692512  0.25040065  0.87529537  1
  V  V16  1  0.00009548  0.87517432  0.37568629  1
  V  V17  1  0.00065967  0.12555163  0.12700090  1
  V  V18  1  0.62426074  0.49897228  0.12378592  1
  V  V19  1  0.62403199  0.37507143  0.24846017  1
  V  V20  1  0.12539608  0.87535648  0.25198056  1
  V  V21  1  0.49973131  0.87540621  0.87636146  1
  V  V22  1  0.12478459  0.37545630  0.24958140  1
  V  V23  1  0.62456934  0.62466800  -0.00034557  1
  V  V24  1  0.24872578  0.62646517  0.87605656  1
  V  V25  1  -0.00028281  0.24992727  0.24907440  1
  V  V26  1  0.62634741  -0.00057370  0.12468725  1
  V  V27  1  0.50073960  0.37469982  0.87395474  1
  V  V28  1  -0.00152690  0.50033049  0.49918190  1
  V  V29  1  0.87372928  0.87452976  0.50018120  1
  V  V30  1  0.37546338  0.00049928  0.37617054  1
  V  V31  1  0.00200143  -0.00159807  0.00033381  1
  V  V32  1  0.62598864  0.87505489  0.74998593  1
  V  V33  1  0.62601682  0.12480267  -0.00017193  1
  V  V34  1  0.24910649  0.87613970  0.62695671  1
  V  V35  1  0.37456115  0.75014174  0.62523472  1
  V  V36  1  -0.00184357  0.37632572  0.37386667  1
  V  V37  1  0.24897058  0.50105524  0.25099754  1
  V  V38  1  0.37424335  0.12468479  0.25139073  1
  V  V39  1  0.74977015  0.37350981  0.12326725  1
  V  V40  1  0.37558444  0.12550441  0.74917946  1
  V  V41  1  0.62579979  0.24909162  0.87446451  1
  V  V42  1  0.12560967  0.62578609  -0.00015155  1
  V  V43  1  0.75035311  0.62350298  0.87380895  1
  V  V44  1  0.49924992  0.62526511  0.62432546  1
  V  V45  1  0.87526240  0.37231187  -0.00024108  1
  V  V46  1  0.50037609  -0.00043549  0.50139865  1
  V  V47  1  0.00173574  0.75059191  0.75198184  1
  V  V48  1  0.25137427  0.87485226  0.12588064  1
  V  V49  1  0.00143250  0.37312047  0.87312144  1
  V  V50  1  0.24823544  -0.00008387  0.74914710  1
  V  V51  1  0.62480714  0.50014791  0.62436989  1
  V  V52  1  0.75092763  0.87384737  0.12447223  1
  V  V53  1  0.50005815  0.50026383  -0.00147832  1
  V  V54  1  0.24892223  0.37609012  0.62530593  1
  V  V55  1  0.12417182  0.75087898  0.37683408  1
  V  V56  1  0.74961196  0.37438694  0.62317580  1
  V  V57  1  0.12450781  0.49833279  0.62520876  1
  V  V58  1  0.49941988  0.24995518  0.24942155  1
  V  V59  1  0.87411248  0.62461888  0.24894345  1
  V  V60  1  0.62394145  0.87411417  0.25009305  1
  V  V61  1  0.75052284  0.00024694  0.24984517  1
  V  V62  1  0.74971752  0.50112400  0.74877279  1
  V  V63  1  0.50102800  -0.00069809  -0.00063006  1
  V  V64  1  0.49930943  0.37590335  0.37466579  1
  V  V65  1  0.12428139  0.62589670  0.49989106  1
  V  V66  1  0.62526582  0.12504415  0.49902469  1
  V  V67  1  0.75115673  -0.00096721  0.75083145  1
  V  V68  1  0.87562218  0.24890809  0.62501723  1
  V  V69  1  0.50041596  0.12470651  0.12526506  1
  V  V70  1  0.25194135  0.12584251  0.87723456  1
  V  V71  1  0.62649304  -0.00060713  0.62607304  1
  V  V72  1  -0.00066308  0.00125025  0.50123912  1
  V  V73  1  0.62563701  0.24988232  0.37500138  1
  V  V74  1  0.12437835  0.50022824  0.12562336  1
  V  V75  1  0.75078346  0.74909988  0.00030311  1
  V  V76  1  0.24857900  0.75004434  0.50123081  1
  V  V77  1  0.50039918  0.87432104  0.37516460  1
  V  V78  1  0.75036673  0.75084469  0.49975877  1
  V  V79  1  0.25093485  0.37434091  0.12412242  1
  V  V80  1  0.37436037  0.62468214  0.75071412  1
  V  V81  1  0.87475396  0.74877807  0.12471848  1
  V  V82  1  0.49851693  0.49983860  0.49919527  1
  V  V83  1  0.24915905  0.25009000  0.49971110  1
  V  V84  1  0.87477234  0.62469279  0.74966081  1
  V  V85  1  0.37476923  0.37447612  0.00094072  1
  V  V86  1  0.50135858  0.25022705  0.74980994  1
  V  V87  1  0.74922905  0.62399447  0.37358888  1
  V  V88  1  0.37496282  0.37523540  0.49882061  1
  V  V89  1  0.50035778  0.75050736  0.75017672  1
  V  V90  1  0.12398683  0.25056955  0.37590093  1
  V  V91  1  0.62384277  0.62556166  0.49840662  1
  V  V92  1  0.87398121  0.00087630  0.37460379  1
  V  V93  1  0.37558304  0.25077114  0.62403277  1
  V  V94  1  0.49903503  0.62562325  0.12498781  1
  V  V95  1  0.87401954  0.50064500  0.37436504  1
  Zn  Zn96  1  0.00060172  0.24781651  0.74853806  1
  Zn  Zn97  1  0.75106113  0.24822545  -0.00154955  1
  Zn  Zn98  1  0.62484592  0.37505267  0.75010857  1
  Zn  Zn99  1  0.25302579  0.24895178  0.00229918  1
  Zn  Zn100  1  0.37581361  0.75030822  0.12490092  1
  Zn  Zn101  1  0.87364302  0.75126024  0.62507739  1
  Zn  Zn102  1  0.37420866  0.24975743  0.12411384  1
  Zn  Zn103  1  0.12618909  0.37557496  0.74927927  1
  Zn  Zn104  1  0.87810955  0.12518912  0.74980229  1
  Zn  Zn105  1  0.24949868  0.12394775  0.37568093  1
  Zn  Zn106  1  0.75028251  0.25020095  0.49840163  1
  Zn  Zn107  1  0.24939154  0.62457795  0.37588124  1
  Zn  Zn108  1  0.87390387  0.12658113  0.25018180  1
  Zn  Zn109  1  0.87723757  0.87251032  0.00024823  1
  Zn  Zn110  1  0.87420920  0.24780600  0.12562798  1
  Zn  Zn111  1  0.24825300  0.49864822  0.74987611  1
  Zn  Zn112  1  -0.00208204  0.12469180  0.62813874  1
  Zn  Zn113  1  0.74900674  0.49942045  0.24970188  1
  Zn  Zn114  1  0.37195423  0.50050910  0.37592489  1
  Zn  Zn115  1  0.12470588  0.87422122  0.75146351  1
  Zn  Zn116  1  0.75119025  0.87387149  0.62534138  1
  Zn  Zn117  1  0.00434258  0.87489450  0.87484573  1
  Zn  Zn118  1  0.12490935  0.75371100  0.87769675  1
  Zn  Zn119  1  0.87383841  0.37460568  0.49762834  1
  Zn  Zn120  1  0.24951510  0.00089235  0.25363689  1
  Zn  Zn121  1  0.37580184  0.00018901  0.87534444  1
  Zn  Zn122  1  0.24963641  0.75139961  0.00061291  1
  Zn  Zn123  1  0.12102075  -0.00083303  0.62629221  1
  Zn  Zn124  1  0.87527563  0.49800953  0.87306817  1
  Zn  Zn125  1  -0.00030579  0.75035270  0.25025662  1
  Zn  Zn126  1  0.49803510  0.75035143  0.24897457  1
  Zn  Zn127  1  0.12927871  0.12538527  0.00268686  1
  Zn  Zn128  1  0.18843405  0.18890354  0.18826595  1
  Zn  Zn129  1  0.18739315  0.18948316  0.68877592  1
  Zn  Zn130  1  0.18658168  0.68998635  0.18856360  1
  Zn  Zn131  1  0.18614384  0.68576018  0.68813609  1
  Zn  Zn132  1  0.68708645  0.18835498  0.18776176  1
  Zn  Zn133  1  0.69006392  0.18599629  0.68932784  1
  Zn  Zn134  1  0.68705928  0.68719605  0.18797241  1
  Zn  Zn135  1  0.68818469  0.68801814  0.68547971  1
  Zn  Zn136  1  0.31109534  0.31182515  0.31279704  1
  Zn  Zn137  1  0.31332593  0.31353389  0.81117407  1
  Zn  Zn138  1  0.31120309  0.81149151  0.31329094  1
  Zn  Zn139  1  0.31387777  0.81300730  0.81405181  1
  Zn  Zn140  1  0.81301543  0.31186334  0.30955278  1
  Zn  Zn141  1  0.81197995  0.31153371  0.80941436  1
  Zn  Zn142  1  0.81233671  0.81175738  0.31226773  1
  Zn  Zn143  1  0.81581528  0.81308644  0.81305008  1
  Zn  Zn144  1  0.18644325  0.43855644  0.43760142  1
  Zn  Zn145  1  0.18892244  0.43895222  0.93868867  1
  Zn  Zn146  1  0.18845321  0.93895014  0.43833480  1
  Zn  Zn147  1  0.18628181  0.93738353  0.93700607  1
  Zn  Zn148  1  0.68675200  0.43819441  0.43695536  1
  Zn  Zn149  1  0.68749140  0.43700215  0.93607963  1
  Zn  Zn150  1  0.68790856  0.93734928  0.43728758  1
  Zn  Zn151  1  0.68917539  0.93641714  0.93763931  1
  Zn  Zn152  1  0.31465114  0.05957476  0.06395315  1
  Zn  Zn153  1  0.31096463  0.06329689  0.56293126  1
  Zn  Zn154  1  0.31224074  0.56126379  0.06310975  1
  Zn  Zn155  1  0.31102882  0.56215944  0.56250005  1
  Zn  Zn156  1  0.81465175  0.06141842  0.06165142  1
  Zn  Zn157  1  0.81126391  0.06282086  0.56170787  1
  Zn  Zn158  1  0.81312378  0.55976938  0.06087047  1
  Zn  Zn159  1  0.81289909  0.56352710  0.56152244  1
  Zn  Zn160  1  0.43593451  0.43969966  0.18733170  1
  Zn  Zn161  1  0.43634660  0.43763955  0.68754137  1
  Zn  Zn162  1  0.43795274  0.93915023  0.18826453  1
  Zn  Zn163  1  0.43667687  0.93800056  0.68860661  1
  Zn  Zn164  1  0.93611718  0.43827507  0.18778108  1
  Zn  Zn165  1  0.93594576  0.43645945  0.68756910  1
  Zn  Zn166  1  0.93705274  0.93623292  0.18911643  1
  Zn  Zn167  1  0.93725954  0.93592557  0.68598095  1
  Zn  Zn168  1  0.06231586  0.06236411  0.31434951  1
  Zn  Zn169  1  0.06311498  0.06674189  0.81171703  1
  Zn  Zn170  1  0.06112891  0.56446508  0.31260617  1
  Zn  Zn171  1  0.06318101  0.56127637  0.81161871  1
  Zn  Zn172  1  0.56235638  0.06129884  0.31254780  1
  Zn  Zn173  1  0.56379427  0.06222886  0.81301707  1
  Zn  Zn174  1  0.56080334  0.56115546  0.31103384  1
  Zn  Zn175  1  0.56343275  0.56228666  0.81080667  1
  Zn  Zn176  1  0.43889737  0.18833537  0.43691749  1
  Zn  Zn177  1  0.43798765  0.18884474  0.93805936  1
  Zn  Zn178  1  0.43600478  0.68803564  0.43570978  1
  Zn  Zn179  1  0.43545520  0.69017461  0.93905379  1
  Zn  Zn180  1  0.93559626  0.18870935  0.43905198  1
  Zn  Zn181  1  0.93938673  0.18593449  0.93933370  1
  Zn  Zn182  1  0.93668869  0.68814922  0.43689480  1
  Zn  Zn183  1  0.93660145  0.68556037  0.93602109  1
  Zn  Zn184  1  0.06539423  0.31059971  0.06076461  1
  Zn  Zn185  1  0.06054886  0.31413338  0.56113928  1
  Zn  Zn186  1  0.06418606  0.81119338  0.06350488  1
  Zn  Zn187  1  0.06177249  0.81385036  0.56601551  1
  Zn  Zn188  1  0.56136756  0.31036897  0.06064195  1
  Zn  Zn189  1  0.56338096  0.31264881  0.56148852  1
  Zn  Zn190  1  0.56215723  0.81098310  0.06362037  1
  Zn  Zn191  1  0.56350956  0.81254420  0.56270095  1
  O  O192  1  0.11674878  0.11893483  0.12559268  1
  O  O193  1  0.12379400  0.12705294  0.61207647  1
  O  O194  1  0.11979704  0.61963229  0.12057194  1
  O  O195  1  0.11842922  0.61874647  0.61882249  1
  O  O196  1  0.62019552  0.11872568  0.12025337  1
  O  O197  1  0.61992892  0.11940313  0.61992350  1
  O  O198  1  0.62034313  0.61900039  0.11889566  1
  O  O199  1  0.61844910  0.62033691  0.61814710  1
  O  O200  1  0.38172759  0.37541688  0.38125239  1
  O  O201  1  0.38119029  0.38080703  0.87994000  1
  O  O202  1  0.38057726  0.87961498  0.38153337  1
  O  O203  1  0.38243499  0.87663952  0.88267636  1
  O  O204  1  0.88020584  0.38213008  0.37410572  1
  O  O205  1  0.88345998  0.37357472  0.88316413  1
  O  O206  1  0.87977920  0.88099166  0.37982826  1
  O  O207  1  0.87914108  0.88784872  0.87881691  1
  O  O208  1  0.26005383  0.00296262  0.37436295  1
  O  O209  1  0.25169199  0.01035189  0.86702468  1
  O  O210  1  0.25069925  0.50296667  0.36685097  1
  O  O211  1  0.25668078  0.51045409  0.87430467  1
  O  O212  1  0.75374112  0.00531370  0.36883786  1
  O  O213  1  0.75880021  0.00400724  0.87200868  1
  O  O214  1  0.75496500  0.50653159  0.37335353  1
  O  O215  1  0.74976674  0.50587247  0.86714065  1
  O  O216  1  0.24288487  0.49426044  0.13096773  1
  O  O217  1  0.24271484  0.49353974  0.62444215  1
  O  O218  1  0.24432110  0.99020790  0.12742212  1
  O  O219  1  0.25028045  0.99557529  0.63448151  1
  O  O220  1  0.74345929  0.48825648  0.12342542  1
  O  O221  1  0.74481297  0.49357493  0.62821291  1
  O  O222  1  0.74548188  0.99434421  0.12957740  1
  O  O223  1  0.74327761  0.99874296  0.63243883  1
  O  O224  1  0.00603360  0.37060088  0.25360497  1
  O  O225  1  0.00030201  0.37283618  0.76411888  1
  O  O226  1  0.00715654  0.87402271  0.25769095  1
  O  O227  1  0.00082520  0.86301189  0.75054352  1
  O  O228  1  0.50442683  0.37033497  0.25401248  1
  O  O229  1  0.50088904  0.36824969  0.75567541  1
  O  O230  1  0.50619659  0.87469285  0.25700159  1
  O  O231  1  0.50501080  0.86965800  0.75571894  1
  O  O232  1  0.49338274  0.12927455  0.24567471  1
  O  O233  1  0.49557562  0.12964949  0.74438373  1
  O  O234  1  0.48982376  0.62413446  0.24372592  1
  O  O235  1  0.49500862  0.63133294  0.74430739  1
  O  O236  1  1.00036885  0.13001599  0.24127910  1
  O  O237  1  0.99650284  0.13006876  0.74598852  1
  O  O238  1  0.99278322  0.62639589  0.24180147  1
  O  O239  1  0.99438049  0.63040427  0.74555214  1
  O  O240  1  0.37421818  0.25870465  0.00303915  1
  O  O241  1  0.37047148  0.25488977  0.50510419  1
  O  O242  1  0.37186741  0.75982282  0.00429127  1
  O  O243  1  0.36954352  0.75544197  0.50594842  1
  O  O244  1  0.87483204  0.26128623  0.00323701  1
  O  O245  1  0.87026683  0.25415825  0.50958161  1
  O  O246  1  0.86845320  0.74975630  0.00611113  1
  O  O247  1  0.86781245  0.75629993  0.49906353  1
  O  O248  1  0.12863925  0.24364378  0.49515120  1
  O  O249  1  0.13050313  0.24697225  0.98786736  1
  O  O250  1  0.12935229  0.74556577  0.49700946  1
  O  O251  1  0.12802280  0.74079999  0.99787970  1
  O  O252  1  0.62529071  0.24279817  0.49256047  1
  O  O253  1  0.62567340  0.24185124  0.99236958  1
  O  O254  1  0.62898657  0.74446378  0.49353779  1
  O  O255  1  0.63053394  0.74377473  0.99408954  1
  O  O256  1  0.49949231  0.24239815  0.13217232  1
  O  O257  1  0.49542774  0.24461778  0.62924437  1
  O  O258  1  0.49819592  0.74120758  0.12823312  1
  O  O259  1  0.49470915  0.74472002  0.62997107  1
  O  O260  1  1.00294518  0.24016690  0.12944165  1
  O  O261  1  0.98754831  0.25232333  0.62548520  1
  O  O262  1  0.99306922  0.74272292  0.12578891  1
  O  O263  1  0.99807742  0.74255070  0.63454618  1
  O  O264  1  0.00443404  0.25618533  0.36943564  1
  O  O265  1  0.00958121  0.25755431  0.87783985  1
  O  O266  1  0.00632710  0.75781662  0.37478140  1
  O  O267  1  0.00016446  0.75014005  0.86459372  1
  O  O268  1  0.50638595  0.25616533  0.36927568  1
  O  O269  1  0.50563618  0.25473995  0.86881975  1
  O  O270  1  0.50625030  0.75706014  0.37418970  1
  O  O271  1  0.50632716  0.75493262  0.86975351  1
  O  O272  1  0.24117945  0.13169521  0.49918977  1
  O  O273  1  0.25188964  0.12446436  0.98869938  1
  O  O274  1  0.24287971  0.63259821  0.50024512  1
  O  O275  1  0.24502827  0.62482533  0.99200906  1
  O  O276  1  0.74125534  0.12529600  0.49163967  1
  O  O277  1  0.74385488  0.12532792  0.99486186  1
  O  O278  1  0.74286054  0.62979615  0.49335346  1
  O  O279  1  0.74399318  0.62864465  0.99460498  1
  O  O280  1  0.25756588  0.37593937  0.00639899  1
  O  O281  1  0.25500515  0.36939315  0.50492702  1
  O  O282  1  0.25635705  0.87697063  0.00946587  1
  O  O283  1  0.25611363  0.87020536  0.50699277  1
  O  O284  1  0.75828104  0.37397633  0.00589324  1
  O  O285  1  0.75007783  0.37465669  0.51206336  1
  O  O286  1  0.75079351  0.86684674  0.00692228  1
  O  O287  1  0.75564536  0.86852246  0.49898072  1
  O  O288  1  0.12821006  0.49508859  0.24436095  1
  O  O289  1  0.12660751  0.49669443  0.74060471  1
  O  O290  1  0.12690186  0.99360316  0.24550389  1
  O  O291  1  0.13882462  1.00253098  0.74800327  1
  O  O292  1  0.62521141  0.49259496  0.24152054  1
  O  O293  1  0.63099363  0.49949496  0.74124635  1
  O  O294  1  0.63015388  0.99391331  0.24424353  1
  O  O295  1  0.63041959  0.99423380  0.74581396  1
  O  O296  1  0.37683507  0.01041845  0.25724062  1
  O  O297  1  0.36550300  0.00702811  0.75136475  1
  O  O298  1  0.36805019  0.51004647  0.25106415  1
  O  O299  1  0.37490886  0.50790369  0.75672896  1
  O  O300  1  0.86783304  0.00126207  0.25695924  1
  O  O301  1  0.87079928  -0.00001532  0.76056806  1
  O  O302  1  0.87224763  0.50673164  0.25601603  1
  O  O303  1  0.86778912  0.50623509  0.75125313  1
  O  O304  1  0.11802072  0.37054922  0.36903909  1
  O  O305  1  0.11773929  0.36770788  0.87718523  1
  O  O306  1  0.11991213  0.87092829  0.37213449  1
  O  O307  1  0.12274885  0.87166255  0.86968841  1
  O  O308  1  0.61958045  0.37033022  0.36873903  1
  O  O309  1  0.61837260  0.36812507  0.87329839  1
  O  O310  1  0.61951323  0.87018027  0.36984220  1
  O  O311  1  0.61987043  0.86883841  0.87011925  1
  O  O312  1  0.38191189  0.12407475  0.13539921  1
  O  O313  1  0.38131423  0.13133799  0.62904602  1
  O  O314  1  0.37975644  0.62504790  0.13372981  1
  O  O315  1  0.38003356  0.63076311  0.63001149  1
  O  O316  1  0.88822093  0.12566783  0.12624212  1
  O  O317  1  0.87332191  0.13708175  0.62499753  1
  O  O318  1  0.87915612  0.62839497  0.12863149  1
  O  O319  1  0.88119525  0.62628929  0.63154531  1
  O  O320  1  0.25227486  0.25832463  0.12295111  1
  O  O321  1  0.25641323  0.25544195  0.61932505  1
  O  O322  1  0.25043885  0.76468123  0.12425886  1
  O  O323  1  0.25572018  0.75535902  0.62155047  1
  O  O324  1  0.75036730  0.26198904  0.12166873  1
  O  O325  1  0.75550892  0.25902837  0.62450808  1
  O  O326  1  0.75455572  0.75391951  0.11921418  1
  O  O327  1  0.75137464  0.75224416  0.61540603  1
  O  O328  1  0.24179285  0.24894235  0.38205356  1
  O  O329  1  0.24438970  0.24163695  0.87452163  1
  O  O330  1  0.24238422  0.74969610  0.38428511  1
  O  O331  1  0.25027972  0.73642032  0.87606891  1
  O  O332  1  0.74277222  0.24438883  0.37438596  1
  O  O333  1  0.74427098  0.24323947  0.87545637  1
  O  O334  1  0.74308081  0.74360084  0.37976620  1
  O  O335  1  0.74508881  0.74386278  0.87992059  1
  O  O336  1  0.00321906  0.11542656  0.00968720  1
  O  O337  1  0.00876704  0.12018192  0.50034348  1
  O  O338  1  0.00472064  0.61800522  0.00482602  1
  O  O339  1  0.00444316  0.62015256  0.50549947  1
  O  O340  1  0.50571623  0.11907804  0.00498201  1
  O  O341  1  0.50510958  0.11919202  0.50575366  1
  O  O342  1  0.50530909  0.61977769  0.00387022  1
  O  O343  1  0.50384991  0.62064910  0.50503315  1
  O  O344  1  0.49470153  0.37993550  0.49488736  1
  O  O345  1  0.49549636  0.38116807  0.99376888  1
  O  O346  1  0.49442885  0.88018257  0.49582195  1
  O  O347  1  0.49643542  0.88007258  0.99592651  1
  O  O348  1  0.99815243  0.38326403  0.49087872  1
  O  O349  1  0.99373983  0.37812511  0.99351383  1
  O  O350  1  0.99453879  0.88100692  0.49490109  1
  O  O351  1  1.00015117  0.88821944  1.00129816  1
  O  O352  1  0.49855434  0.49292010  0.38201667  1
  O  O353  1  0.49590520  0.49547537  0.87949097  1
  O  O354  1  0.49588381  0.99400783  0.38249015  1
  O  O355  1  0.49984671  0.99334725  0.88124369  1
  O  O356  1  0.99408392  0.49572216  0.37926807  1
  O  O357  1  1.00058274  0.48849120  0.88165075  1
  O  O358  1  0.99379086  0.99476921  0.38129257  1
  O  O359  1  0.99441774  1.00283835  0.88435751  1
  O  O360  1  0.00443944  0.00669300  0.11963200  1
  O  O361  1  0.00124107  0.00326358  0.61644403  1
  O  O362  1  0.00516876  0.50492195  0.11940998  1
  O  O363  1  0.00395517  0.50417396  0.61929717  1
  O  O364  1  0.50765219  0.00504724  0.11952053  1
  O  O365  1  0.50559178  0.00577055  0.62098532  1
  O  O366  1  0.50545171  0.50510754  0.11769140  1
  O  O367  1  0.50447088  0.50575055  0.61923717  1
  O  O368  1  0.24369581  0.38043461  0.24480122  1
  O  O369  1  0.24905771  0.37788332  0.74112436  1
  O  O370  1  0.24530237  0.87774894  0.24202851  1
  O  O371  1  0.25310837  0.88526931  0.74597812  1
  O  O372  1  0.74313539  0.37611686  0.23888472  1
  O  O373  1  0.74790698  0.38173306  0.73887999  1
  O  O374  1  0.74349531  0.88030339  0.24458612  1
  O  O375  1  0.74312151  0.88064387  0.75069572  1
  O  O376  1  0.26205242  0.12384437  0.25240435  1
  O  O377  1  0.25558972  0.11931676  0.75676050  1
  O  O378  1  0.25760067  0.61980027  0.24941113  1
  O  O379  1  0.25655010  0.62327255  0.75881115  1
  O  O380  1  0.75006208  0.11793960  0.25531357  1
  O  O381  1  0.75237934  0.11596651  0.75864907  1
  O  O382  1  0.75536667  0.62223730  0.25576881  1
  O  O383  1  0.75436866  0.62081808  0.75428529  1
  O  O384  1  0.37683282  0.11984023  0.36673604  1
  O  O385  1  0.36679907  0.12573495  0.86826280  1
  O  O386  1  0.37243865  0.62293458  0.36380237  1
  O  O387  1  0.36857452  0.62055144  0.87121002  1
  O  O388  1  0.86770408  0.11863577  0.37401460  1
  O  O389  1  0.87033419  0.11421387  0.87701159  1
  O  O390  1  0.86906735  0.62028372  0.36885114  1
  O  O391  1  0.86732053  0.62041455  0.86863694  1
  O  O392  1  0.12943940  0.38082103  0.13017909  1
  O  O393  1  0.13086812  0.38021655  0.62448251  1
  O  O394  1  0.13247411  0.87996208  0.13118382  1
  O  O395  1  0.13435827  0.87830188  0.62968950  1
  O  O396  1  0.63137383  0.37891685  0.12708064  1
  O  O397  1  0.63307519  0.38093222  0.62565568  1
  O  O398  1  0.63070208  0.88013849  0.12998792  1
  O  O399  1  0.62532900  0.88175760  0.63221288  1
  O  O400  1  0.11967605  0.25629645  0.25618992  1
  O  O401  1  0.12402763  0.25356283  0.76338919  1
  O  O402  1  0.12291954  0.75751906  0.25822575  1
  O  O403  1  0.11280176  0.74762763  0.75267600  1
  O  O404  1  0.61838751  0.25562682  0.25520006  1
  O  O405  1  0.61825055  0.24997529  0.75631822  1
  O  O406  1  0.62331274  0.75637187  0.25656445  1
  O  O407  1  0.61955952  0.75434920  0.75534633  1
  O  O408  1  0.38133004  0.24023723  0.25023979  1
  O  O409  1  0.38144082  0.24476171  0.74313632  1
  O  O410  1  0.37558177  0.73836838  0.24821067  1
  O  O411  1  0.38147427  0.74496457  0.74461039  1
  O  O412  1  0.88417593  0.24731346  0.24532157  1
  O  O413  1  0.87593085  0.24817346  0.73830460  1
  O  O414  1  0.87565455  0.74262008  0.24287040  1
  O  O415  1  0.88381226  0.74309257  0.74917800  1
  O  O416  1  0.38102065  0.49360132  0.49920291  1
  O  O417  1  0.38180241  0.49514343  0.99390002  1
  O  O418  1  0.38123591  0.99483321  0.49712123  1
  O  O419  1  0.38390733  0.99314375  0.99852633  1
  O  O420  1  0.88132230  0.49981308  0.49213756  1
  O  O421  1  0.88145813  0.48782557  0.99752677  1
  O  O422  1  0.87904794  0.99489318  0.49331950  1
  O  O423  1  0.88495320  0.99842100  0.99266209  1
  O  O424  1  0.11666970  0.00264006  0.00740085  1
  O  O425  1  0.11939415  0.01010621  0.50036679  1
  O  O426  1  0.11968335  0.50497970  0.00696570  1
  O  O427  1  0.11790116  0.50616067  0.50490868  1
  O  O428  1  0.62087099  0.00480377  0.00540540  1
  O  O429  1  0.61899810  0.00466711  0.50547971  1
  O  O430  1  0.61920356  0.50555065  0.00369391  1
  O  O431  1  0.61822636  0.50643796  0.50470354  1
  O  O432  1  0.36890478  0.37536902  0.11910590  1
  O  O433  1  0.37056755  0.36949530  0.61819777  1
  O  O434  1  0.36699441  0.87668814  0.12101677  1
  O  O435  1  0.37067652  0.86921923  0.61987430  1
  O  O436  1  0.86706158  0.37504755  0.11631207  1
  O  O437  1  0.86481461  0.36846220  0.62337662  1
  O  O438  1  0.86831142  0.86782094  0.12397956  1
  O  O439  1  0.87137752  0.87250320  0.61515974  1
  O  O440  1  0.12529487  0.13161577  0.38576562  1
  O  O441  1  0.13624229  0.13339295  0.87652850  1
  O  O442  1  0.12467941  0.63247555  0.38240710  1
  O  O443  1  0.13471838  0.62301348  0.88121547  1
  O  O444  1  0.62889272  0.12991985  0.37924751  1
  O  O445  1  0.63090305  0.12884714  0.88082140  1
  O  O446  1  0.62849474  0.62941180  0.37930339  1
  O  O447  1  0.62975672  0.63058912  0.88004507  1
