# generated using pymatgen
data_V3Zn3O8
_symmetry_space_group_name_H-M   'P 1'
_cell_length_a   17.08715163
_cell_length_b   17.08708313
_cell_length_c   17.08575344
_cell_angle_alpha   90.01217276
_cell_angle_beta   90.00556996
_cell_angle_gamma   90.00372745
_symmetry_Int_Tables_number   1
_chemical_formula_structural   V3Zn3O8
_chemical_formula_sum   'V96 Zn96 O256'
_cell_volume   4988.52011531
_cell_formula_units_Z   32
loop_
 _symmetry_equiv_pos_site_id
 _symmetry_equiv_pos_as_xyz
  1  'x, y, z'
loop_
 _atom_site_type_symbol
 _atom_site_label
 _atom_site_symmetry_multiplicity
 _atom_site_fract_x
 _atom_site_fract_y
 _atom_site_fract_z
 _atom_site_occupancy
  V  V0  1  0.24937415  0.62470928  0.87440391  1
  V  V1  1  0.12502978  0.87431938  0.24990379  1
  V  V2  1  0.49865501  0.62416757  0.62471243  1
  V  V3  1  0.62369170  0.50120069  0.62517745  1
  V  V4  1  -0.00073947  0.75160123  0.75071817  1
  V  V5  1  0.12402438  0.75035588  0.87557953  1
  V  V6  1  0.00037441  0.25094811  0.74904685  1
  V  V7  1  0.24957131  0.12619521  0.87448070  1
  V  V8  1  0.00058398  0.62598425  0.62518032  1
  V  V9  1  0.87572616  0.37595177  -0.00134459  1
  V  V10  1  0.25020794  -0.00141691  0.24891769  1
  V  V11  1  0.74864330  0.24901975  0.49858310  1
  V  V12  1  0.87773062  0.24853641  0.12691306  1
  V  V13  1  0.74956522  0.50089021  0.74965448  1
  V  V14  1  0.87527691  0.50063408  0.37580532  1
  V  V15  1  0.74944453  0.75001998  0.50012822  1
  V  V16  1  0.12377530  0.37304554  0.25156992  1
  V  V17  1  0.25013044  0.37433596  0.62436643  1
  V  V18  1  0.50044186  -0.00016888  0.00110183  1
  V  V19  1  0.62529054  0.74841135  0.37526118  1
  V  V20  1  0.37509391  0.74830696  0.12528714  1
  V  V21  1  0.24945828  0.00119717  0.74995913  1
  V  V22  1  0.49920573  0.37618451  0.87493852  1
  V  V23  1  0.87500080  0.87605538  0.50161695  1
  V  V24  1  0.87452806  0.75134364  0.62539791  1
  V  V25  1  0.62573959  0.25046351  0.87468456  1
  V  V26  1  0.74883091  0.24780832  -0.00236840  1
  V  V27  1  0.24938977  0.87413123  0.12421795  1
  V  V28  1  0.24970111  0.62373648  0.37626827  1
  V  V29  1  0.12504899  0.62562112  0.50076950  1
  V  V30  1  0.37379325  0.37282230  0.49929550  1
  V  V31  1  0.87494919  0.74949088  0.12681569  1
  V  V32  1  0.75036800  0.37520141  0.12535220  1
  V  V33  1  0.62505374  0.62396451  0.00095739  1
  V  V34  1  0.12597130  0.37631242  0.74881831  1
  V  V35  1  0.62541665  0.50047347  0.12463840  1
  V  V36  1  0.12361762  0.62493898  0.00110130  1
  V  V37  1  0.37499724  0.62430284  0.24961200  1
  V  V38  1  0.12403123  0.00027318  0.12306825  1
  V  V39  1  0.75005286  0.62530080  0.37647481  1
  V  V40  1  0.37634933  -0.00179964  0.37311448  1
  V  V41  1  0.37451361  0.87399246  -0.00058994  1
  V  V42  1  0.75046234  0.49960563  0.25115695  1
  V  V43  1  0.62469026  0.37574220  0.74951112  1
  V  V44  1  0.75017778  0.87449324  0.12487117  1
  V  V45  1  0.87533324  0.50029087  0.87496719  1
  V  V46  1  0.24801079  0.12510641  0.37553248  1
  V  V47  1  0.50086562  0.12494346  0.62259314  1
  V  V48  1  0.00075343  0.37676469  0.87447103  1
  V  V49  1  0.37424262  0.62506797  0.75073550  1
  V  V50  1  0.49949987  0.74821730  0.24997912  1
  V  V51  1  0.49997579  0.49865994  0.50044409  1
  V  V52  1  0.12504581  0.00142638  0.62461101  1
  V  V53  1  0.87551640  0.62527451  0.25038979  1
  V  V54  1  0.50102880  0.37251522  0.37334453  1
  V  V55  1  0.00113928  0.37368079  0.37471948  1
  V  V56  1  0.37343289  0.75044060  0.62455416  1
  V  V57  1  0.37434174  -0.00023191  0.87519258  1
  V  V58  1  -0.00025086  0.00071305  0.50096178  1
  V  V59  1  0.87447311  0.62651195  0.75066318  1
  V  V60  1  0.37839987  0.12567637  0.24502775  1
  V  V61  1  0.37514306  0.49869738  0.37434325  1
  V  V62  1  0.37570491  0.12532257  0.74943832  1
  V  V63  1  0.12431333  0.50011489  0.12504087  1
  V  V64  1  0.49972182  0.87369253  0.37518652  1
  V  V65  1  0.87374793  0.00144443  0.37530557  1
  V  V66  1  0.62513554  0.37327486  0.25105436  1
  V  V67  1  0.75059438  -0.00013991  0.25101228  1
  V  V68  1  0.74928650  0.62571332  0.87578069  1
  V  V69  1  0.12393745  0.87631986  0.75066718  1
  V  V70  1  0.49996043  0.24985227  0.74866358  1
  V  V71  1  0.87367587  0.12529733  0.75247488  1
  V  V72  1  0.50155176  -0.00079918  0.49974593  1
  V  V73  1  0.62495420  0.87398881  0.24940835  1
  V  V74  1  0.75072839  0.37636992  0.62422776  1
  V  V75  1  0.74857210  0.87592712  0.62695050  1
  V  V76  1  0.62375548  -0.00005830  0.12370090  1
  V  V77  1  0.24987535  0.49842680  0.25007980  1
  V  V78  1  -0.00043077  0.62467595  0.12629464  1
  V  V79  1  0.24939476  0.74980768  0.00009008  1
  V  V80  1  0.25111878  0.87527169  0.62505059  1
  V  V81  1  -0.00174417  0.87715441  0.87723032  1
  V  V82  1  0.49937439  0.75037229  0.74968102  1
  V  V83  1  0.12488286  0.75129752  0.37476917  1
  V  V84  1  0.37504358  0.49920606  0.87664414  1
  V  V85  1  0.00148744  0.12597621  0.62569623  1
  V  V86  1  0.25075453  0.37364614  0.12439201  1
  V  V87  1  0.25201790  0.25153941  0.00081497  1
  V  V88  1  0.12442142  0.12482730  0.00157840  1
  V  V89  1  0.87521471  0.87645118  0.00037018  1
  V  V90  1  0.62479463  0.87668479  0.74963430  1
  V  V91  1  0.00045746  0.50081055  0.50125440  1
  V  V92  1  0.87579875  0.37565208  0.50096368  1
  V  V93  1  0.74927144  0.74957190  0.00072887  1
  V  V94  1  0.49938255  0.87414930  0.87411026  1
  V  V95  1  0.12556130  0.25128701  0.87548476  1
  Zn  Zn96  1  -0.00002932  0.12356781  0.12674630  1
  Zn  Zn97  1  0.87260780  0.00150207  0.87749585  1
  Zn  Zn98  1  -0.00341813  0.00409686  0.00026419  1
  Zn  Zn99  1  0.62778261  0.00151127  0.62424466  1
  Zn  Zn100  1  0.62418104  0.62466452  0.50016712  1
  Zn  Zn101  1  0.24902278  0.24818890  0.49837785  1
  Zn  Zn102  1  0.75006760  0.00181953  0.75078584  1
  Zn  Zn103  1  0.62649319  0.12554195  0.49735438  1
  Zn  Zn104  1  0.50277880  0.12825480  0.12206224  1
  Zn  Zn105  1  0.12601882  0.50144983  0.62624657  1
  Zn  Zn106  1  0.00105239  0.24607347  0.25212523  1
  Zn  Zn107  1  0.50342403  0.24829776  0.24722263  1
  Zn  Zn108  1  0.62376688  0.74951365  0.87641784  1
  Zn  Zn109  1  -0.00143076  0.75151737  0.25112389  1
  Zn  Zn110  1  0.87592889  0.12496100  0.25001935  1
  Zn  Zn111  1  0.74748165  0.12623343  0.37338147  1
  Zn  Zn112  1  -0.00026782  0.50067373  0.00002162  1
  Zn  Zn113  1  0.24818610  0.50047973  0.74949327  1
  Zn  Zn114  1  0.50067103  0.49936518  0.00181471  1
  Zn  Zn115  1  0.12537943  0.12601408  0.49913517  1
  Zn  Zn116  1  0.25148792  0.75146290  0.50080526  1
  Zn  Zn117  1  0.37941133  0.25213066  0.12285431  1
  Zn  Zn118  1  0.87598903  0.25103481  0.62526349  1
  Zn  Zn119  1  0.37442274  0.24920389  0.62204291  1
  Zn  Zn120  1  0.62394217  0.24620427  0.37232908  1
  Zn  Zn121  1  0.37369662  0.87280865  0.49896356  1
  Zn  Zn122  1  0.37784886  0.37391850  0.00234209  1
  Zn  Zn123  1  0.62324561  0.12345047  -0.00180516  1
  Zn  Zn124  1  0.00024789  0.87559358  0.37469109  1
  Zn  Zn125  1  0.49970009  0.62294947  0.12386102  1
  Zn  Zn126  1  0.12288566  0.24779496  0.37541987  1
  Zn  Zn127  1  0.74768414  0.12198513  0.87268064  1
  Zn  Zn128  1  0.18849025  0.18813710  0.18833698  1
  Zn  Zn129  1  0.18726412  0.18976158  0.68682319  1
  Zn  Zn130  1  0.18779888  0.68678860  0.18884999  1
  Zn  Zn131  1  0.18753009  0.68898159  0.68783864  1
  Zn  Zn132  1  0.68924527  0.18467741  0.18678178  1
  Zn  Zn133  1  0.68759464  0.18977372  0.68499378  1
  Zn  Zn134  1  0.68794290  0.68610242  0.18776228  1
  Zn  Zn135  1  0.68563204  0.68894472  0.68741756  1
  Zn  Zn136  1  0.31326925  0.30928816  0.31034601  1
  Zn  Zn137  1  0.31334427  0.31248635  0.81108061  1
  Zn  Zn138  1  0.31185724  0.81146823  0.31260131  1
  Zn  Zn139  1  0.31142449  0.81228563  0.81141658  1
  Zn  Zn140  1  0.81307629  0.31329707  0.31375649  1
  Zn  Zn141  1  0.81373874  0.31237463  0.81156819  1
  Zn  Zn142  1  0.81267076  0.81401410  0.31351067  1
  Zn  Zn143  1  0.81098657  0.81310877  0.81504227  1
  Zn  Zn144  1  0.18605570  0.43752240  0.43893428  1
  Zn  Zn145  1  0.18872423  0.43812363  0.93867725  1
  Zn  Zn146  1  0.18822254  0.93868771  0.43898886  1
  Zn  Zn147  1  0.18614714  0.93847220  0.93776214  1
  Zn  Zn148  1  0.68628064  0.43635419  0.43794101  1
  Zn  Zn149  1  0.68797514  0.43660113  0.93791779  1
  Zn  Zn150  1  0.68707374  0.93626971  0.43759969  1
  Zn  Zn151  1  0.68891481  0.93857723  0.93479834  1
  Zn  Zn152  1  0.31094000  0.06249933  0.06136306  1
  Zn  Zn153  1  0.31521349  0.05989165  0.56083419  1
  Zn  Zn154  1  0.31087157  0.56172143  0.06234972  1
  Zn  Zn155  1  0.31194935  0.56095677  0.56168057  1
  Zn  Zn156  1  0.81114449  0.06265249  0.06324767  1
  Zn  Zn157  1  0.81363929  0.06387367  0.56628338  1
  Zn  Zn158  1  0.81231728  0.56249202  0.06286109  1
  Zn  Zn159  1  0.81282320  0.56389104  0.56257635  1
  Zn  Zn160  1  0.43938935  0.43676532  0.18665902  1
  Zn  Zn161  1  0.43507880  0.43738096  0.68813065  1
  Zn  Zn162  1  0.43807657  0.93661429  0.18663294  1
  Zn  Zn163  1  0.43745742  0.93802145  0.68663742  1
  Zn  Zn164  1  0.93891526  0.43645689  0.18782740  1
  Zn  Zn165  1  0.93804007  0.43870987  0.68701949  1
  Zn  Zn166  1  0.94043072  0.93708406  0.18793695  1
  Zn  Zn167  1  0.93686525  0.94049105  0.68876984  1
  Zn  Zn168  1  0.05936081  0.06191606  0.30936510  1
  Zn  Zn169  1  0.06025287  0.06290577  0.81434709  1
  Zn  Zn170  1  0.06200369  0.56190039  0.31237074  1
  Zn  Zn171  1  0.06235970  0.56173852  0.81173813  1
  Zn  Zn172  1  0.56491794  0.06314187  0.31323149  1
  Zn  Zn173  1  0.56228751  0.06305952  0.81387532  1
  Zn  Zn174  1  0.56255541  0.56112124  0.31225949  1
  Zn  Zn175  1  0.56179631  0.56314149  0.81346555  1
  Zn  Zn176  1  0.43538539  0.18825987  0.43466798  1
  Zn  Zn177  1  0.43834461  0.18765261  0.93744200  1
  Zn  Zn178  1  0.43645829  0.68638673  0.43908589  1
  Zn  Zn179  1  0.43901573  0.68601009  0.93792147  1
  Zn  Zn180  1  0.93671933  0.18775262  0.43968843  1
  Zn  Zn181  1  0.93906804  0.18873974  0.93803193  1
  Zn  Zn182  1  0.93845761  0.68886502  0.43790558  1
  Zn  Zn183  1  0.93734246  0.68856770  0.93959978  1
  Zn  Zn184  1  0.06292242  0.31310901  0.06208488  1
  Zn  Zn185  1  0.06636316  0.30947678  0.55982271  1
  Zn  Zn186  1  0.06013117  0.81247530  0.06379312  1
  Zn  Zn187  1  0.06318188  0.81407201  0.56184803  1
  Zn  Zn188  1  0.56140372  0.31298394  0.06313773  1
  Zn  Zn189  1  0.56325193  0.31236365  0.56155603  1
  Zn  Zn190  1  0.56193128  0.81152970  0.06280286  1
  Zn  Zn191  1  0.56180413  0.81196332  0.56258439  1
  O  O192  1  0.12766564  0.11791849  0.11860432  1
  O  O193  1  0.11943969  0.11775683  0.62609177  1
  O  O194  1  0.12033510  0.62021128  0.12093884  1
  O  O195  1  0.11797657  0.62613314  0.61948942  1
  O  O196  1  0.62446503  0.11435212  0.12080304  1
  O  O197  1  0.61151609  0.12281428  0.62374006  1
  O  O198  1  0.62630883  0.61816627  0.11848249  1
  O  O199  1  0.61702355  0.61881353  0.62446615  1
  O  O200  1  0.37977228  0.38040877  0.37805171  1
  O  O201  1  0.38005608  0.38483633  0.87359743  1
  O  O202  1  0.38192227  0.88032698  0.37399656  1
  O  O203  1  0.37858013  0.88018370  0.87952466  1
  O  O204  1  0.88058380  0.38265538  0.38117378  1
  O  O205  1  0.88073013  0.38086667  0.87852443  1
  O  O206  1  0.87524627  0.88397805  0.38285840  1
  O  O207  1  0.88146722  0.87411717  0.88235677  1
  O  O208  1  0.25633598  0.00502015  0.36826305  1
  O  O209  1  0.25451307  0.00592695  0.86917507  1
  O  O210  1  0.25559381  0.50422855  0.36945326  1
  O  O211  1  0.25869826  0.50623829  0.87348109  1
  O  O212  1  0.75858631  -0.00219727  0.37048377  1
  O  O213  1  0.75385015  0.00436389  0.86920775  1
  O  O214  1  0.75595966  0.50514184  0.37124806  1
  O  O215  1  0.75555200  0.50509601  0.86818959  1
  O  O216  1  0.24373776  0.49476278  0.13081102  1
  O  O217  1  0.24910799  0.48774709  0.62750544  1
  O  O218  1  0.24481800  0.99231845  0.12912149  1
  O  O219  1  0.24573773  0.99609505  0.63173237  1
  O  O220  1  0.74651155  0.49443958  0.13187065  1
  O  O221  1  0.74447665  0.49661698  0.63062065  1
  O  O222  1  0.74435493  0.99265847  0.13057318  1
  O  O223  1  0.74701603  0.99163222  0.62889824  1
  O  O224  1  0.00670265  0.37489477  0.25741340  1
  O  O225  1  0.00517591  0.37070312  0.75471952  1
  O  O226  1  0.00981258  0.87145980  0.25340457  1
  O  O227  1  0.00485207  0.87024859  0.75553242  1
  O  O228  1  0.50755861  0.37533354  0.25705096  1
  O  O229  1  0.50539370  0.36972792  0.75384763  1
  O  O230  1  0.50551171  0.86817217  0.25537915  1
  O  O231  1  0.50595066  0.87035082  0.75384147  1
  O  O232  1  0.48870388  0.12233955  0.24837665  1
  O  O233  1  0.49538568  0.12874872  0.74172437  1
  O  O234  1  0.49273728  0.63080084  0.24932948  1
  O  O235  1  0.49420348  0.63054130  0.74471827  1
  O  O236  1  0.99358858  0.12859197  0.24508877  1
  O  O237  1  0.99388412  0.13164174  0.74612261  1
  O  O238  1  0.99269887  0.62600741  0.24435012  1
  O  O239  1  0.99396096  0.63228531  0.74580658  1
  O  O240  1  0.36627586  0.25211633  0.00013540  1
  O  O241  1  0.37085303  0.25798454  0.50131976  1
  O  O242  1  0.36899222  0.75450451  0.00484954  1
  O  O243  1  0.37246318  0.75202737  0.50823789  1
  O  O244  1  0.86733040  0.25670084  0.00544246  1
  O  O245  1  0.86632944  0.25778548  0.50327298  1
  O  O246  1  0.86839178  0.75465307  0.00764231  1
  O  O247  1  0.86979126  0.75580754  0.50591817  1
  O  O248  1  0.13083796  0.24314192  0.49342154  1
  O  O249  1  0.13183020  0.24538962  0.99417850  1
  O  O250  1  0.12674579  0.74508483  0.49062261  1
  O  O251  1  0.13032357  0.74512817  0.99524991  1
  O  O252  1  0.63710017  0.25134084  0.49800106  1
  O  O253  1  0.63579187  0.25202685  0.99409642  1
  O  O254  1  0.63100663  0.74846052  0.49305277  1
  O  O255  1  0.63167246  0.74254020  1.00004753  1
  O  O256  1  0.49707474  0.24615247  0.12822781  1
  O  O257  1  0.49897773  0.24086390  0.62954305  1
  O  O258  1  0.49241547  0.74860115  0.13244671  1
  O  O259  1  0.49376404  0.74408779  0.63015820  1
  O  O260  1  0.98743948  0.25185726  0.12521811  1
  O  O261  1  1.00050675  0.24426734  0.63185570  1
  O  O262  1  0.99265513  0.74268215  0.12794494  1
  O  O263  1  0.99424448  0.74635244  0.63103353  1
  O  O264  1  -0.00070772  0.25886357  0.37351365  1
  O  O265  1  0.00684733  0.25772305  0.86926913  1
  O  O266  1  0.01279519  0.75199199  0.37400995  1
  O  O267  1  0.00516589  0.75562186  0.86980064  1
  O  O268  1  0.50171044  0.25885679  0.37099085  1
  O  O269  1  0.50552672  0.25599307  0.86817029  1
  O  O270  1  0.50501347  0.75370440  0.36981302  1
  O  O271  1  0.49979831  0.75655978  0.86762396  1
  O  O272  1  0.25213239  0.12171138  0.48672667  1
  O  O273  1  0.24488867  0.13061926  0.99262611  1
  O  O274  1  0.24329446  0.62521042  0.49329183  1
  O  O275  1  0.24354266  0.63128303  0.99430872  1
  O  O276  1  0.74955188  0.13737343  0.50312068  1
  O  O277  1  0.74945227  0.13925806  0.99745121  1
  O  O278  1  0.74890885  0.63217947  0.49416239  1
  O  O279  1  0.74488267  0.62993568  0.99518260  1
  O  O280  1  0.25060034  0.36859845  0.00635081  1
  O  O281  1  0.25564407  0.37541825  0.50825479  1
  O  O282  1  0.25513559  0.86886826  0.00389449  1
  O  O283  1  0.25326324  0.87455510  0.50952110  1
  O  O284  1  0.75557342  0.36657821  0.00450452  1
  O  O285  1  0.75589059  0.36991277  0.50484461  1
  O  O286  1  0.75465569  0.86863458  0.00599208  1
  O  O287  1  0.75488243  0.86903448  0.50689823  1
  O  O288  1  0.13101133  0.49452606  0.24487555  1
  O  O289  1  0.12720214  0.49255301  0.74731450  1
  O  O290  1  0.13161469  0.99312407  0.24347214  1
  O  O291  1  0.13020391  0.99559068  0.74549906  1
  O  O292  1  0.63222244  0.49482963  0.24500867  1
  O  O293  1  0.63039782  0.49551627  0.74493996  1
  O  O294  1  0.63037888  0.99189280  0.24481717  1
  O  O295  1  0.62243406  0.98659924  0.74816994  1
  O  O296  1  0.36989616  0.00498217  0.25361264  1
  O  O297  1  0.36939244  0.00529203  0.75593705  1
  O  O298  1  0.36932329  0.50482411  0.25552163  1
  O  O299  1  0.37384281  0.50687279  0.76110143  1
  O  O300  1  0.86910384  -0.00413194  0.26000155  1
  O  O301  1  0.87497985  0.01345681  0.75217756  1
  O  O302  1  0.86952096  0.50490749  0.25602517  1
  O  O303  1  0.86907470  0.50693838  0.75494687  1
  O  O304  1  0.11838173  0.37623229  0.36837863  1
  O  O305  1  0.12089502  0.37059657  0.86977229  1
  O  O306  1  0.12697710  0.86615830  0.36984520  1
  O  O307  1  0.11983223  0.86928341  0.87016210  1
  O  O308  1  0.61839236  0.37527322  0.36793296  1
  O  O309  1  0.61994009  0.37117547  0.86759864  1
  O  O310  1  0.61972103  0.86793292  0.36873261  1
  O  O311  1  0.61791011  0.87232097  0.86584993  1
  O  O312  1  0.37478855  0.12292119  0.13557092  1
  O  O313  1  0.38508161  0.12472833  0.63051909  1
  O  O314  1  0.37417880  0.63073005  0.13152161  1
  O  O315  1  0.37942292  0.62909456  0.63110330  1
  O  O316  1  0.87515956  0.13810385  0.12358302  1
  O  O317  1  0.88358670  0.12780979  0.63579941  1
  O  O318  1  0.87891338  0.62956520  0.13105869  1
  O  O319  1  0.88007692  0.63185018  0.63127413  1
  O  O320  1  0.25152333  0.25671600  0.11797421  1
  O  O321  1  0.25281854  0.26172277  0.62346148  1
  O  O322  1  0.25490333  0.75455238  0.11944378  1
  O  O323  1  0.25579420  0.75735422  0.62537417  1
  O  O324  1  0.75720700  0.25585864  0.11550310  1
  O  O325  1  0.75091861  0.25938628  0.61613206  1
  O  O326  1  0.75545971  0.75509483  0.12084713  1
  O  O327  1  0.75563375  0.75481677  0.62003383  1
  O  O328  1  0.24975123  0.23547589  0.37360230  1
  O  O329  1  0.24475880  0.24510719  0.87917523  1
  O  O330  1  0.24070274  0.74321776  0.37601515  1
  O  O331  1  0.24381988  0.74521519  0.88040334  1
  O  O332  1  0.75127203  0.24993218  0.38723113  1
  O  O333  1  0.74454077  0.25279031  0.88416561  1
  O  O334  1  0.74507656  0.74522736  0.38051418  1
  O  O335  1  0.74837768  0.74262351  0.88289610  1
  O  O336  1  0.00988391  0.12553739  0.00311877  1
  O  O337  1  -0.00025356  0.11785714  0.50817114  1
  O  O338  1  0.00616430  0.62415662  0.00748825  1
  O  O339  1  0.00447260  0.62092854  0.50596059  1
  O  O340  1  0.50142718  0.11463450  0.00060439  1
  O  O341  1  0.49820718  0.11715856  0.50676196  1
  O  O342  1  0.50995570  0.62243307  0.00229952  1
  O  O343  1  0.50056077  0.61647132  0.50688972  1
  O  O344  1  0.49417772  0.38014266  0.49454266  1
  O  O345  1  0.49832112  0.37871528  0.98999624  1
  O  O346  1  0.49838529  0.88312896  0.49415495  1
  O  O347  1  0.49316597  0.87847854  0.99394119  1
  O  O348  1  0.99535796  0.38125856  0.49559222  1
  O  O349  1  0.99417644  0.37728220  0.99183252  1
  O  O350  1  0.99258838  0.88246317  0.50013049  1
  O  O351  1  0.99269290  0.87435467  0.99399407  1
  O  O352  1  0.49436178  0.49379881  0.38025107  1
  O  O353  1  0.49046371  0.49514486  0.87468531  1
  O  O354  1  0.49661475  0.99357399  0.38160559  1
  O  O355  1  0.49297070  0.99357465  0.87988157  1
  O  O356  1  0.99382868  0.49567959  0.38162959  1
  O  O357  1  0.99270247  0.49487184  0.87629111  1
  O  O358  1  0.99034008  0.99776665  0.38173909  1
  O  O359  1  0.99734665  0.99138372  0.87887309  1
  O  O360  1  0.00945042  0.00115878  0.12110760  1
  O  O361  1  0.00588639  0.00559216  0.62088383  1
  O  O362  1  0.00628245  0.50638511  0.12335544  1
  O  O363  1  0.00042220  0.50878066  0.61883543  1
  O  O364  1  0.50675413  -0.00236811  0.11760305  1
  O  O365  1  0.49954519  0.00776585  0.61629451  1
  O  O366  1  0.50943320  0.50245625  0.12268728  1
  O  O367  1  0.50401051  0.50461132  0.62078681  1
  O  O368  1  0.24430448  0.38027115  0.24534616  1
  O  O369  1  0.24476212  0.37529627  0.74104733  1
  O  O370  1  0.24557003  0.87922927  0.24336904  1
  O  O371  1  0.24328602  0.88187357  0.74633540  1
  O  O372  1  0.74576955  0.38185934  0.24544784  1
  O  O373  1  0.74510056  0.38134535  0.74479922  1
  O  O374  1  0.74379743  0.87889290  0.24433321  1
  O  O375  1  0.73958706  0.87278285  0.74527205  1
  O  O376  1  0.25827765  0.11724159  0.25626250  1
  O  O377  1  0.25522665  0.12056897  0.75489100  1
  O  O378  1  0.25515658  0.61798946  0.25622716  1
  O  O379  1  0.25595128  0.62474987  0.75703748  1
  O  O380  1  0.75551172  0.11473619  0.25181100  1
  O  O381  1  0.76119918  0.12771014  0.74873273  1
  O  O382  1  0.75609697  0.61915610  0.25674442  1
  O  O383  1  0.75500532  0.62088500  0.75472063  1
  O  O384  1  0.36849664  0.11735021  0.36495393  1
  O  O385  1  0.36931119  0.11875240  0.86895646  1
  O  O386  1  0.36947020  0.61865120  0.36957531  1
  O  O387  1  0.36980515  0.61847318  0.87066477  1
  O  O388  1  0.87180536  0.11053813  0.37668677  1
  O  O389  1  0.87462229  0.12730209  0.86372041  1
  O  O390  1  0.86995406  0.62019123  0.37061893  1
  O  O391  1  0.86959156  0.62083523  0.86976503  1
  O  O392  1  0.13017669  0.38098499  0.13093600  1
  O  O393  1  0.13424463  0.37621701  0.62993608  1
  O  O394  1  0.13158875  0.87859665  0.12941163  1
  O  O395  1  0.13010512  0.88112883  0.63210716  1
  O  O396  1  0.63251971  0.38112921  0.13060001  1
  O  O397  1  0.62998638  0.38196866  0.63116391  1
  O  O398  1  0.63086739  0.87874493  0.13059435  1
  O  O399  1  0.62904770  0.87456835  0.63463623  1
  O  O400  1  0.12330856  0.25903478  0.25288555  1
  O  O401  1  0.11986822  0.25602283  0.75676186  1
  O  O402  1  0.12572599  0.75463150  0.26000714  1
  O  O403  1  0.11865443  0.75637280  0.75623134  1
  O  O404  1  0.62712082  0.25933493  0.25064928  1
  O  O405  1  0.61973136  0.25710400  0.75393012  1
  O  O406  1  0.62007537  0.75426906  0.25530403  1
  O  O407  1  0.61762655  0.76010942  0.75123065  1
  O  O408  1  0.37660591  0.23649264  0.24682556  1
  O  O409  1  0.38281907  0.24241224  0.74874999  1
  O  O410  1  0.37929656  0.74398972  0.24506901  1
  O  O411  1  0.38000648  0.74462423  0.74500035  1
  O  O412  1  0.87322840  0.25109803  0.23713836  1
  O  O413  1  0.88237589  0.24371049  0.74830524  1
  O  O414  1  0.87449936  0.74326822  0.24502010  1
  O  O415  1  0.87966286  0.74559862  0.74514346  1
  O  O416  1  0.38081930  0.49356556  0.49327605  1
  O  O417  1  0.37561807  0.50022126  0.98682698  1
  O  O418  1  0.38726837  0.99736804  0.49275103  1
  O  O419  1  0.37823157  0.99278567  0.99406999  1
  O  O420  1  0.88016903  0.49629525  0.49482968  1
  O  O421  1  0.87454328  0.49364360  0.99274268  1
  O  O422  1  0.87884137  0.99481545  0.49455899  1
  O  O423  1  0.87546026  0.99145380  0.99979026  1
  O  O424  1  0.12599972  0.00737231  0.00601578  1
  O  O425  1  0.11796723  0.00221646  0.50717094  1
  O  O426  1  0.12423915  0.50780234  0.00675906  1
  O  O427  1  0.11724908  0.50813328  0.50183360  1
  O  O428  1  0.61844579  -0.00194673  0.00574930  1
  O  O429  1  0.61224039  0.00028217  0.50157001  1
  O  O430  1  0.62764586  0.50705100  0.00643600  1
  O  O431  1  0.61820280  0.50051797  0.50750185  1
  O  O432  1  0.36568028  0.37533878  0.12307999  1
  O  O433  1  0.36682296  0.37408252  0.61915620  1
  O  O434  1  0.36875576  0.86839283  0.11910407  1
  O  O435  1  0.36842658  0.86843574  0.62628528  1
  O  O436  1  0.86948779  0.36902680  0.11904707  1
  O  O437  1  0.86831988  0.37611918  0.61878859  1
  O  O438  1  0.86919393  0.86902209  0.12108565  1
  O  O439  1  0.86944342  0.86967600  0.62200229  1
  O  O440  1  0.13791570  0.12087312  0.37310269  1
  O  O441  1  0.13079812  0.13167324  0.87948639  1
  O  O442  1  0.12961446  0.63244223  0.37945976  1
  O  O443  1  0.12883591  0.63122578  0.88018643  1
  O  O444  1  0.62983890  0.12824898  0.37959372  1
  O  O445  1  0.62700830  0.13523784  0.87649335  1
  O  O446  1  0.63221768  0.63053233  0.37605158  1
  O  O447  1  0.63196886  0.62607926  0.88175952  1
