# generated using pymatgen
data_V3Zn3O8
_symmetry_space_group_name_H-M   'P 1'
_cell_length_a   17.08631124
_cell_length_b   17.08389156
_cell_length_c   17.08525073
_cell_angle_alpha   90.00293283
_cell_angle_beta   89.99870102
_cell_angle_gamma   90.00663294
_symmetry_Int_Tables_number   1
_chemical_formula_structural   V3Zn3O8
_chemical_formula_sum   'V96 Zn96 O256'
_cell_volume   4987.19640814
_cell_formula_units_Z   32
loop_
 _symmetry_equiv_pos_site_id
 _symmetry_equiv_pos_as_xyz
  1  'x, y, z'
loop_
 _atom_site_type_symbol
 _atom_site_label
 _atom_site_symmetry_multiplicity
 _atom_site_fract_x
 _atom_site_fract_y
 _atom_site_fract_z
 _atom_site_occupancy
  V  V0  1  0.25048002  0.12566528  0.37590248  1
  V  V1  1  0.49951416  0.62545574  0.62495926  1
  V  V2  1  0.75040688  0.12549074  0.87418313  1
  V  V3  1  0.62476538  0.37563429  0.25019038  1
  V  V4  1  0.24947245  -0.00097503  0.25029087  1
  V  V5  1  0.12398443  0.62520094  0.00072075  1
  V  V6  1  0.87486903  0.87510415  0.00059598  1
  V  V7  1  0.37515954  0.75048119  0.62455752  1
  V  V8  1  0.75180407  0.12464427  0.37424802  1
  V  V9  1  0.62441625  0.75059485  0.37516372  1
  V  V10  1  0.37548859  0.24997999  0.12574992  1
  V  V11  1  0.74992133  0.37457398  0.12373729  1
  V  V12  1  0.00073813  -0.00018993  -0.00001856  1
  V  V13  1  0.62404119  0.12508799  -0.00053062  1
  V  V14  1  0.25038425  0.12476667  0.87547000  1
  V  V15  1  -0.00082985  0.49925764  0.49934610  1
  V  V16  1  0.37347250  0.62493029  0.25104685  1
  V  V17  1  0.37572790  0.12519114  0.25027396  1
  V  V18  1  0.74892700  0.75057547  0.49986607  1
  V  V19  1  0.49994579  0.75017193  0.75130566  1
  V  V20  1  0.87472630  0.62492110  0.24982658  1
  V  V21  1  0.12556846  -0.00084122  0.62464214  1
  V  V22  1  0.00001787  0.62465572  0.12415268  1
  V  V23  1  0.12554063  0.87390387  0.74964117  1
  V  V24  1  -0.00056692  0.24917299  0.24879818  1
  V  V25  1  0.49948369  0.50080460  0.00077554  1
  V  V26  1  0.49989900  0.62505754  0.12522615  1
  V  V27  1  0.12428456  0.62367093  0.49965548  1
  V  V28  1  0.62409692  0.50067177  0.12456476  1
  V  V29  1  0.37473387  0.50017668  0.87609734  1
  V  V30  1  0.49964365  0.25181728  0.75000916  1
  V  V31  1  0.25121397  -0.00026101  0.75036143  1
  V  V32  1  0.87434312  0.87395396  0.50008405  1
  V  V33  1  0.62500143  0.62578085  0.49946317  1
  V  V34  1  0.37555234  0.00047422  0.87498747  1
  V  V35  1  0.24975760  0.37512949  0.62541406  1
  V  V36  1  0.87546531  0.62479777  0.74938952  1
  V  V37  1  0.00031826  0.12487513  0.12418032  1
  V  V38  1  0.87474808  0.25009497  0.12392841  1
  V  V39  1  0.12484636  0.74869401  0.37594288  1
  V  V40  1  0.75031327  0.50102507  0.24988110  1
  V  V41  1  0.74904023  0.75014485  -0.00015292  1
  V  V42  1  0.62563740  0.49954352  0.62545679  1
  V  V43  1  0.62569451  0.87613167  0.24886125  1
  V  V44  1  -0.00094217  0.74937327  0.25076178  1
  V  V45  1  0.87468756  0.49916587  0.37426592  1
  V  V46  1  0.24922745  0.49979020  0.25017827  1
  V  V47  1  0.87512941  0.00016140  0.37394215  1
  V  V48  1  0.00098918  0.87486063  0.87549047  1
  V  V49  1  0.49936128  0.75044844  0.25009756  1
  V  V50  1  0.62607985  -0.00055910  0.12508101  1
  V  V51  1  0.49939517  0.87627206  0.37565679  1
  V  V52  1  -0.00019761  0.74836454  0.74945731  1
  V  V53  1  -0.00075360  0.24684092  0.74933186  1
  V  V54  1  0.24927237  0.62412546  0.37525128  1
  V  V55  1  0.37440153  0.37547882  0.00140354  1
  V  V56  1  0.37459822  0.37566234  0.50029830  1
  V  V57  1  0.24979144  0.37459109  0.12578135  1
  V  V58  1  0.87483270  0.49907160  0.87494611  1
  V  V59  1  0.24989981  0.62459148  0.87486903  1
  V  V60  1  0.12563855  0.24907577  0.87580910  1
  V  V61  1  -0.00066728  0.37463120  0.37464134  1
  V  V62  1  0.62329712  0.25084761  0.87436577  1
  V  V63  1  0.37639747  0.00043018  0.37595827  1
  V  V64  1  0.12561041  0.37473613  0.75014897  1
  V  V65  1  0.25038212  0.75103580  0.00066386  1
  V  V66  1  -0.00103392  0.37484066  0.87566964  1
  V  V67  1  0.62471916  0.87494543  0.74988418  1
  V  V68  1  0.62674047  0.24969650  0.37672076  1
  V  V69  1  0.12562140  0.74956812  0.87513891  1
  V  V70  1  0.50057053  0.37532034  0.37561090  1
  V  V71  1  0.37401804  0.75118788  0.12488006  1
  V  V72  1  0.74966809  0.62565089  0.87499576  1
  V  V73  1  0.74929855  0.50002703  0.74929103  1
  V  V74  1  0.12572858  0.12377640  0.50027214  1
  V  V75  1  0.62474676  0.37621253  0.75004158  1
  V  V76  1  0.24985391  0.49980036  0.75085227  1
  V  V77  1  0.12500881  0.12429415  0.00019635  1
  V  V78  1  0.49952816  -0.00058475  -0.00167964  1
  V  V79  1  0.50011890  0.49994275  0.50036923  1
  V  V80  1  0.49996478  0.12546313  0.12541855  1
  V  V81  1  0.87465316  0.25022495  0.62370435  1
  V  V82  1  0.75063613  0.87522219  0.62440143  1
  V  V83  1  0.12566963  0.87561256  0.25057062  1
  V  V84  1  0.87403584  0.37510332  -0.00079512  1
  V  V85  1  -0.00009680  0.62330986  0.62479035  1
  V  V86  1  0.75038901  0.00020890  0.74898696  1
  V  V87  1  0.12539483  0.37471928  0.24927525  1
  V  V88  1  -0.00006990  0.87418184  0.37534110  1
  V  V89  1  0.37452548  0.25108094  0.62572246  1
  V  V90  1  0.00119643  -0.00150738  0.50080693  1
  V  V91  1  0.12485037  0.24893238  0.37557890  1
  V  V92  1  0.37510389  0.87532658  0.00003741  1
  V  V93  1  0.37572348  0.87549433  0.49997930  1
  V  V94  1  0.50127134  0.12538062  0.62304925  1
  V  V95  1  0.25121659  0.87384564  0.62439105  1
  Zn  Zn96  1  0.75282584  0.25201509  0.50032557  1
  Zn  Zn97  1  0.00084788  0.49995454  -0.00050042  1
  Zn  Zn98  1  0.62422294  0.62643296  -0.00123885  1
  Zn  Zn99  1  0.12459575  0.49867048  0.62476630  1
  Zn  Zn100  1  0.25018981  0.74817456  0.50057721  1
  Zn  Zn101  1  0.87672028  0.00143537  0.87394273  1
  Zn  Zn102  1  0.37523725  0.12571794  0.75033874  1
  Zn  Zn103  1  0.62532379  0.00330526  0.62123046  1
  Zn  Zn104  1  0.12612920  -0.00063312  0.12561168  1
  Zn  Zn105  1  0.87317349  0.75104582  0.12715970  1
  Zn  Zn106  1  0.50273131  0.00149740  0.50028159  1
  Zn  Zn107  1  0.75242582  -0.00167371  0.24733784  1
  Zn  Zn108  1  0.62704648  0.12362359  0.49980384  1
  Zn  Zn109  1  0.12470060  0.49821715  0.12297891  1
  Zn  Zn110  1  0.87390110  0.37506650  0.49982818  1
  Zn  Zn111  1  0.50034362  0.25010549  0.25088773  1
  Zn  Zn112  1  0.62399407  0.74918392  0.87582412  1
  Zn  Zn113  1  0.87562236  0.12268752  0.74897713  1
  Zn  Zn114  1  -0.00037639  0.12231714  0.62523253  1
  Zn  Zn115  1  0.24847965  0.87667216  0.12531721  1
  Zn  Zn116  1  0.87557776  0.12272422  0.24780809  1
  Zn  Zn117  1  0.49914104  0.37597613  0.87592457  1
  Zn  Zn118  1  0.24939945  0.25071638  0.50069787  1
  Zn  Zn119  1  0.75070339  0.37462178  0.62257835  1
  Zn  Zn120  1  0.37497592  0.49947012  0.37550201  1
  Zn  Zn121  1  0.74921908  0.62486674  0.37440589  1
  Zn  Zn122  1  0.87457779  0.74914186  0.62437805  1
  Zn  Zn123  1  0.75032938  0.87585338  0.12574483  1
  Zn  Zn124  1  0.50039528  0.87555545  0.87477184  1
  Zn  Zn125  1  0.25025598  0.24977834  0.00043411  1
  Zn  Zn126  1  0.74834569  0.25004843  -0.00005340  1
  Zn  Zn127  1  0.37436570  0.62465235  0.74988103  1
  Zn  Zn128  1  0.18794017  0.18718059  0.18728744  1
  Zn  Zn129  1  0.18824980  0.18632069  0.68720380  1
  Zn  Zn130  1  0.18660561  0.68834351  0.18764002  1
  Zn  Zn131  1  0.18720286  0.68570578  0.68637035  1
  Zn  Zn132  1  0.68861436  0.18722619  0.18916761  1
  Zn  Zn133  1  0.68675275  0.18948139  0.68775188  1
  Zn  Zn134  1  0.68723810  0.68806853  0.18609063  1
  Zn  Zn135  1  0.68769264  0.68761382  0.68626966  1
  Zn  Zn136  1  0.31287450  0.31197647  0.31302030  1
  Zn  Zn137  1  0.31342141  0.31266976  0.81340579  1
  Zn  Zn138  1  0.31128404  0.81196245  0.31364794  1
  Zn  Zn139  1  0.31381319  0.81334254  0.81342135  1
  Zn  Zn140  1  0.81317885  0.31229175  0.31016090  1
  Zn  Zn141  1  0.81151048  0.31257386  0.81011061  1
  Zn  Zn142  1  0.81076926  0.81262234  0.31307941  1
  Zn  Zn143  1  0.81398548  0.81160334  0.81395845  1
  Zn  Zn144  1  0.18715644  0.43769388  0.43736054  1
  Zn  Zn145  1  0.18716247  0.43760027  0.93901466  1
  Zn  Zn146  1  0.18945834  0.93664854  0.43733194  1
  Zn  Zn147  1  0.18818627  0.93812020  0.93811020  1
  Zn  Zn148  1  0.69020305  0.43625965  0.43939724  1
  Zn  Zn149  1  0.68627905  0.43802319  0.93763147  1
  Zn  Zn150  1  0.68635844  0.94009588  0.43775549  1
  Zn  Zn151  1  0.68697789  0.93771501  0.93623502  1
  Zn  Zn152  1  0.31161251  0.06221625  0.06330557  1
  Zn  Zn153  1  0.31444653  0.06293473  0.56223290  1
  Zn  Zn154  1  0.31143817  0.56238624  0.06398217  1
  Zn  Zn155  1  0.31218194  0.56183136  0.56327332  1
  Zn  Zn156  1  0.81263376  0.06202046  0.06177752  1
  Zn  Zn157  1  0.81407888  0.06496969  0.56156472  1
  Zn  Zn158  1  0.81319343  0.56235931  0.06210670  1
  Zn  Zn159  1  0.81239891  0.56285358  0.56164790  1
  Zn  Zn160  1  0.43670159  0.43749798  0.18920415  1
  Zn  Zn161  1  0.43701662  0.43761766  0.68852473  1
  Zn  Zn162  1  0.43752265  0.93833195  0.18684506  1
  Zn  Zn163  1  0.43723438  0.93932269  0.68671474  1
  Zn  Zn164  1  0.93730784  0.43797410  0.18696144  1
  Zn  Zn165  1  0.93734413  0.43620607  0.68698932  1
  Zn  Zn166  1  0.93859512  0.93877719  0.18676788  1
  Zn  Zn167  1  0.93696793  0.93551851  0.68669426  1
  Zn  Zn168  1  0.06243298  0.06235170  0.31226051  1
  Zn  Zn169  1  0.06468239  0.06131484  0.81380827  1
  Zn  Zn170  1  0.06270133  0.56096814  0.31165843  1
  Zn  Zn171  1  0.06252436  0.56114163  0.81274794  1
  Zn  Zn172  1  0.56328895  0.06231301  0.31141056  1
  Zn  Zn173  1  0.56215706  0.06386171  0.81018108  1
  Zn  Zn174  1  0.56183709  0.56255866  0.31326118  1
  Zn  Zn175  1  0.56292427  0.56348520  0.81453359  1
  Zn  Zn176  1  0.43764495  0.19005494  0.43915667  1
  Zn  Zn177  1  0.43677717  0.18800818  0.93792792  1
  Zn  Zn178  1  0.43649753  0.68803073  0.43772911  1
  Zn  Zn179  1  0.43628643  0.68672437  0.93749230  1
  Zn  Zn180  1  0.93875335  0.18566949  0.43842280  1
  Zn  Zn181  1  0.93591926  0.18779243  0.93845441  1
  Zn  Zn182  1  0.93593397  0.68583122  0.43774001  1
  Zn  Zn183  1  0.93628907  0.68815222  0.93721946  1
  Zn  Zn184  1  0.06227580  0.31147884  0.06170144  1
  Zn  Zn185  1  0.06234139  0.31259001  0.56192512  1
  Zn  Zn186  1  0.06322840  0.81232816  0.06482926  1
  Zn  Zn187  1  0.06252257  0.81000500  0.56281805  1
  Zn  Zn188  1  0.56124753  0.31238145  0.06182941  1
  Zn  Zn189  1  0.56300465  0.31263729  0.56225608  1
  Zn  Zn190  1  0.56231527  0.81354970  0.06286767  1
  Zn  Zn191  1  0.56241652  0.81417004  0.56325773  1
  O  O192  1  0.11798546  0.12468307  0.11802353  1
  O  O193  1  0.12428580  0.11655238  0.61891819  1
  O  O194  1  0.11490150  0.62556614  0.11997822  1
  O  O195  1  0.11792839  0.62236253  0.61822733  1
  O  O196  1  0.62015128  0.12036703  0.11949017  1
  O  O197  1  0.61408210  0.12769911  0.62289634  1
  O  O198  1  0.61743376  0.61839344  0.12387695  1
  O  O199  1  0.61883875  0.61983880  0.61927726  1
  O  O200  1  0.38207565  0.37543963  0.38180699  1
  O  O201  1  0.37561648  0.38219055  0.88327665  1
  O  O202  1  0.38009109  0.88000615  0.37973450  1
  O  O203  1  0.37676850  0.88233887  0.88196833  1
  O  O204  1  0.88268455  0.38122606  0.37348992  1
  O  O205  1  0.87908077  0.37920547  0.87903154  1
  O  O206  1  0.88060936  0.87993454  0.38108065  1
  O  O207  1  0.88219212  0.87576665  0.88515336  1
  O  O208  1  0.25681331  0.00589891  0.37001257  1
  O  O209  1  0.25522511  0.00491747  0.86955561  1
  O  O210  1  0.25144602  0.50628184  0.36788833  1
  O  O211  1  0.25484264  0.50539399  0.87074381  1
  O  O212  1  0.75643181  0.00888921  0.37383716  1
  O  O213  1  0.74941397  0.00862437  0.86550465  1
  O  O214  1  0.75573060  0.50150186  0.36705341  1
  O  O215  1  0.75516538  0.50575338  0.86910423  1
  O  O216  1  0.24782220  0.49332408  0.13248815  1
  O  O217  1  0.24817382  0.49322176  0.63290253  1
  O  O218  1  0.24775667  0.99811779  0.13477735  1
  O  O219  1  0.24556985  0.99336857  0.63043727  1
  O  O220  1  0.74460411  0.49469843  0.12994934  1
  O  O221  1  0.74296893  0.50079721  0.63237846  1
  O  O222  1  0.74150642  0.99796840  0.12561063  1
  O  O223  1  0.74948200  0.99580333  0.63461010  1
  O  O224  1  0.00574450  0.36933430  0.25417771  1
  O  O225  1  0.00499385  0.36510741  0.75576319  1
  O  O226  1  0.00484903  0.86929138  0.25651542  1
  O  O227  1  0.00593167  0.86900148  0.75516728  1
  O  O228  1  0.50729653  0.37452951  0.25711209  1
  O  O229  1  0.50672419  0.36962086  0.75209469  1
  O  O230  1  0.50452725  0.86919923  0.25547293  1
  O  O231  1  0.50833854  0.86712264  0.74837892  1
  O  O232  1  0.49311048  0.12569877  0.24290519  1
  O  O233  1  0.49905589  0.13295854  0.74023624  1
  O  O234  1  0.49389878  0.63089139  0.24519504  1
  O  O235  1  0.50040767  0.63539822  0.74391855  1
  O  O236  1  0.99970238  0.13166469  0.24297307  1
  O  O237  1  1.00004887  0.13621057  0.75092099  1
  O  O238  1  0.99557902  0.62981282  0.24265069  1
  O  O239  1  0.99523789  0.62912241  0.74553664  1
  O  O240  1  0.37393312  0.25694194  0.00757413  1
  O  O241  1  0.37277073  0.25848257  0.50759850  1
  O  O242  1  0.36974248  0.75528198  0.00509362  1
  O  O243  1  0.37398045  0.75679668  0.50726651  1
  O  O244  1  0.87181059  0.25730244  0.00578525  1
  O  O245  1  0.87851411  0.25110311  0.51202872  1
  O  O246  1  0.86681119  0.75921944  -0.00004507  1
  O  O247  1  0.86771269  0.75639993  0.50000000  1
  O  O248  1  0.12564687  0.24244331  0.49331582  1
  O  O249  1  0.12568795  0.24266517  0.99230029  1
  O  O250  1  0.12555691  0.74207786  0.49297201  1
  O  O251  1  0.13025758  0.74539198  0.99404668  1
  O  O252  1  0.62765794  0.24964838  0.48629327  1
  O  O253  1  0.62571852  0.24283266  0.99312070  1
  O  O254  1  0.62886629  0.74577017  0.49515487  1
  O  O255  1  0.63614900  0.75071649  0.99736138  1
  O  O256  1  0.49417809  0.24295051  0.12749179  1
  O  O257  1  0.49475873  0.24450924  0.63006870  1
  O  O258  1  0.49407519  0.74493552  0.13071801  1
  O  O259  1  0.49571001  0.74580153  0.63343365  1
  O  O260  1  0.99413752  0.24466370  0.12926209  1
  O  O261  1  0.99482876  0.24872464  0.63560914  1
  O  O262  1  0.99864620  0.73951126  0.13133718  1
  O  O263  1  0.99857321  0.74245932  0.63226951  1
  O  O264  1  0.00538115  0.25436315  0.36878358  1
  O  O265  1  0.00399130  0.25424718  0.86666664  1
  O  O266  1  0.00492476  0.75481429  0.37026741  1
  O  O267  1  0.00646899  0.75457318  0.86950783  1
  O  O268  1  0.51052571  0.25586054  0.37373537  1
  O  O269  1  0.50592092  0.25075728  0.86816229  1
  O  O270  1  0.50460423  0.75620034  0.36918430  1
  O  O271  1  0.50086654  0.75170362  0.86302282  1
  O  O272  1  0.24373684  0.12569799  0.49335081  1
  O  O273  1  0.24324878  0.12579936  0.99334246  1
  O  O274  1  0.24287979  0.62501371  0.49378226  1
  O  O275  1  0.24444506  0.63135712  0.99496744  1
  O  O276  1  0.74968233  0.12888615  0.48651005  1
  O  O277  1  0.74306914  0.12463600  0.98868179  1
  O  O278  1  0.74220224  0.63183199  0.49846959  1
  O  O279  1  0.75140832  0.63496571  0.99445344  1
  O  O280  1  0.25626456  0.37379684  0.00772351  1
  O  O281  1  0.25593177  0.37473950  0.50694370  1
  O  O282  1  0.25636703  0.86839148  0.00111430  1
  O  O283  1  0.25712384  0.87241648  0.50667480  1
  O  O284  1  0.75556284  0.37352996  0.00614451  1
  O  O285  1  0.75598470  0.37067176  0.50452600  1
  O  O286  1  0.75867555  0.86784744  -0.00229936  1
  O  O287  1  0.75458598  0.87052955  0.50496316  1
  O  O288  1  0.13122911  0.49216704  0.24807270  1
  O  O289  1  0.13153868  0.49201344  0.75027226  1
  O  O290  1  0.13156251  0.99299843  0.25140918  1
  O  O291  1  0.13078775  0.99263423  0.74500816  1
  O  O292  1  0.63010949  0.49538464  0.24435011  1
  O  O293  1  0.62946436  0.49625686  0.74494418  1
  O  O294  1  0.62531550  0.99312801  0.24250259  1
  O  O295  1  0.63420457  0.99179350  0.74787115  1
  O  O296  1  0.36989830  0.00555044  0.25630238  1
  O  O297  1  0.36808645  0.00066702  0.75680804  1
  O  O298  1  0.36776361  0.50740127  0.25194090  1
  O  O299  1  0.36828829  0.50155649  0.75752233  1
  O  O300  1  0.87399480  0.00136939  0.25849679  1
  O  O301  1  0.86302850  -0.00031050  0.75255409  1
  O  O302  1  0.86958658  0.50519000  0.25452998  1
  O  O303  1  0.86934888  0.50484402  0.75545808  1
  O  O304  1  0.11946623  0.36862322  0.36896460  1
  O  O305  1  0.11948089  0.36860616  0.87019112  1
  O  O306  1  0.11893913  0.86899114  0.37108378  1
  O  O307  1  0.12077463  0.86883072  0.86931694  1
  O  O308  1  0.62144788  0.36795617  0.37010858  1
  O  O309  1  0.62299811  0.36895539  0.86867211  1
  O  O310  1  0.61868386  0.86979882  0.36926663  1
  O  O311  1  0.62353324  0.87296925  0.86108101  1
  O  O312  1  0.38049173  0.12970936  0.13023075  1
  O  O313  1  0.38329876  0.13232454  0.62687436  1
  O  O314  1  0.37992910  0.63154138  0.13132068  1
  O  O315  1  0.38193487  0.63179128  0.62706666  1
  O  O316  1  0.88176485  0.13159469  0.12408969  1
  O  O317  1  0.87933246  0.13468206  0.62901450  1
  O  O318  1  0.88469864  0.62617454  0.13041504  1
  O  O319  1  0.88177962  0.62631570  0.63193978  1
  O  O320  1  0.25751183  0.25644959  0.12439683  1
  O  O321  1  0.25632233  0.25695576  0.62493424  1
  O  O322  1  0.25647595  0.75097756  0.11851525  1
  O  O323  1  0.25680851  0.75616354  0.62502097  1
  O  O324  1  0.75583524  0.25668331  0.12389788  1
  O  O325  1  0.76206705  0.25001212  0.62530734  1
  O  O326  1  0.75258823  0.75227236  0.11269467  1
  O  O327  1  0.75104621  0.75718039  0.61817005  1
  O  O328  1  0.24262926  0.24318310  0.37611848  1
  O  O329  1  0.24323321  0.24325555  0.87572173  1
  O  O330  1  0.24252095  0.74216294  0.37648328  1
  O  O331  1  0.24485921  0.74487078  0.88019138  1
  O  O332  1  0.74351854  0.24264420  0.37375532  1
  O  O333  1  0.74303956  0.23965876  0.87295616  1
  O  O334  1  0.74158260  0.74872571  0.38208192  1
  O  O335  1  0.75003151  0.74446043  0.88388056  1
  O  O336  1  0.00491450  0.11965990  0.00357730  1
  O  O337  1  0.00814946  0.11550941  0.50093790  1
  O  O338  1  0.00422659  0.62658339  0.00876405  1
  O  O339  1  0.00458385  0.61907099  0.50472996  1
  O  O340  1  0.50505303  0.11880456  0.00557478  1
  O  O341  1  0.50105363  0.12602547  0.51187978  1
  O  O342  1  0.50042214  0.61980161  0.00780124  1
  O  O343  1  0.50535877  0.62072824  0.50570390  1
  O  O344  1  0.49514744  0.38107996  0.49550213  1
  O  O345  1  0.49247066  0.38319707  0.99988565  1
  O  O346  1  0.49327599  0.87593903  0.49356423  1
  O  O347  1  0.49378769  0.88120088  0.99720572  1
  O  O348  1  0.99933576  0.38149136  0.49192328  1
  O  O349  1  0.99284993  0.37594522  0.99313909  1
  O  O350  1  0.99510422  0.87880517  0.49469287  1
  O  O351  1  0.99364036  0.87797109  0.99514947  1
  O  O352  1  0.49946032  0.49343733  0.38267153  1
  O  O353  1  0.49285258  0.50042327  0.88240179  1
  O  O354  1  0.49316970  0.99379947  0.37503103  1
  O  O355  1  0.49422305  1.00005125  0.88023092  1
  O  O356  1  0.99437930  0.49412939  0.37872811  1
  O  O357  1  0.99235116  0.49265164  0.87495641  1
  O  O358  1  0.99545562  0.99343079  0.38119948  1
  O  O359  1  0.99910255  0.99252495  0.88075562  1
  O  O360  1  0.00217639  0.00702056  0.11740455  1
  O  O361  1  0.00742878  -0.00111652  0.61954430  1
  O  O362  1  0.00128080  0.51318982  0.12398243  1
  O  O363  1  0.00122166  0.50547540  0.61881166  1
  O  O364  1  0.50520235  0.00613945  0.11807989  1
  O  O365  1  0.50117658  0.01319408  0.62564313  1
  O  O366  1  0.50431874  0.50583797  0.12098304  1
  O  O367  1  0.50565170  0.50599998  0.62045554  1
  O  O368  1  0.24486880  0.37980705  0.24556233  1
  O  O369  1  0.24460634  0.38008025  0.74572792  1
  O  O370  1  0.24355653  0.88121299  0.25109702  1
  O  O371  1  0.24438299  0.87944943  0.74478970  1
  O  O372  1  0.74453670  0.38154302  0.24327675  1
  O  O373  1  0.74269634  0.38292108  0.74819266  1
  O  O374  1  0.74129170  0.87604874  0.24703017  1
  O  O375  1  0.74398217  0.88121009  0.74646250  1
  O  O376  1  0.25563444  0.11927970  0.25660443  1
  O  O377  1  0.25070467  0.11706377  0.75698349  1
  O  O378  1  0.25383839  0.62019752  0.25517768  1
  O  O379  1  0.25045082  0.61884183  0.75734120  1
  O  O380  1  0.75313548  0.12252010  0.26196630  1
  O  O381  1  0.74804741  0.11586958  0.75802897  1
  O  O382  1  0.75640431  0.61894843  0.24973788  1
  O  O383  1  0.75551067  0.62048673  0.75465237  1
  O  O384  1  0.37081102  0.12109569  0.37046962  1
  O  O385  1  0.36846786  0.11843313  0.87395522  1
  O  O386  1  0.36831610  0.62429092  0.36857690  1
  O  O387  1  0.36693804  0.61873886  0.87366606  1
  O  O388  1  0.86785312  0.11947006  0.37367637  1
  O  O389  1  0.86258761  0.12386725  0.87251967  1
  O  O390  1  0.87379264  0.61728101  0.36704112  1
  O  O391  1  0.87014597  0.61912580  0.86894482  1
  O  O392  1  0.13067183  0.37482821  0.13141832  1
  O  O393  1  0.13118613  0.37527580  0.63245604  1
  O  O394  1  0.12684205  0.87686556  0.13486739  1
  O  O395  1  0.13091680  0.87891597  0.63024108  1
  O  O396  1  0.62973666  0.38033620  0.13020136  1
  O  O397  1  0.62557871  0.38212114  0.63190284  1
  O  O398  1  0.62476870  0.88218332  0.13117032  1
  O  O399  1  0.63100314  0.87668615  0.63607914  1
  O  O400  1  0.11928660  0.25496977  0.25573646  1
  O  O401  1  0.11653726  0.25397526  0.75503910  1
  O  O402  1  0.11844338  0.75500791  0.25698019  1
  O  O403  1  0.12000218  0.75478105  0.75583790  1
  O  O404  1  0.62461328  0.25679456  0.26064946  1
  O  O405  1  0.61927335  0.25680790  0.75519363  1
  O  O406  1  0.61833201  0.75518715  0.25450456  1
  O  O407  1  0.61660102  0.75844420  0.74920038  1
  O  O408  1  0.37714988  0.24277038  0.24411002  1
  O  O409  1  0.38202255  0.24995737  0.74368070  1
  O  O410  1  0.38010937  0.74511450  0.24503150  1
  O  O411  1  0.38551349  0.75082091  0.74407292  1
  O  O412  1  0.88278402  0.24882885  0.24153703  1
  O  O413  1  0.88495799  0.24903826  0.74357827  1
  O  O414  1  0.88158404  0.74416209  0.24961293  1
  O  O415  1  0.88213694  0.74306350  0.74944527  1
  O  O416  1  0.38287621  0.49377888  0.49954172  1
  O  O417  1  0.37966200  0.49533932  0.99637284  1
  O  O418  1  0.37748316  0.99317152  0.49307138  1
  O  O419  1  0.38039129  0.99516961  0.99506626  1
  O  O420  1  0.88192748  0.50003797  0.49228387  1
  O  O421  1  0.87636167  0.49334419  0.99227914  1
  O  O422  1  0.88131381  0.99347812  0.49475542  1
  O  O423  1  0.88081078  0.99020822  0.99693875  1
  O  O424  1  0.11818957  0.00602595  0.00090128  1
  O  O425  1  0.12050200  0.00299522  0.50517812  1
  O  O426  1  0.12123117  0.50920286  0.00232156  1
  O  O427  1  0.11667179  0.50634145  0.50023191  1
  O  O428  1  0.61914604  0.00508948  0.00397934  1
  O  O429  1  0.62051717  0.00484314  0.50384826  1
  O  O430  1  0.61819513  0.50188326  0.00754973  1
  O  O431  1  0.61961451  0.50572271  0.50553436  1
  O  O432  1  0.36958197  0.36973957  0.12149056  1
  O  O433  1  0.36990717  0.37042460  0.62005322  1
  O  O434  1  0.37362224  0.86852025  0.11835081  1
  O  O435  1  0.37051374  0.87038282  0.61994262  1
  O  O436  1  0.86968963  0.37063746  0.11928144  1
  O  O437  1  0.87476340  0.36263515  0.62482407  1
  O  O438  1  0.87514919  0.87306812  0.11175790  1
  O  O439  1  0.86848626  0.87245588  0.61780702  1
  O  O440  1  0.13069032  0.12929721  0.38043128  1
  O  O441  1  0.13066981  0.12969572  0.88062375  1
  O  O442  1  0.12903415  0.62965665  0.37947722  1
  O  O443  1  0.12965455  0.63101520  0.88026110  1
  O  O444  1  0.63303009  0.13397900  0.37338382  1
  O  O445  1  0.63202966  0.12976794  0.87892825  1
  O  O446  1  0.62447022  0.63280106  0.38154092  1
  O  O447  1  0.63429891  0.62816168  0.87800353  1
