# generated using pymatgen
data_V3Zn3O8
_symmetry_space_group_name_H-M   'P 1'
_cell_length_a   17.09019854
_cell_length_b   17.08961194
_cell_length_c   17.08920756
_cell_angle_alpha   89.97320826
_cell_angle_beta   89.99904129
_cell_angle_gamma   89.99713601
_symmetry_Int_Tables_number   1
_chemical_formula_structural   V3Zn3O8
_chemical_formula_sum   'V96 Zn96 O256'
_cell_volume   4991.15647659
_cell_formula_units_Z   32
loop_
 _symmetry_equiv_pos_site_id
 _symmetry_equiv_pos_as_xyz
  1  'x, y, z'
loop_
 _atom_site_type_symbol
 _atom_site_label
 _atom_site_symmetry_multiplicity
 _atom_site_fract_x
 _atom_site_fract_y
 _atom_site_fract_z
 _atom_site_occupancy
  V  V0  1  0.75103033  0.74820643  0.50042179  1
  V  V1  1  0.00005552  0.12530788  0.62520944  1
  V  V2  1  0.37284605  0.12357944  0.25083860  1
  V  V3  1  0.74879824  0.37426131  0.12460259  1
  V  V4  1  0.74929439  -0.00019638  0.24984698  1
  V  V5  1  0.25164035  0.87319504  0.62466345  1
  V  V6  1  0.87450646  0.37472205  0.49959645  1
  V  V7  1  0.00027859  0.49952387  -0.00019572  1
  V  V8  1  -0.00172092  0.24921331  0.25007693  1
  V  V9  1  0.87463883  0.87503945  -0.00097160  1
  V  V10  1  0.74991464  0.62644132  0.87550021  1
  V  V11  1  0.87845406  0.62460762  0.74846843  1
  V  V12  1  0.12494737  0.25073440  0.87502855  1
  V  V13  1  0.87581637  0.87420471  0.49965360  1
  V  V14  1  -0.00103680  0.87487039  0.37489632  1
  V  V15  1  0.37806397  0.62926761  0.74766282  1
  V  V16  1  0.62427950  0.25061641  0.87453755  1
  V  V17  1  -0.00021416  0.37409862  0.37406357  1
  V  V18  1  0.37466921  0.12592472  0.75048742  1
  V  V19  1  -0.00096196  0.00018520  0.00012090  1
  V  V20  1  0.12512534  0.87423934  0.25085499  1
  V  V21  1  0.00420001  0.50158873  0.50040607  1
  V  V22  1  0.25020766  0.49986712  0.74940990  1
  V  V23  1  0.12382181  0.12520700  0.50090488  1
  V  V24  1  0.00047076  0.37505814  0.87490283  1
  V  V25  1  0.74910641  0.25063952  0.00059138  1
  V  V26  1  0.24896811  -0.00098571  0.25142067  1
  V  V27  1  0.87425096  0.75014901  0.12448022  1
  V  V28  1  0.87626997  0.49928758  0.87398743  1
  V  V29  1  0.00041024  0.25078887  0.75012994  1
  V  V30  1  0.25122894  0.87380605  0.12561042  1
  V  V31  1  0.74962612  0.12573078  0.87460795  1
  V  V32  1  0.12555867  0.74877627  0.37616388  1
  V  V33  1  0.24920768  0.37536959  0.12479239  1
  V  V34  1  0.74941781  0.87557695  0.12438042  1
  V  V35  1  0.50079589  0.50256177  0.50217304  1
  V  V36  1  0.00007929  0.62468080  0.12488464  1
  V  V37  1  0.37376187  0.25093830  0.62390836  1
  V  V38  1  0.87791737  0.74918201  0.62418581  1
  V  V39  1  0.87456874  0.25093145  0.62411437  1
  V  V40  1  0.74894791  0.12405583  0.37507542  1
  V  V41  1  0.37396099  0.24955874  0.12523563  1
  V  V42  1  0.62466109  -0.00093222  0.12493525  1
  V  V43  1  0.49849964  0.24982406  0.25071372  1
  V  V44  1  0.74924639  0.49947845  0.25027379  1
  V  V45  1  0.12714355  0.37675947  0.74910188  1
  V  V46  1  0.62596875  0.37564424  0.74785047  1
  V  V47  1  0.49941332  0.87467343  0.37585125  1
  V  V48  1  0.12471181  0.37482754  0.24877471  1
  V  V49  1  0.50227698  0.87389641  0.87238309  1
  V  V50  1  0.75029548  0.37548623  0.62404634  1
  V  V51  1  0.87453030  0.12583686  0.75024157  1
  V  V52  1  0.24906674  0.12344401  0.37475282  1
  V  V53  1  0.50003718  0.12503417  0.62480225  1
  V  V54  1  0.74985338  -0.00089596  0.74933160  1
  V  V55  1  -0.00236278  0.12634858  0.12674425  1
  V  V56  1  0.49938459  -0.00112956  0.49999613  1
  V  V57  1  0.25039592  0.75081446  0.00211221  1
  V  V58  1  0.12447113  0.24940978  0.37523425  1
  V  V59  1  0.87374821  -0.00035725  0.37495102  1
  V  V60  1  0.25056603  0.25048453  0.50084246  1
  V  V61  1  0.24968067  0.12495521  0.87619066  1
  V  V62  1  0.75173942  0.49891592  0.74787635  1
  V  V63  1  0.37589310  0.50102003  0.87468097  1
  V  V64  1  -0.00057252  0.74945380  0.25002261  1
  V  V65  1  0.12530393  0.49933980  0.12498820  1
  V  V66  1  0.62267716  0.37432129  0.25053341  1
  V  V67  1  0.37479355  0.00001037  0.87629800  1
  V  V68  1  0.62417870  0.12595690  0.00016463  1
  V  V69  1  0.50030382  0.37553380  0.87424022  1
  V  V70  1  0.87420804  0.37392936  0.00044807  1
  V  V71  1  0.12363092  0.87513785  0.75183230  1
  V  V72  1  0.12361088  0.12536614  0.00085683  1
  V  V73  1  0.12438161  0.75105597  0.87563835  1
  V  V74  1  0.49988777  0.25059511  0.74899878  1
  V  V75  1  0.12545587  0.62529206  0.00073040  1
  V  V76  1  0.49837094  0.12401250  0.12510681  1
  V  V77  1  0.50117378  0.50096135  0.00005610  1
  V  V78  1  0.49883302  -0.00010220  -0.00034037  1
  V  V79  1  0.62467810  0.12539598  0.49919598  1
  V  V80  1  0.24930264  0.62600484  0.37631689  1
  V  V81  1  0.87399595  0.62376150  0.24931615  1
  V  V82  1  0.25096851  0.62607289  0.87597180  1
  V  V83  1  0.87431644  0.49950992  0.37351572  1
  V  V84  1  0.37726048  0.62693812  0.24832474  1
  V  V85  1  0.00118982  0.75000237  0.75002039  1
  V  V86  1  0.62428984  0.50059031  0.12461007  1
  V  V87  1  0.24969953  0.24985041  0.00017945  1
  V  V88  1  0.37518207  0.37525452  -0.00012995  1
  V  V89  1  0.37607982  0.49857087  0.37538674  1
  V  V90  1  0.62339648  0.24892699  0.37473577  1
  V  V91  1  0.62592237  -0.00033437  0.62600567  1
  V  V92  1  0.24844302  0.00095426  0.75136299  1
  V  V93  1  0.50101312  0.62565608  0.12367812  1
  V  V94  1  0.62519081  0.74851200  0.37478842  1
  V  V95  1  0.12348498  0.00130010  0.62606172  1
  Zn  Zn96  1  0.37356799  -0.00221265  0.37729469  1
  Zn  Zn97  1  0.37448337  0.37463529  0.50117623  1
  Zn  Zn98  1  0.37598734  0.87330392  0.00035143  1
  Zn  Zn99  1  0.25051377  0.37701508  0.62275283  1
  Zn  Zn100  1  -0.00045243  0.87593930  0.87497128  1
  Zn  Zn101  1  0.62426254  0.87397610  0.24798086  1
  Zn  Zn102  1  0.50606306  0.75058456  0.74744883  1
  Zn  Zn103  1  0.62695832  0.87073281  0.74882826  1
  Zn  Zn104  1  0.62515889  0.62455617  0.50311153  1
  Zn  Zn105  1  0.62633556  0.75029115  0.87383564  1
  Zn  Zn106  1  0.12434232  -0.00039182  0.12687607  1
  Zn  Zn107  1  0.74851895  0.25051355  0.49917832  1
  Zn  Zn108  1  0.87429926  0.00015920  0.87398222  1
  Zn  Zn109  1  0.62486653  0.50194458  0.62341163  1
  Zn  Zn110  1  0.37959684  0.75085570  0.12325411  1
  Zn  Zn111  1  0.12877858  0.50130933  0.62410618  1
  Zn  Zn112  1  0.87308719  0.12650449  0.25114951  1
  Zn  Zn113  1  0.24968747  0.49974913  0.24940155  1
  Zn  Zn114  1  0.74838283  0.62342508  0.37455983  1
  Zn  Zn115  1  0.75011281  0.87376882  0.62636335  1
  Zn  Zn116  1  0.49896596  0.37410879  0.37653563  1
  Zn  Zn117  1  0.38023061  0.75242654  0.62276732  1
  Zn  Zn118  1  0.62610238  0.62727487  -0.00084692  1
  Zn  Zn119  1  -0.00158507  0.00021118  0.50012011  1
  Zn  Zn120  1  0.50524440  0.63041665  0.62583284  1
  Zn  Zn121  1  0.25110121  0.75076718  0.50183792  1
  Zn  Zn122  1  0.74869848  0.74890934  -0.00078493  1
  Zn  Zn123  1  0.00568234  0.62472758  0.62455863  1
  Zn  Zn124  1  0.37386636  0.87406886  0.50056422  1
  Zn  Zn125  1  0.50314502  0.75200156  0.24644769  1
  Zn  Zn126  1  0.87209602  0.24995654  0.12740523  1
  Zn  Zn127  1  0.12706648  0.62648532  0.50287839  1
  Zn  Zn128  1  0.18550755  0.18732046  0.18784956  1
  Zn  Zn129  1  0.18783221  0.18896541  0.68720926  1
  Zn  Zn130  1  0.18872794  0.68759203  0.18942414  1
  Zn  Zn131  1  0.18710648  0.68632564  0.68741553  1
  Zn  Zn132  1  0.68582356  0.18647955  0.18860578  1
  Zn  Zn133  1  0.68768034  0.18774364  0.68565366  1
  Zn  Zn134  1  0.68765130  0.68774194  0.18718075  1
  Zn  Zn135  1  0.68638324  0.68676317  0.68774597  1
  Zn  Zn136  1  0.31071180  0.31205382  0.31246041  1
  Zn  Zn137  1  0.31275296  0.31341721  0.81189641  1
  Zn  Zn138  1  0.31452484  0.81061788  0.31276070  1
  Zn  Zn139  1  0.31357633  0.81309172  0.81311526  1
  Zn  Zn140  1  0.81092077  0.31116899  0.31256430  1
  Zn  Zn141  1  0.81240386  0.31239278  0.81226090  1
  Zn  Zn142  1  0.81138312  0.81324329  0.31185102  1
  Zn  Zn143  1  0.81584704  0.81171167  0.81199658  1
  Zn  Zn144  1  0.18951071  0.43625943  0.43577638  1
  Zn  Zn145  1  0.18830403  0.43845852  0.93624047  1
  Zn  Zn146  1  0.18491458  0.93799547  0.43942798  1
  Zn  Zn147  1  0.18592955  0.93761654  0.93953917  1
  Zn  Zn148  1  0.68590187  0.43596694  0.43679995  1
  Zn  Zn149  1  0.68755870  0.43929708  0.93649560  1
  Zn  Zn150  1  0.68677595  0.93538066  0.43837163  1
  Zn  Zn151  1  0.68656281  0.93912268  0.93683292  1
  Zn  Zn152  1  0.31195496  0.05996183  0.06365048  1
  Zn  Zn153  1  0.31277315  0.06122367  0.56178786  1
  Zn  Zn154  1  0.31291766  0.56213066  0.06272258  1
  Zn  Zn155  1  0.31425922  0.56252540  0.56362106  1
  Zn  Zn156  1  0.81210311  0.06220525  0.06305166  1
  Zn  Zn157  1  0.81248289  0.06289050  0.56171586  1
  Zn  Zn158  1  0.81247112  0.56060930  0.06226388  1
  Zn  Zn159  1  0.81595081  0.56324663  0.56264361  1
  Zn  Zn160  1  0.43752289  0.43852708  0.18794163  1
  Zn  Zn161  1  0.43572194  0.43851012  0.68542009  1
  Zn  Zn162  1  0.43682593  0.93731694  0.19074741  1
  Zn  Zn163  1  0.43720879  0.93953956  0.68925868  1
  Zn  Zn164  1  0.93669526  0.43662311  0.18653674  1
  Zn  Zn165  1  0.93897041  0.43767934  0.68519845  1
  Zn  Zn166  1  0.93531901  0.93797599  0.18816747  1
  Zn  Zn167  1  0.93650765  0.93643042  0.68605572  1
  Zn  Zn168  1  0.06207784  0.06032081  0.31295521  1
  Zn  Zn169  1  0.06172302  0.06312884  0.81363705  1
  Zn  Zn170  1  0.06246377  0.56160182  0.31218831  1
  Zn  Zn171  1  0.06444934  0.56320265  0.81248300  1
  Zn  Zn172  1  0.56250705  0.06071548  0.31190740  1
  Zn  Zn173  1  0.56295068  0.06144440  0.81251847  1
  Zn  Zn174  1  0.56182906  0.56380221  0.31344603  1
  Zn  Zn175  1  0.56449799  0.56130377  0.81063043  1
  Zn  Zn176  1  0.43621985  0.18589173  0.43742598  1
  Zn  Zn177  1  0.43705420  0.18785403  0.93725942  1
  Zn  Zn178  1  0.43604132  0.69014344  0.44207247  1
  Zn  Zn179  1  0.43737396  0.69008591  0.93795058  1
  Zn  Zn180  1  0.93592799  0.18653788  0.43812152  1
  Zn  Zn181  1  0.93526546  0.18850624  0.93732135  1
  Zn  Zn182  1  0.93696977  0.68534423  0.43588647  1
  Zn  Zn183  1  0.93735794  0.68790729  0.93625719  1
  Zn  Zn184  1  0.06131491  0.31175195  0.06305398  1
  Zn  Zn185  1  0.06410597  0.31460557  0.56363880  1
  Zn  Zn186  1  0.06328897  0.81226975  0.06413343  1
  Zn  Zn187  1  0.06420319  0.81195219  0.56179530  1
  Zn  Zn188  1  0.56147369  0.31280165  0.06350985  1
  Zn  Zn189  1  0.56098637  0.31558300  0.56020221  1
  Zn  Zn190  1  0.56496880  0.80997798  0.05693707  1
  Zn  Zn191  1  0.56366545  0.81317359  0.56432103  1
  O  O192  1  0.11377324  0.12422893  0.11928674  1
  O  O193  1  0.11928462  0.12126234  0.62141651  1
  O  O194  1  0.11982657  0.61996738  0.12037117  1
  O  O195  1  0.12353217  0.61980330  0.62039503  1
  O  O196  1  0.61762199  0.11986699  0.11909051  1
  O  O197  1  0.61875058  0.12053296  0.61961077  1
  O  O198  1  0.61949654  0.61723418  0.12391595  1
  O  O199  1  0.62349641  0.61902506  0.62124871  1
  O  O200  1  0.37443394  0.38826683  0.37303310  1
  O  O201  1  0.38093335  0.37997007  0.88049328  1
  O  O202  1  0.38720800  0.87528038  0.37573949  1
  O  O203  1  0.38262467  0.88324702  0.87637435  1
  O  O204  1  0.88031874  0.37981208  0.37918763  1
  O  O205  1  0.88090627  0.37954305  0.88016861  1
  O  O206  1  0.88012023  0.87946442  0.37968768  1
  O  O207  1  0.87801242  0.87784808  0.88728647  1
  O  O208  1  0.24949636  0.00563040  0.36914581  1
  O  O209  1  0.25363812  0.00617360  0.87135475  1
  O  O210  1  0.25859648  0.50818957  0.37201795  1
  O  O211  1  0.25675864  0.50655541  0.87139369  1
  O  O212  1  0.75340288  0.00405515  0.36986396  1
  O  O213  1  0.75055184  0.00831442  0.86630269  1
  O  O214  1  0.75627759  0.50001180  0.36793506  1
  O  O215  1  0.75787130  0.50514279  0.86844512  1
  O  O216  1  0.24301895  0.49292196  0.12518659  1
  O  O217  1  0.25005398  0.49715564  0.63401953  1
  O  O218  1  0.24701912  0.99069741  0.13127558  1
  O  O219  1  0.24309712  0.99515480  0.63253810  1
  O  O220  1  0.74431468  0.49360231  0.13035139  1
  O  O221  1  0.75281717  0.49250600  0.63084477  1
  O  O222  1  0.74429627  0.99599086  0.12938660  1
  O  O223  1  0.74511476  1.00171324  0.63498851  1
  O  O224  1  0.00507179  0.36955634  0.25429709  1
  O  O225  1  0.00543028  0.37003248  0.75615404  1
  O  O226  1  0.00440353  0.86885226  0.25414095  1
  O  O227  1  0.00591872  0.86945344  0.75245014  1
  O  O228  1  0.50489341  0.36752133  0.25036012  1
  O  O229  1  0.50503494  0.37020945  0.75529771  1
  O  O230  1  0.50303153  0.87288082  0.26122152  1
  O  O231  1  0.50186671  0.87874540  0.76230379  1
  O  O232  1  0.49343016  0.12929143  0.24389240  1
  O  O233  1  0.49478208  0.13075022  0.74534791  1
  O  O234  1  0.49151624  0.62549854  0.24347464  1
  O  O235  1  0.48842666  0.62435504  0.75216824  1
  O  O236  1  1.00009138  0.12934471  0.24094360  1
  O  O237  1  0.99506017  0.13154955  0.74579759  1
  O  O238  1  0.99448439  0.62938650  0.24370183  1
  O  O239  1  0.99496189  0.63137544  0.75050263  1
  O  O240  1  0.36938805  0.25519900  0.00520613  1
  O  O241  1  0.36852113  0.24897654  0.50593177  1
  O  O242  1  0.36528135  0.75267461  0.00327286  1
  O  O243  1  0.36800100  0.75600692  0.50496039  1
  O  O244  1  0.86691094  0.25673577  0.00138296  1
  O  O245  1  0.87381431  0.25723200  0.50610940  1
  O  O246  1  0.87648535  0.76018134  0.00610159  1
  O  O247  1  0.86947800  0.75416071  0.50268605  1
  O  O248  1  0.12938852  0.24467491  0.49440050  1
  O  O249  1  0.13000549  0.24560204  0.99447586  1
  O  O250  1  0.12921737  0.74736746  0.49055672  1
  O  O251  1  0.12948141  0.74384854  0.99614383  1
  O  O252  1  0.62429152  0.24320952  0.49308658  1
  O  O253  1  0.62887214  0.24570959  0.99425594  1
  O  O254  1  0.63574968  0.75036407  0.49242044  1
  O  O255  1  0.63197093  0.74443482  0.99135379  1
  O  O256  1  0.49321735  0.24369125  0.12976523  1
  O  O257  1  0.49504637  0.24428807  0.63041460  1
  O  O258  1  0.49925870  0.74261730  0.12622541  1
  O  O259  1  0.49703428  0.74876329  0.63016657  1
  O  O260  1  0.99873386  0.24097686  0.12973433  1
  O  O261  1  0.99490335  0.24559058  0.63127415  1
  O  O262  1  0.99472104  0.74401692  0.13055191  1
  O  O263  1  0.99551783  0.74839435  0.63156500  1
  O  O264  1  0.00509279  0.25464036  0.37019446  1
  O  O265  1  0.00545549  0.25524330  0.87019652  1
  O  O266  1  0.00450623  0.75472760  0.36823628  1
  O  O267  1  0.00710356  0.75187738  0.86934151  1
  O  O268  1  0.50458050  0.24984308  0.36769401  1
  O  O269  1  0.50451403  0.25564171  0.86925878  1
  O  O270  1  0.50979869  0.75789587  0.37709377  1
  O  O271  1  0.49951459  0.76357516  0.87349553  1
  O  O272  1  0.24317965  0.12974505  0.49475674  1
  O  O273  1  0.24394655  0.12999575  0.99628728  1
  O  O274  1  0.25082716  0.62465181  0.48550850  1
  O  O275  1  0.24441415  0.62984788  0.99603994  1
  O  O276  1  0.74211349  0.12634184  0.49350016  1
  O  O277  1  0.74365236  0.13009068  0.99534702  1
  O  O278  1  0.75292170  0.63748342  0.49618274  1
  O  O279  1  0.75278470  0.62366074  0.98739719  1
  O  O280  1  0.25544927  0.36927744  0.00424784  1
  O  O281  1  0.25269050  0.36578996  0.50058281  1
  O  O282  1  0.24894090  0.87069375  0.01055724  1
  O  O283  1  0.24917247  0.87709727  0.51338419  1
  O  O284  1  0.75406474  0.37033175  0.00449627  1
  O  O285  1  0.75707544  0.37394894  0.50562304  1
  O  O286  1  0.76123322  0.87773160  0.00478969  1
  O  O287  1  0.75706365  0.86351711  0.50035610  1
  O  O288  1  0.12510878  0.49266750  0.24246840  1
  O  O289  1  0.13286069  0.49385785  0.75233077  1
  O  O290  1  0.13078340  0.99179785  0.24898793  1
  O  O291  1  0.12936625  0.99617684  0.74655329  1
  O  O292  1  0.62907696  0.49439763  0.24513601  1
  O  O293  1  0.63353627  0.49133267  0.74872801  1
  O  O294  1  0.63111868  0.99842536  0.24186053  1
  O  O295  1  0.63619457  1.00284688  0.74418526  1
  O  O296  1  0.36704968  0.00705443  0.25273506  1
  O  O297  1  0.36806807  0.00830395  0.75663635  1
  O  O298  1  0.37477993  0.50961738  0.25779879  1
  O  O299  1  0.37041324  0.50741669  0.75688393  1
  O  O300  1  0.86753207  0.00169311  0.25690053  1
  O  O301  1  0.86697096  0.00737328  0.75055920  1
  O  O302  1  0.86959518  0.50354736  0.25382704  1
  O  O303  1  0.87241201  0.50362075  0.75525669  1
  O  O304  1  0.11959144  0.36854392  0.36811217  1
  O  O305  1  0.11957485  0.36934611  0.87085449  1
  O  O306  1  0.11928989  0.86904849  0.36964116  1
  O  O307  1  0.12347937  0.86909521  0.86987781  1
  O  O308  1  0.62259952  0.36717577  0.36695883  1
  O  O309  1  0.61993329  0.36957445  0.86888752  1
  O  O310  1  0.61675202  0.86595746  0.37442317  1
  O  O311  1  0.61398188  0.87774765  0.87285257  1
  O  O312  1  0.37856107  0.13043941  0.13023176  1
  O  O313  1  0.38064030  0.12978754  0.63170671  1
  O  O314  1  0.38043954  0.62340937  0.13417360  1
  O  O315  1  0.37475638  0.62693817  0.63863857  1
  O  O316  1  0.88657157  0.12692798  0.12602930  1
  O  O317  1  0.88033073  0.13130197  0.63030171  1
  O  O318  1  0.88104698  0.62900568  0.12930898  1
  O  O319  1  0.88014291  0.63143421  0.63166199  1
  O  O320  1  0.25430676  0.25473117  0.11909138  1
  O  O321  1  0.25659925  0.24935767  0.61860813  1
  O  O322  1  0.25037356  0.75887282  0.12127798  1
  O  O323  1  0.24971098  0.76430826  0.62736303  1
  O  O324  1  0.74843916  0.25598393  0.11832986  1
  O  O325  1  0.75707479  0.25684327  0.62370096  1
  O  O326  1  0.75762600  0.75645140  0.12264578  1
  O  O327  1  0.75814256  0.75045029  0.61537160  1
  O  O328  1  0.24331862  0.24325186  0.37942490  1
  O  O329  1  0.24529142  0.24448403  0.88110952  1
  O  O330  1  0.24431147  0.74040308  0.37307130  1
  O  O331  1  0.24386262  0.74567503  0.88173112  1
  O  O332  1  0.74162415  0.24255865  0.37560765  1
  O  O333  1  0.74311218  0.24573292  0.88017686  1
  O  O334  1  0.74255792  0.75045562  0.38274873  1
  O  O335  1  0.75560430  0.73634627  0.87521560  1
  O  O336  1  0.00281233  0.11941407  0.00706068  1
  O  O337  1  0.00623387  0.12457463  0.50747804  1
  O  O338  1  0.00530594  0.61939316  0.00521812  1
  O  O339  1  0.00196129  0.61214845  0.49749357  1
  O  O340  1  0.50440683  0.12110252  0.00530959  1
  O  O341  1  0.50523508  0.11908942  0.50562171  1
  O  O342  1  0.50021892  0.61720645  0.00495907  1
  O  O343  1  0.49986145  0.61381604  0.50108156  1
  O  O344  1  0.49515531  0.38636267  0.49588856  1
  O  O345  1  0.49422241  0.37967098  0.99440255  1
  O  O346  1  0.50064085  0.88156010  0.49107663  1
  O  O347  1  0.49824583  0.88284336  0.99084653  1
  O  O348  1  0.99521426  0.38161939  0.49337723  1
  O  O349  1  0.99518874  0.37965595  0.99441860  1
  O  O350  1  0.99386746  0.87560305  0.49243965  1
  O  O351  1  0.99225257  0.88426917  1.00302996  1
  O  O352  1  0.49013959  0.50048332  0.38172378  1
  O  O353  1  0.49542308  0.49363141  0.88009703  1
  O  O354  1  0.50117540  0.99028475  0.38082819  1
  O  O355  1  0.49477335  0.99535956  0.88016741  1
  O  O356  1  0.99471495  0.49306007  0.38030975  1
  O  O357  1  0.99595136  0.49452441  0.88083142  1
  O  O358  1  0.99261394  0.99249648  0.37609097  1
  O  O359  1  0.99715778  1.00046113  0.88855130  1
  O  O360  1  0.00036991  0.00834157  0.11684768  1
  O  O361  1  0.00594444  0.00765400  0.62493217  1
  O  O362  1  0.00523915  0.50487751  0.11886082  1
  O  O363  1  0.00198780  0.50007216  0.61159383  1
  O  O364  1  0.50363703  0.00516046  0.11999274  1
  O  O365  1  0.50557244  0.00646422  0.62096515  1
  O  O366  1  0.50507189  0.50466013  0.11927073  1
  O  O367  1  0.49939147  0.50215969  0.61341437  1
  O  O368  1  0.24271550  0.37545936  0.24223803  1
  O  O369  1  0.24421896  0.38209461  0.75204665  1
  O  O370  1  0.24520126  0.87818144  0.24426560  1
  O  O371  1  0.24352699  0.88208352  0.74497925  1
  O  O372  1  0.74300620  0.37971659  0.24401863  1
  O  O373  1  0.74597179  0.37935516  0.74476370  1
  O  O374  1  0.74880143  0.88198498  0.24174152  1
  O  O375  1  0.75242916  0.88889154  0.75059028  1
  O  O376  1  0.25273819  0.11971299  0.25458085  1
  O  O377  1  0.25420262  0.12082314  0.75697597  1
  O  O378  1  0.25902874  0.62281155  0.25798220  1
  O  O379  1  0.25759994  0.62017560  0.75783792  1
  O  O380  1  0.75017830  0.11782262  0.25632570  1
  O  O381  1  0.75482206  0.11913782  0.75465925  1
  O  O382  1  0.75695209  0.61697856  0.25005507  1
  O  O383  1  0.75947903  0.61815973  0.75714360  1
  O  O384  1  0.36661536  0.12330683  0.36772379  1
  O  O385  1  0.36897559  0.12100420  0.87018834  1
  O  O386  1  0.36882034  0.61833134  0.36710614  1
  O  O387  1  0.36989062  0.61973286  0.86904134  1
  O  O388  1  0.86773370  0.11789042  0.37456576  1
  O  O389  1  0.86754994  0.12491932  0.86831004  1
  O  O390  1  0.87384399  0.61737089  0.36568417  1
  O  O391  1  0.87023732  0.61796792  0.86931052  1
  O  O392  1  0.12954638  0.37940336  0.12861277  1
  O  O393  1  0.12844249  0.37795790  0.63460468  1
  O  O394  1  0.13471156  0.87496969  0.13225632  1
  O  O395  1  0.13161250  0.88157635  0.63208480  1
  O  O396  1  0.62910470  0.38037640  0.13050514  1
  O  O397  1  0.63201019  0.37640040  0.63108020  1
  O  O398  1  0.63158641  0.88223029  0.12310702  1
  O  O399  1  0.63033774  0.88520865  0.62826516  1
  O  O400  1  0.11863217  0.25527755  0.25566450  1
  O  O401  1  0.11975212  0.25500901  0.75665976  1
  O  O402  1  0.11825167  0.75443658  0.25574703  1
  O  O403  1  0.12054967  0.75543720  0.75679296  1
  O  O404  1  0.61739410  0.25411315  0.25445003  1
  O  O405  1  0.61921538  0.25489610  0.75497678  1
  O  O406  1  0.62516315  0.75226055  0.26181420  1
  O  O407  1  0.62498465  0.75386475  0.75705367  1
  O  O408  1  0.37812158  0.24395912  0.24390176  1
  O  O409  1  0.38072400  0.24447212  0.74599393  1
  O  O410  1  0.37858270  0.73660887  0.24869056  1
  O  O411  1  0.37580313  0.73845605  0.75097301  1
  O  O412  1  0.88248515  0.24750498  0.24784494  1
  O  O413  1  0.88111959  0.24571447  0.74482305  1
  O  O414  1  0.88030966  0.74461380  0.24418615  1
  O  O415  1  0.88190274  0.74485464  0.74406134  1
  O  O416  1  0.38148902  0.50039125  0.48973124  1
  O  O417  1  0.38048689  0.49408222  0.99448348  1
  O  O418  1  0.38389457  0.99729705  0.49739521  1
  O  O419  1  0.38094869  0.99972531  0.99343986  1
  O  O420  1  0.88384933  0.49419026  0.49329671  1
  O  O421  1  0.88163854  0.49325836  0.99446656  1
  O  O422  1  0.87535124  0.99259815  0.49362327  1
  O  O423  1  0.88301687  0.99233956  1.00036758  1
  O  O424  1  0.11467890  0.00635306  0.00274882  1
  O  O425  1  0.12166597  0.00804727  0.50779089  1
  O  O426  1  0.11949490  0.50526776  0.00470168  1
  O  O427  1  0.11398686  0.49940813  0.49707906  1
  O  O428  1  0.61897037  0.00787363  0.00530980  1
  O  O429  1  0.61987065  0.00577916  0.50614889  1
  O  O430  1  0.61852595  0.50056019  0.00651058  1
  O  O431  1  0.61388538  0.50143889  0.49836502  1
  O  O432  1  0.36961749  0.36954671  0.11949578  1
  O  O433  1  0.37207660  0.36493739  0.62378699  1
  O  O434  1  0.36243316  0.87352465  0.12575469  1
  O  O435  1  0.36136819  0.87810070  0.62815834  1
  O  O436  1  0.86732378  0.37404687  0.11792568  1
  O  O437  1  0.87062811  0.36925284  0.61972009  1
  O  O438  1  0.87029998  0.87033998  0.11702293  1
  O  O439  1  0.87325806  0.86733692  0.61776274  1
  O  O440  1  0.12893622  0.13036731  0.38019410  1
  O  O441  1  0.13001125  0.13129291  0.88096251  1
  O  O442  1  0.13514625  0.62933746  0.37212303  1
  O  O443  1  0.13129844  0.63064478  0.88208138  1
  O  O444  1  0.62899861  0.12906691  0.38000718  1
  O  O445  1  0.62894174  0.13167532  0.88070743  1
  O  O446  1  0.62682073  0.63675015  0.37817557  1
  O  O447  1  0.64031574  0.62130343  0.87460554  1
