# generated using pymatgen
data_V3Zn3O8
_symmetry_space_group_name_H-M   'P 1'
_cell_length_a   17.08737751
_cell_length_b   17.08751195
_cell_length_c   17.08662757
_cell_angle_alpha   89.99425756
_cell_angle_beta   90.00301393
_cell_angle_gamma   90.01612524
_symmetry_Int_Tables_number   1
_chemical_formula_structural   V3Zn3O8
_chemical_formula_sum   'V96 Zn96 O256'
_cell_volume   4988.96640183
_cell_formula_units_Z   32
loop_
 _symmetry_equiv_pos_site_id
 _symmetry_equiv_pos_as_xyz
  1  'x, y, z'
loop_
 _atom_site_type_symbol
 _atom_site_label
 _atom_site_symmetry_multiplicity
 _atom_site_fract_x
 _atom_site_fract_y
 _atom_site_fract_z
 _atom_site_occupancy
  V  V0  1  0.37535894  0.62613463  0.74867788  1
  V  V1  1  0.12483269  0.62719891  0.49948722  1
  V  V2  1  0.87562616  -0.00045010  0.87571406  1
  V  V3  1  0.25039404  0.50101822  0.74942502  1
  V  V4  1  0.12657623  0.24991112  0.87469330  1
  V  V5  1  0.50003204  -0.00191153  -0.00053605  1
  V  V6  1  0.00042050  0.87519055  0.87678758  1
  V  V7  1  0.24978716  0.62626279  0.37476134  1
  V  V8  1  0.25037877  0.25011196  -0.00082608  1
  V  V9  1  0.50003491  0.62454608  0.12486767  1
  V  V10  1  0.12495651  0.50166818  0.62484566  1
  V  V11  1  0.12481128  0.37443802  0.25100273  1
  V  V12  1  0.24994542  0.37584070  0.62408290  1
  V  V13  1  0.37546049  0.49991497  0.87491951  1
  V  V14  1  0.49992729  0.24912598  0.75026889  1
  V  V15  1  0.87466255  0.74966778  0.12387765  1
  V  V16  1  0.00028823  0.37497067  0.37453155  1
  V  V17  1  0.49965018  0.49991173  0.00014732  1
  V  V18  1  0.49887164  0.00137763  0.49984664  1
  V  V19  1  0.62446764  0.87477689  0.24971820  1
  V  V20  1  0.87426667  0.50002144  0.37488591  1
  V  V21  1  0.24874888  0.12609438  0.37530444  1
  V  V22  1  0.12592967  0.62480265  -0.00001979  1
  V  V23  1  0.62462729  0.87436681  0.74976724  1
  V  V24  1  0.87605738  0.12609843  0.75028534  1
  V  V25  1  0.87493724  0.62371838  0.75008837  1
  V  V26  1  0.37437092  0.00040766  0.37546366  1
  V  V27  1  0.12519122  0.37540395  0.74979916  1
  V  V28  1  0.87526127  0.62401821  0.24935863  1
  V  V29  1  0.62322397  0.50105380  0.62341155  1
  V  V30  1  0.00009462  0.75077198  0.25096340  1
  V  V31  1  0.00040027  0.49848742  -0.00069802  1
  V  V32  1  0.00046454  0.37598980  0.87582989  1
  V  V33  1  0.49922468  0.37695190  0.37621396  1
  V  V34  1  0.49981294  0.24957894  0.24956861  1
  V  V35  1  0.74995359  0.49935214  0.75083221  1
  V  V36  1  0.25179461  0.75078968  0.00095062  1
  V  V37  1  0.87390652  -0.00109696  0.37594576  1
  V  V38  1  0.12554125  0.50025660  0.12563880  1
  V  V39  1  0.62656283  0.37447314  0.75024777  1
  V  V40  1  0.25012223  0.62582285  0.87487164  1
  V  V41  1  0.75063987  0.62420124  0.87512055  1
  V  V42  1  0.87510440  0.24888414  0.12533636  1
  V  V43  1  0.62496926  0.49955746  0.12383037  1
  V  V44  1  0.12634013  0.87579476  0.75081800  1
  V  V45  1  0.75081838  0.24991952  0.00062265  1
  V  V46  1  0.75048804  0.24903465  0.50029600  1
  V  V47  1  0.37548817  0.24955188  0.12494311  1
  V  V48  1  0.62581081  0.12400608  0.00020643  1
  V  V49  1  0.37506750  0.37535659  -0.00004428  1
  V  V50  1  0.25085547  0.50148937  0.25126591  1
  V  V51  1  0.75133683  0.87370062  0.12398000  1
  V  V52  1  0.87261175  0.87394292  0.50160283  1
  V  V53  1  0.74830238  0.62494047  0.37433597  1
  V  V54  1  0.24958408  0.87578135  0.12528499  1
  V  V55  1  0.25030689  0.37551345  0.12597934  1
  V  V56  1  0.24942209  0.87636707  0.62502873  1
  V  V57  1  0.37450627  0.12548578  0.24921367  1
  V  V58  1  -0.00144660  -0.00047905  0.50145348  1
  V  V59  1  0.75106270  0.12481160  0.87472393  1
  V  V60  1  0.37522271  0.75068552  0.62529339  1
  V  V61  1  0.87548736  0.12454555  0.25036488  1
  V  V62  1  0.00079600  0.25027738  0.74904905  1
  V  V63  1  0.24827907  0.25083882  0.49883899  1
  V  V64  1  0.74919213  0.87435599  0.62560387  1
  V  V65  1  -0.00039975  0.24955901  0.25039426  1
  V  V66  1  0.49995231  0.74968211  0.24834087  1
  V  V67  1  0.12438043  0.12389170  0.00123864  1
  V  V68  1  0.62540617  0.74945335  0.87426678  1
  V  V69  1  0.74896866  0.12432526  0.37587951  1
  V  V70  1  0.87438686  0.37422716  0.50022839  1
  V  V71  1  0.87357202  0.74975816  0.62569704  1
  V  V72  1  0.87547550  0.24982414  0.62511125  1
  V  V73  1  0.37454141  0.62594493  0.25006182  1
  V  V74  1  0.37553416  0.24985015  0.62517539  1
  V  V75  1  0.75033722  0.74882203  -0.00029357  1
  V  V76  1  0.49998411  0.74934075  0.74954998  1
  V  V77  1  0.12559925  0.75072287  0.87472117  1
  V  V78  1  0.62494989  0.37314686  0.24977897  1
  V  V79  1  0.62535121  -0.00030209  0.12466291  1
  V  V80  1  0.37478372  0.00051002  0.87376526  1
  V  V81  1  0.00056163  0.62513053  0.12490559  1
  V  V82  1  0.62490866  0.74941064  0.37593085  1
  V  V83  1  -0.00146652  0.62595176  0.62547924  1
  V  V84  1  -0.00087747  0.50090042  0.49992365  1
  V  V85  1  0.37432900  0.87656785  0.49941213  1
  V  V86  1  -0.00117875  0.87363849  0.37458839  1
  V  V87  1  0.62421166  -0.00031962  0.62520658  1
  V  V88  1  0.75028533  0.49842673  0.24877651  1
  V  V89  1  0.62524066  0.24961280  0.87464390  1
  V  V90  1  0.74956546  -0.00040169  0.25010772  1
  V  V91  1  0.12395602  0.00149605  0.62533573  1
  V  V92  1  0.24843337  -0.00012958  0.24934302  1
  V  V93  1  0.62485022  0.12488534  0.50064244  1
  V  V94  1  0.75073785  0.37367176  0.12440010  1
  V  V95  1  0.24935027  0.75057981  0.49919258  1
  Zn  Zn96  1  -0.00028058  0.74898616  0.75059430  1
  Zn  Zn97  1  0.12373630  0.87611335  0.25107197  1
  Zn  Zn98  1  0.37551633  0.50155948  0.37826433  1
  Zn  Zn99  1  0.37592111  0.37813964  0.49882480  1
  Zn  Zn100  1  0.50013965  0.37503056  0.87634880  1
  Zn  Zn101  1  0.75036831  0.37520785  0.62461983  1
  Zn  Zn102  1  0.49765098  0.50234775  0.49978487  1
  Zn  Zn103  1  0.49977095  0.87320246  0.87483864  1
  Zn  Zn104  1  0.00087579  0.00109685  0.00331374  1
  Zn  Zn105  1  0.50009274  0.12441580  0.12588476  1
  Zn  Zn106  1  0.00009670  0.12529609  0.62421426  1
  Zn  Zn107  1  0.25209347  0.00319096  0.75023006  1
  Zn  Zn108  1  0.49883820  0.87518040  0.37352536  1
  Zn  Zn109  1  0.49898608  0.62491811  0.62082796  1
  Zn  Zn110  1  0.62299172  0.62375130  0.49968328  1
  Zn  Zn111  1  0.12159015  0.00032565  0.12668794  1
  Zn  Zn112  1  0.74784102  0.74742366  0.50122386  1
  Zn  Zn113  1  0.49995279  0.12527167  0.62458968  1
  Zn  Zn114  1  0.87626284  0.87522858  0.00046215  1
  Zn  Zn115  1  0.37589473  0.87340180  -0.00067000  1
  Zn  Zn116  1  0.37636296  0.75096908  0.12332206  1
  Zn  Zn117  1  0.37323232  0.12479358  0.75084145  1
  Zn  Zn118  1  0.00023765  0.12245205  0.12616291  1
  Zn  Zn119  1  0.12183639  0.12557123  0.49931433  1
  Zn  Zn120  1  0.25099787  0.12494114  0.87305502  1
  Zn  Zn121  1  0.87588938  0.37463456  -0.00109915  1
  Zn  Zn122  1  0.74846252  0.00024729  0.75022408  1
  Zn  Zn123  1  0.62468331  0.24926849  0.37582808  1
  Zn  Zn124  1  0.12349340  0.24872802  0.37543776  1
  Zn  Zn125  1  0.62495023  0.62385015  -0.00098927  1
  Zn  Zn126  1  0.87477065  0.49835895  0.87621530  1
  Zn  Zn127  1  0.12447306  0.75239873  0.37395087  1
  Zn  Zn128  1  0.18697101  0.18809549  0.18695118  1
  Zn  Zn129  1  0.18941358  0.18504408  0.68889390  1
  Zn  Zn130  1  0.18693078  0.69054259  0.18825007  1
  Zn  Zn131  1  0.18746811  0.68948825  0.68741565  1
  Zn  Zn132  1  0.68713081  0.18656141  0.18757467  1
  Zn  Zn133  1  0.68910339  0.18638547  0.68661150  1
  Zn  Zn134  1  0.68667976  0.68626401  0.18734243  1
  Zn  Zn135  1  0.68754227  0.68599762  0.68820149  1
  Zn  Zn136  1  0.31404119  0.31328818  0.31274634  1
  Zn  Zn137  1  0.31265537  0.31349176  0.81257708  1
  Zn  Zn138  1  0.31266233  0.81253976  0.31180612  1
  Zn  Zn139  1  0.31344863  0.81599995  0.81291959  1
  Zn  Zn140  1  0.81260454  0.31106916  0.31342376  1
  Zn  Zn141  1  0.81364593  0.31359962  0.81292758  1
  Zn  Zn142  1  0.81204320  0.81175430  0.31178685  1
  Zn  Zn143  1  0.81186748  0.81155033  0.81101922  1
  Zn  Zn144  1  0.18719914  0.43868859  0.43681004  1
  Zn  Zn145  1  0.18788238  0.43741288  0.93754704  1
  Zn  Zn146  1  0.18558167  0.93775033  0.43707596  1
  Zn  Zn147  1  0.18961195  0.93872550  0.93894774  1
  Zn  Zn148  1  0.68624470  0.43585224  0.43782140  1
  Zn  Zn149  1  0.68707787  0.43635911  0.93715791  1
  Zn  Zn150  1  0.68637946  0.93593383  0.43885270  1
  Zn  Zn151  1  0.68850710  0.93522232  0.93679969  1
  Zn  Zn152  1  0.31153059  0.06259672  0.06170004  1
  Zn  Zn153  1  0.31083406  0.06483976  0.56237309  1
  Zn  Zn154  1  0.31400952  0.56346475  0.06380072  1
  Zn  Zn155  1  0.31417060  0.56300280  0.56019084  1
  Zn  Zn156  1  0.81312727  0.06264618  0.06267818  1
  Zn  Zn157  1  0.81135761  0.06236981  0.56461240  1
  Zn  Zn158  1  0.81351085  0.56153952  0.06031481  1
  Zn  Zn159  1  0.80867885  0.56306767  0.56224606  1
  Zn  Zn160  1  0.43719777  0.43835940  0.18926038  1
  Zn  Zn161  1  0.43883334  0.43591581  0.68801946  1
  Zn  Zn162  1  0.43589512  0.93722332  0.18684263  1
  Zn  Zn163  1  0.43943415  0.93684522  0.68783107  1
  Zn  Zn164  1  0.93744172  0.43594646  0.18608378  1
  Zn  Zn165  1  0.93670818  0.43740587  0.68755640  1
  Zn  Zn166  1  0.93829776  0.93763177  0.18692665  1
  Zn  Zn167  1  0.93803696  0.93637181  0.69005861  1
  Zn  Zn168  1  0.06340514  0.06209009  0.31399547  1
  Zn  Zn169  1  0.06248118  0.06364100  0.81325858  1
  Zn  Zn170  1  0.06339631  0.56338640  0.31327891  1
  Zn  Zn171  1  0.06198863  0.56259877  0.81248015  1
  Zn  Zn172  1  0.56104643  0.06301273  0.31375942  1
  Zn  Zn173  1  0.56163114  0.06262006  0.81221144  1
  Zn  Zn174  1  0.56222992  0.56211183  0.31046108  1
  Zn  Zn175  1  0.56215276  0.56338401  0.81141950  1
  Zn  Zn176  1  0.43724939  0.18882557  0.43680757  1
  Zn  Zn177  1  0.43840446  0.18515747  0.93769675  1
  Zn  Zn178  1  0.43870462  0.68637265  0.43780801  1
  Zn  Zn179  1  0.43803171  0.68712160  0.93773385  1
  Zn  Zn180  1  0.93771712  0.18599802  0.43774810  1
  Zn  Zn181  1  0.93938366  0.18869738  0.93757879  1
  Zn  Zn182  1  0.93550314  0.68853111  0.43818754  1
  Zn  Zn183  1  0.93703883  0.68684612  0.93714899  1
  Zn  Zn184  1  0.06238686  0.31073158  0.06351714  1
  Zn  Zn185  1  0.06205862  0.31366273  0.56303689  1
  Zn  Zn186  1  0.06456187  0.81239322  0.06293981  1
  Zn  Zn187  1  0.06093133  0.81292644  0.56281271  1
  Zn  Zn188  1  0.56210621  0.31245909  0.06259753  1
  Zn  Zn189  1  0.56415465  0.31408861  0.56220501  1
  Zn  Zn190  1  0.56475496  0.81147425  0.06175937  1
  Zn  Zn191  1  0.55995451  0.81418391  0.56174993  1
  O  O192  1  0.12406809  0.12552747  0.11348554  1
  O  O193  1  0.12346755  0.11242639  0.62361754  1
  O  O194  1  0.12004447  0.61977321  0.11974033  1
  O  O195  1  0.11961653  0.62046082  0.61988701  1
  O  O196  1  0.62499086  0.11688094  0.11812521  1
  O  O197  1  0.62418930  0.11792447  0.61825036  1
  O  O198  1  0.61856407  0.61653511  0.12450824  1
  O  O199  1  0.62365057  0.61330230  0.62512433  1
  O  O200  1  0.38680250  0.37739727  0.37427485  1
  O  O201  1  0.37539361  0.38260113  0.88197894  1
  O  O202  1  0.37485297  0.88267232  0.38179770  1
  O  O203  1  0.37927647  0.88594797  0.87841278  1
  O  O204  1  0.88056519  0.38135579  0.37983578  1
  O  O205  1  0.88504455  0.37690280  0.87752096  1
  O  O206  1  0.87779124  0.88018459  0.38089541  1
  O  O207  1  0.88312110  0.88237247  0.87404702  1
  O  O208  1  0.25547028  0.00574392  0.37046538  1
  O  O209  1  0.26292910  0.00037630  0.87451624  1
  O  O210  1  0.24993173  0.50777827  0.36796596  1
  O  O211  1  0.25475321  0.50604719  0.86914152  1
  O  O212  1  0.75458156  0.00398103  0.36988423  1
  O  O213  1  0.75956523  0.00535726  0.87411654  1
  O  O214  1  0.75487575  0.50380749  0.36787922  1
  O  O215  1  0.75052018  0.50609477  0.86884764  1
  O  O216  1  0.24432295  0.49519407  0.13062061  1
  O  O217  1  0.24408311  0.49613474  0.63020737  1
  O  O218  1  0.24966916  0.99139239  0.13062258  1
  O  O219  1  0.24005626  0.99436222  0.62397454  1
  O  O220  1  0.74579867  0.49392091  0.12972495  1
  O  O221  1  0.74070728  0.49818014  0.63219011  1
  O  O222  1  0.74546182  0.99407196  0.13017092  1
  O  O223  1  0.74255889  0.99265434  0.62733801  1
  O  O224  1  0.00483615  0.37050386  0.25547987  1
  O  O225  1  0.00697568  0.37080935  0.75475146  1
  O  O226  1  -0.00181434  0.86796933  0.25725809  1
  O  O227  1  0.00626574  0.87294473  0.76227810  1
  O  O228  1  0.50534513  0.36953240  0.25588981  1
  O  O229  1  0.50619198  0.36327760  0.75257401  1
  O  O230  1  0.50692691  0.86910925  0.25023809  1
  O  O231  1  0.50750593  0.86656609  0.75108947  1
  O  O232  1  0.49250953  0.13094582  0.24899233  1
  O  O233  1  0.49929739  0.13932974  0.74730020  1
  O  O234  1  0.49452121  0.62987901  0.24404594  1
  O  O235  1  0.49172801  0.63172302  0.74739590  1
  O  O236  1  0.99236018  0.13142443  0.25150122  1
  O  O237  1  0.99403640  0.13323326  0.74901635  1
  O  O238  1  0.99420103  0.62896690  0.24419488  1
  O  O239  1  0.99410552  0.62541108  0.74291002  1
  O  O240  1  0.37080888  0.25525439  0.00476930  1
  O  O241  1  0.36559224  0.25278342  0.50859131  1
  O  O242  1  0.36734481  0.75205629  0.00166507  1
  O  O243  1  0.36918472  0.75641080  0.50527774  1
  O  O244  1  0.86798730  0.24994777  0.00665253  1
  O  O245  1  0.87066114  0.25475166  0.50510153  1
  O  O246  1  0.86885947  0.75065878  0.00679645  1
  O  O247  1  0.87180049  0.75653607  0.50733512  1
  O  O248  1  0.13686604  0.24944694  0.50074720  1
  O  O249  1  0.13097302  0.24431756  0.99488212  1
  O  O250  1  0.13129662  0.74417739  0.50023648  1
  O  O251  1  0.13131686  0.74316591  0.99427237  1
  O  O252  1  0.63248667  0.24293729  0.49971041  1
  O  O253  1  0.63010084  0.24399990  0.99507583  1
  O  O254  1  0.62485870  0.75134831  0.48612454  1
  O  O255  1  0.63238900  0.74733677  0.99278341  1
  O  O256  1  0.49307328  0.24828616  0.13110004  1
  O  O257  1  0.49167556  0.25170859  0.63250570  1
  O  O258  1  0.50073329  0.74305722  0.13063820  1
  O  O259  1  0.49230235  0.74975072  0.63147245  1
  O  O260  1  0.99274757  0.24885881  0.13325327  1
  O  O261  1  0.99415012  0.24941704  0.63145091  1
  O  O262  1  0.99477721  0.74415794  0.12936246  1
  O  O263  1  0.99244968  0.74345680  0.62687198  1
  O  O264  1  -0.00005967  0.25752716  0.36920172  1
  O  O265  1  0.00716106  0.25657626  0.86844212  1
  O  O266  1  -0.00200826  0.75585958  0.36863082  1
  O  O267  1  0.00654550  0.75859269  0.87472119  1
  O  O268  1  0.50102106  0.25914543  0.36783568  1
  O  O269  1  0.50606880  0.25055762  0.86671377  1
  O  O270  1  0.50988723  0.75129695  0.36714071  1
  O  O271  1  0.50701542  0.75018614  0.86848639  1
  O  O272  1  0.24903729  0.13626778  0.49448056  1
  O  O273  1  0.24150125  0.13280310  0.99812553  1
  O  O274  1  0.24416609  0.63139936  0.49503967  1
  O  O275  1  0.24480348  0.62928779  0.99451373  1
  O  O276  1  0.74512495  0.12886436  0.49449319  1
  O  O277  1  0.74481044  0.13018167  0.99428932  1
  O  O278  1  0.74487886  0.62742959  0.48975078  1
  O  O279  1  0.74856874  0.63073022  0.99364005  1
  O  O280  1  0.25510058  0.37074842  0.00674983  1
  O  O281  1  0.24987287  0.36646931  0.50545673  1
  O  O282  1  0.25044163  0.86899343  0.00899593  1
  O  O283  1  0.25481080  0.87038573  0.50542539  1
  O  O284  1  0.75068565  0.36720007  0.00678161  1
  O  O285  1  0.75777547  0.36766294  0.49975816  1
  O  O286  1  0.75219907  0.86732580  0.00678323  1
  O  O287  1  0.75592470  0.87267845  0.50728686  1
  O  O288  1  0.13010984  0.49509808  0.24419958  1
  O  O289  1  0.13108028  0.49570373  0.74420852  1
  O  O290  1  0.13394618  0.99810155  0.24817745  1
  O  O291  1  0.12467192  0.99431083  0.74061280  1
  O  O292  1  0.63151164  0.49318362  0.24318677  1
  O  O293  1  0.62977695  0.49435529  0.74361212  1
  O  O294  1  0.63019574  0.99533025  0.24491115  1
  O  O295  1  0.62463515  0.99341164  0.74365971  1
  O  O296  1  0.36918690  0.00605466  0.25553467  1
  O  O297  1  0.37800636  0.00204429  0.76053988  1
  O  O298  1  0.36723270  0.50771377  0.25121941  1
  O  O299  1  0.36906184  0.50486566  0.75421959  1
  O  O300  1  0.86822591  0.00450763  0.25648112  1
  O  O301  1  0.87481912  0.00579045  0.76164747  1
  O  O302  1  0.87025617  0.50442288  0.25481398  1
  O  O303  1  0.86808942  0.50607150  0.75060896  1
  O  O304  1  0.11771812  0.37438637  0.36847947  1
  O  O305  1  0.12112304  0.37018884  0.86855099  1
  O  O306  1  0.11428955  0.87301990  0.37388167  1
  O  O307  1  0.11864680  0.87141331  0.87140231  1
  O  O308  1  0.61727419  0.37249199  0.36731048  1
  O  O309  1  0.62309839  0.36676874  0.86844516  1
  O  O310  1  0.62528871  0.86593379  0.36759564  1
  O  O311  1  0.62458366  0.86739005  0.86766053  1
  O  O312  1  0.37533925  0.13203564  0.13136214  1
  O  O313  1  0.37632585  0.13933240  0.62630958  1
  O  O314  1  0.38198369  0.62681492  0.13212102  1
  O  O315  1  0.37329796  0.63321203  0.63225127  1
  O  O316  1  0.87455396  0.13117718  0.13316152  1
  O  O317  1  0.87646035  0.13111130  0.63249834  1
  O  O318  1  0.88111348  0.62935489  0.13035275  1
  O  O319  1  0.87920907  0.62941101  0.62955250  1
  O  O320  1  0.25594111  0.25710901  0.11959182  1
  O  O321  1  0.25633268  0.25539080  0.61849868  1
  O  O322  1  0.25081318  0.75856674  0.11938365  1
  O  O323  1  0.25520724  0.75665596  0.61920062  1
  O  O324  1  0.75489189  0.25443066  0.12026411  1
  O  O325  1  0.75778568  0.25148724  0.61820713  1
  O  O326  1  0.75507027  0.75379975  0.12065943  1
  O  O327  1  0.75534469  0.75615068  0.62371698  1
  O  O328  1  0.25063544  0.24632332  0.38463259  1
  O  O329  1  0.24374841  0.25140331  0.88191987  1
  O  O330  1  0.24799687  0.74429738  0.38186630  1
  O  O331  1  0.24501494  0.74527042  0.88012811  1
  O  O332  1  0.74954090  0.24185755  0.38189434  1
  O  O333  1  0.74501379  0.24423552  0.88057568  1
  O  O334  1  0.74007910  0.74374269  0.37253204  1
  O  O335  1  0.74548643  0.74417228  0.87983050  1
  O  O336  1  0.01217764  0.12620581  0.00139282  1
  O  O337  1  0.00122290  0.11569996  0.50311960  1
  O  O338  1  0.00694628  0.61993999  0.00559391  1
  O  O339  1  0.00393439  0.61954682  0.50540144  1
  O  O340  1  0.50763016  0.11434647  0.00203407  1
  O  O341  1  0.50634100  0.11994038  0.50079717  1
  O  O342  1  0.50136465  0.61727282  0.00680476  1
  O  O343  1  0.50520916  0.62116859  0.50299231  1
  O  O344  1  0.50003458  0.37476478  0.48732290  1
  O  O345  1  0.49246069  0.38147223  0.99930681  1
  O  O346  1  0.49153347  0.88293928  0.49712170  1
  O  O347  1  0.50071167  0.88731066  0.99921039  1
  O  O348  1  0.99481274  0.38163003  0.49453768  1
  O  O349  1  1.00184587  0.38065754  0.99384769  1
  O  O350  1  0.99171334  0.88010913  0.49532717  1
  O  O351  1  0.99985688  0.87611634  0.98729542  1
  O  O352  1  0.50018799  0.48805175  0.37314930  1
  O  O353  1  0.49284233  0.49891482  0.88081420  1
  O  O354  1  0.49196992  0.99853777  0.38143556  1
  O  O355  1  0.49452427  0.99930809  0.88452651  1
  O  O356  1  0.99385177  0.49561025  0.38037873  1
  O  O357  1  1.00176341  0.49344582  0.88189157  1
  O  O358  1  0.99221619  0.99376656  0.38070566  1
  O  O359  1  0.99230270  0.99163159  0.87609468  1
  O  O360  1  0.00264511  0.00340004  0.12078056  1
  O  O361  1  0.00875770  -0.00150222  0.62069723  1
  O  O362  1  0.00647061  0.50547169  0.12065422  1
  O  O363  1  0.00539255  0.50563399  0.61908039  1
  O  O364  1  0.50614203  0.00086582  0.11597028  1
  O  O365  1  0.50572860  0.00243555  0.61756683  1
  O  O366  1  0.50543552  0.50418624  0.12024909  1
  O  O367  1  0.51148726  0.50000019  0.62614384  1
  O  O368  1  0.24497083  0.38064321  0.24504894  1
  O  O369  1  0.24430165  0.38143576  0.74408567  1
  O  O370  1  0.24937326  0.88068885  0.24165928  1
  O  O371  1  0.24366674  0.87843918  0.74256508  1
  O  O372  1  0.74544188  0.37933065  0.24481867  1
  O  O373  1  0.74374127  0.38076043  0.74903016  1
  O  O374  1  0.74473420  0.88067521  0.24381768  1
  O  O375  1  0.74261292  0.87660021  0.74338891  1
  O  O376  1  0.25546326  0.12104225  0.25539811  1
  O  O377  1  0.25490746  0.12109092  0.75491061  1
  O  O378  1  0.25392997  0.62118152  0.25455510  1
  O  O379  1  0.25456847  0.62027543  0.75550447  1
  O  O380  1  0.75495495  0.11852528  0.25588686  1
  O  O381  1  0.75746074  0.12361758  0.75789911  1
  O  O382  1  0.75635560  0.61770657  0.25372513  1
  O  O383  1  0.75586297  0.61888546  0.75596792  1
  O  O384  1  0.36830104  0.12030170  0.36922685  1
  O  O385  1  0.37436233  0.11388337  0.87436642  1
  O  O386  1  0.36747121  0.62470726  0.36767016  1
  O  O387  1  0.36829226  0.61944983  0.86868549  1
  O  O388  1  0.86838249  0.11778301  0.37021237  1
  O  O389  1  0.87158430  0.11815150  0.87047349  1
  O  O390  1  0.86963089  0.61879071  0.36875784  1
  O  O391  1  0.86919008  0.62283754  0.86790439  1
  O  O392  1  0.13096228  0.38074644  0.13099554  1
  O  O393  1  0.12975556  0.38245734  0.63039598  1
  O  O394  1  0.13730662  0.87692926  0.12649611  1
  O  O395  1  0.12890627  0.88296305  0.63001928  1
  O  O396  1  0.63121417  0.37976456  0.13037150  1
  O  O397  1  0.62766441  0.38325444  0.63220057  1
  O  O398  1  0.63210777  0.88029060  0.13062769  1
  O  O399  1  0.62968218  0.87979501  0.62960329  1
  O  O400  1  0.11861222  0.25749943  0.25133838  1
  O  O401  1  0.12096954  0.25658481  0.75363451  1
  O  O402  1  0.11470032  0.75260465  0.25265105  1
  O  O403  1  0.12379078  0.75712758  0.75715295  1
  O  O404  1  0.61859718  0.25543718  0.25072929  1
  O  O405  1  0.61838156  0.25367663  0.75386073  1
  O  O406  1  0.62068719  0.75501509  0.25653504  1
  O  O407  1  0.61964026  0.75450979  0.75454609  1
  O  O408  1  0.37946137  0.24493142  0.24376713  1
  O  O409  1  0.38329393  0.25206291  0.74257222  1
  O  O410  1  0.38245947  0.74361693  0.24824027  1
  O  O411  1  0.37910137  0.74588344  0.74513783  1
  O  O412  1  0.87943649  0.24399219  0.24545965  1
  O  O413  1  0.88129138  0.24569973  0.74527703  1
  O  O414  1  0.87950255  0.74289718  0.24353700  1
  O  O415  1  0.87655666  0.74200123  0.74324414  1
  O  O416  1  0.37833196  0.49503376  0.49681640  1
  O  O417  1  0.37920331  0.49493127  0.99486582  1
  O  O418  1  0.37857161  0.99649415  0.49550150  1
  O  O419  1  0.38514707  1.00038969  0.99322419  1
  O  O420  1  0.87977263  0.49518573  0.49457112  1
  O  O421  1  0.88500186  0.49648611  0.99826477  1
  O  O422  1  0.87849115  0.99371806  0.49558288  1
  O  O423  1  0.87658840  0.99915792  0.98651772  1
  O  O424  1  0.12510648  0.01297507  -0.00002363  1
  O  O425  1  0.11809934  -0.00126629  0.51116832  1
  O  O426  1  0.12153179  0.50586353  0.00638550  1
  O  O427  1  0.11898646  0.50649752  0.50591749  1
  O  O428  1  0.61904405  0.00390382  0.00388034  1
  O  O429  1  0.61889430  0.00453595  0.50509651  1
  O  O430  1  0.61809237  0.49995501  0.00656806  1
  O  O431  1  0.62422596  0.49877382  0.51194039  1
  O  O432  1  0.36901274  0.37016325  0.12014264  1
  O  O433  1  0.36856990  0.36457841  0.62491294  1
  O  O434  1  0.36261739  0.87334838  0.12241430  1
  O  O435  1  0.36870381  0.87075959  0.61928969  1
  O  O436  1  0.86784645  0.36715703  0.12409617  1
  O  O437  1  0.87420579  0.36846897  0.61770093  1
  O  O438  1  0.86861852  0.86752437  0.12329290  1
  O  O439  1  0.86961590  0.87011204  0.62189897  1
  O  O440  1  0.13333940  0.12824810  0.37901694  1
  O  O441  1  0.12610843  0.13236008  0.88357938  1
  O  O442  1  0.13056485  0.62732928  0.38261912  1
  O  O443  1  0.13086102  0.63021009  0.88006169  1
  O  O444  1  0.63193687  0.12544331  0.38195922  1
  O  O445  1  0.63139345  0.12980617  0.88028251  1
  O  O446  1  0.63041405  0.63465280  0.37083822  1
  O  O447  1  0.63273565  0.63162930  0.87509816  1
