# generated using pymatgen
data_V3Zn3O8
_symmetry_space_group_name_H-M   'P 1'
_cell_length_a   17.09185446
_cell_length_b   17.09072457
_cell_length_c   17.09160994
_cell_angle_alpha   89.99823567
_cell_angle_beta   89.97918246
_cell_angle_gamma   89.98182976
_symmetry_Int_Tables_number   1
_chemical_formula_structural   V3Zn3O8
_chemical_formula_sum   'V96 Zn96 O256'
_cell_volume   4992.66680060
_cell_formula_units_Z   32
loop_
 _symmetry_equiv_pos_site_id
 _symmetry_equiv_pos_as_xyz
  1  'x, y, z'
loop_
 _atom_site_type_symbol
 _atom_site_label
 _atom_site_symmetry_multiplicity
 _atom_site_fract_x
 _atom_site_fract_y
 _atom_site_fract_z
 _atom_site_occupancy
  V  V0  1  0.12507573  0.50053184  0.12542583  1
  V  V1  1  0.49920097  0.25034730  0.24860980  1
  V  V2  1  0.62405912  0.12500111  0.49954466  1
  V  V3  1  0.12546911  0.49927491  0.62462322  1
  V  V4  1  0.12569735  0.62675421  -0.00130983  1
  V  V5  1  0.87420195  0.87496038  0.00010300  1
  V  V6  1  0.12671732  0.24907596  0.87565336  1
  V  V7  1  0.87412709  0.75022406  0.12604400  1
  V  V8  1  -0.00012333  0.62549953  0.12547342  1
  V  V9  1  0.00232159  0.75081644  0.75021907  1
  V  V10  1  0.37564949  0.25060113  0.62356988  1
  V  V11  1  0.12583856  0.37387496  0.75025212  1
  V  V12  1  0.37543879  0.87553060  0.00006177  1
  V  V13  1  0.37305915  0.75193811  0.62274533  1
  V  V14  1  0.62436654  -0.00019065  0.62455548  1
  V  V15  1  0.87390588  0.12540821  0.24930228  1
  V  V16  1  0.49931874  0.12541965  0.12443782  1
  V  V17  1  0.37579771  -0.00062850  0.37448026  1
  V  V18  1  0.37426565  0.50086663  0.87305670  1
  V  V19  1  -0.00079499  0.25081377  0.24989891  1
  V  V20  1  0.50040972  0.50127728  -0.00003553  1
  V  V21  1  0.24918307  0.50108080  0.24932124  1
  V  V22  1  -0.00114331  -0.00021765  -0.00069930  1
  V  V23  1  0.37484543  0.62623401  0.24982413  1
  V  V24  1  0.24973474  0.62678423  0.37556780  1
  V  V25  1  0.62574244  0.25027344  0.87564108  1
  V  V26  1  0.74928549  0.62455592  0.87593509  1
  V  V27  1  0.49964218  0.49955329  0.49985213  1
  V  V28  1  -0.00026008  0.00138775  0.50043377  1
  V  V29  1  0.62456011  0.87380341  0.75036024  1
  V  V30  1  0.87565358  0.62474176  0.25176648  1
  V  V31  1  -0.00143012  0.87564303  0.37510091  1
  V  V32  1  0.25046078  0.37616313  0.12396950  1
  V  V33  1  0.00056143  0.87447848  0.87383312  1
  V  V34  1  0.87627579  0.62452499  0.75036317  1
  V  V35  1  0.50016618  0.12473607  0.62493409  1
  V  V36  1  0.12346690  0.00026548  0.12441284  1
  V  V37  1  0.37420880  0.12593681  0.24850536  1
  V  V38  1  0.87530832  0.37493610  0.00099100  1
  V  V39  1  0.37483940  0.37531844  0.49901586  1
  V  V40  1  0.00086340  0.37462656  0.37525909  1
  V  V41  1  0.74984072  0.25088428  0.00029812  1
  V  V42  1  0.24862471  0.75011052  -0.00172040  1
  V  V43  1  0.12559318  0.12518659  -0.00074110  1
  V  V44  1  0.74872018  -0.00069581  0.24935636  1
  V  V45  1  0.37546219  0.12457437  0.75017511  1
  V  V46  1  0.62484175  -0.00051780  0.12594687  1
  V  V47  1  0.87660480  0.49845326  0.37753237  1
  V  V48  1  0.50023005  0.37551765  0.87539295  1
  V  V49  1  0.00065096  0.50055775  0.00064020  1
  V  V50  1  0.37467888  0.75004464  0.12534395  1
  V  V51  1  0.12428253  0.24983347  0.37338546  1
  V  V52  1  0.87349794  0.25106799  0.12449901  1
  V  V53  1  0.87442704  0.87508891  0.50077049  1
  V  V54  1  0.49987005  0.62402068  0.62602371  1
  V  V55  1  0.74914248  0.12499418  0.37412416  1
  V  V56  1  0.87633169  0.49996331  0.87488511  1
  V  V57  1  0.24983680  -0.00185854  0.74707228  1
  V  V58  1  0.49833142  -0.00132558  0.49780657  1
  V  V59  1  0.62617603  0.37527412  0.74975524  1
  V  V60  1  0.25106839  0.49981925  0.75105630  1
  V  V61  1  0.62687862  0.49823888  0.62521708  1
  V  V62  1  0.00153350  0.37477568  0.87554267  1
  V  V63  1  0.75132954  0.25237934  0.50178277  1
  V  V64  1  0.24915309  0.00069243  0.24927871  1
  V  V65  1  0.74777836  0.49718605  0.25010027  1
  V  V66  1  0.74997202  0.62539068  0.37937060  1
  V  V67  1  0.49976901  -0.00090286  -0.00062011  1
  V  V68  1  0.74885541  0.87477767  0.12597684  1
  V  V69  1  0.75037316  0.87474683  0.62515194  1
  V  V70  1  0.12328746  0.87561687  0.24971793  1
  V  V71  1  0.00155536  0.49843057  0.50048432  1
  V  V72  1  -0.00025569  0.24821148  0.74963790  1
  V  V73  1  0.50115505  0.62474908  0.12442059  1
  V  V74  1  0.87611340  0.12578137  0.74962742  1
  V  V75  1  -0.00097572  0.75056015  0.25065370  1
  V  V76  1  0.37446028  0.37462340  0.00021873  1
  V  V77  1  0.37497684  0.50097029  0.37553697  1
  V  V78  1  0.87354841  0.00031210  0.37510162  1
  V  V79  1  0.62381910  0.75035209  0.37578504  1
  V  V80  1  0.87475082  0.74986570  0.62521239  1
  V  V81  1  0.50093498  0.24953775  0.75003201  1
  V  V82  1  0.74925987  0.12549989  0.87561861  1
  V  V83  1  0.24898511  0.87524920  0.12407807  1
  V  V84  1  0.87391716  -0.00030633  0.87482589  1
  V  V85  1  0.50022102  0.75014117  0.75090741  1
  V  V86  1  0.74941004  0.74853383  0.00008326  1
  V  V87  1  0.62250226  0.25296749  0.37256694  1
  V  V88  1  -0.00105549  0.12526574  0.12428999  1
  V  V89  1  0.12549806  0.62479319  0.49998795  1
  V  V90  1  0.12424586  0.12428456  0.50114060  1
  V  V91  1  0.12471910  0.75012695  0.37625809  1
  V  V92  1  0.25135531  0.37405475  0.62448228  1
  V  V93  1  0.24890311  0.12535739  0.37336503  1
  V  V94  1  0.25131149  0.12475518  0.87486185  1
  V  V95  1  0.74951441  0.00001819  0.75047201  1
  Zn  Zn96  1  0.24932575  0.62690341  0.87342065  1
  Zn  Zn97  1  0.24911263  0.75318996  0.50086680  1
  Zn  Zn98  1  0.62623868  0.49927438  0.12371732  1
  Zn  Zn99  1  0.87723081  0.37342631  0.50416241  1
  Zn  Zn100  1  0.74774682  0.37578712  0.12534834  1
  Zn  Zn101  1  0.75372380  0.37442493  0.62756773  1
  Zn  Zn102  1  0.49861300  0.87319207  0.37357315  1
  Zn  Zn103  1  -0.00084077  0.12447858  0.62610908  1
  Zn  Zn104  1  0.62265576  0.87414423  0.25141839  1
  Zn  Zn105  1  0.00018383  0.62377443  0.62531329  1
  Zn  Zn106  1  0.49814919  0.37723274  0.37200770  1
  Zn  Zn107  1  0.12357640  -0.00273349  0.62500376  1
  Zn  Zn108  1  0.12522076  0.37532726  0.24922812  1
  Zn  Zn109  1  0.37429158  0.25066023  0.12389408  1
  Zn  Zn110  1  0.25202768  0.24858714  0.00163047  1
  Zn  Zn111  1  0.12694783  0.87544884  0.74789681  1
  Zn  Zn112  1  0.12803144  0.75121608  0.87327015  1
  Zn  Zn113  1  0.37665466  -0.00169608  0.87322559  1
  Zn  Zn114  1  0.62443382  0.12575568  0.00028751  1
  Zn  Zn115  1  0.50019750  0.75205851  0.25071247  1
  Zn  Zn116  1  0.75307456  0.49777220  0.74889028  1
  Zn  Zn117  1  0.74908789  0.75048469  0.50207674  1
  Zn  Zn118  1  0.24802938  0.87588791  0.62148514  1
  Zn  Zn119  1  0.62324492  0.74912708  0.87695977  1
  Zn  Zn120  1  0.37306977  0.87483900  0.49700643  1
  Zn  Zn121  1  0.62515537  0.62546825  0.50217344  1
  Zn  Zn122  1  0.62127240  0.37713186  0.24671160  1
  Zn  Zn123  1  0.62495278  0.62462592  0.00033826  1
  Zn  Zn124  1  0.37222123  0.62620951  0.75101994  1
  Zn  Zn125  1  0.50119434  0.87347129  0.87607738  1
  Zn  Zn126  1  0.25059631  0.25006377  0.49798123  1
  Zn  Zn127  1  0.87676053  0.25050860  0.62556632  1
  Zn  Zn128  1  0.18705211  0.18967937  0.18608183  1
  Zn  Zn129  1  0.18883378  0.18662433  0.68642980  1
  Zn  Zn130  1  0.18713076  0.68794339  0.18690983  1
  Zn  Zn131  1  0.18782767  0.68503573  0.68696821  1
  Zn  Zn132  1  0.68594478  0.18658333  0.18556940  1
  Zn  Zn133  1  0.68767452  0.18683583  0.68759507  1
  Zn  Zn134  1  0.68668223  0.68586387  0.19020962  1
  Zn  Zn135  1  0.68786066  0.68571770  0.68898531  1
  Zn  Zn136  1  0.31180081  0.31339077  0.31120498  1
  Zn  Zn137  1  0.31319394  0.31222631  0.81312333  1
  Zn  Zn138  1  0.31213740  0.81326415  0.31236801  1
  Zn  Zn139  1  0.31504462  0.81481100  0.81384101  1
  Zn  Zn140  1  0.81335308  0.31373949  0.31520290  1
  Zn  Zn141  1  0.81285184  0.31278664  0.81294550  1
  Zn  Zn142  1  0.81025650  0.81249901  0.31341252  1
  Zn  Zn143  1  0.81327739  0.81127460  0.81220962  1
  Zn  Zn144  1  0.18816088  0.43682369  0.43677968  1
  Zn  Zn145  1  0.18873455  0.43812002  0.93805060  1
  Zn  Zn146  1  0.18898223  0.93675387  0.43837864  1
  Zn  Zn147  1  0.18733327  0.93745221  0.93371828  1
  Zn  Zn148  1  0.68655092  0.43647859  0.43799373  1
  Zn  Zn149  1  0.68682050  0.43865889  0.93901432  1
  Zn  Zn150  1  0.68683435  0.93583603  0.43831965  1
  Zn  Zn151  1  0.68493173  0.93536108  0.93710718  1
  Zn  Zn152  1  0.31312000  0.06241152  0.06252331  1
  Zn  Zn153  1  0.31237545  0.06340912  0.56140252  1
  Zn  Zn154  1  0.31321625  0.56292062  0.06044569  1
  Zn  Zn155  1  0.31265410  0.56460994  0.56351258  1
  Zn  Zn156  1  0.81085640  0.06333195  0.06180631  1
  Zn  Zn157  1  0.81246087  0.06491962  0.56378927  1
  Zn  Zn158  1  0.81402421  0.56261470  0.06336086  1
  Zn  Zn159  1  0.81519144  0.56123814  0.56361192  1
  Zn  Zn160  1  0.43657126  0.43781846  0.18800858  1
  Zn  Zn161  1  0.43786060  0.43672735  0.68785147  1
  Zn  Zn162  1  0.43879070  0.93593193  0.18938567  1
  Zn  Zn163  1  0.43647910  0.93586916  0.68599280  1
  Zn  Zn164  1  0.93647416  0.43707301  0.18901017  1
  Zn  Zn165  1  0.93777318  0.43488095  0.68638716  1
  Zn  Zn166  1  0.93538664  0.93792797  0.18725675  1
  Zn  Zn167  1  0.93823470  0.93819750  0.68609769  1
  Zn  Zn168  1  0.06119188  0.06326795  0.31295488  1
  Zn  Zn169  1  0.06419245  0.06218002  0.81267251  1
  Zn  Zn170  1  0.06353973  0.56222636  0.31359945  1
  Zn  Zn171  1  0.06458624  0.56358688  0.81294483  1
  Zn  Zn172  1  0.56139599  0.06357281  0.31150606  1
  Zn  Zn173  1  0.56336192  0.06254128  0.81380862  1
  Zn  Zn174  1  0.56242995  0.56541552  0.31265606  1
  Zn  Zn175  1  0.56280960  0.56294829  0.81133393  1
  Zn  Zn176  1  0.43676785  0.18637840  0.43650445  1
  Zn  Zn177  1  0.43670245  0.18764188  0.93762604  1
  Zn  Zn178  1  0.43917906  0.68588464  0.43992734  1
  Zn  Zn179  1  0.43417329  0.68672773  0.93697653  1
  Zn  Zn180  1  0.93733584  0.18749121  0.43654976  1
  Zn  Zn181  1  0.93709018  0.18796066  0.93604040  1
  Zn  Zn182  1  0.93877320  0.68690350  0.44007511  1
  Zn  Zn183  1  0.93718962  0.68807232  0.93710606  1
  Zn  Zn184  1  0.06414222  0.31237034  0.06270774  1
  Zn  Zn185  1  0.06279094  0.31058732  0.56319506  1
  Zn  Zn186  1  0.06220795  0.81212299  0.06143289  1
  Zn  Zn187  1  0.06391278  0.81426154  0.56445650  1
  Zn  Zn188  1  0.56392326  0.31507578  0.06390406  1
  Zn  Zn189  1  0.56171893  0.31445661  0.56112841  1
  Zn  Zn190  1  0.56435420  0.81126499  0.06321681  1
  Zn  Zn191  1  0.56134276  0.81292431  0.56008912  1
  O  O192  1  0.11820511  0.11928018  0.11975288  1
  O  O193  1  0.12468530  0.12405579  0.61069214  1
  O  O194  1  0.11829394  0.62047559  0.11972922  1
  O  O195  1  0.12346666  0.61669450  0.61800837  1
  O  O196  1  0.61771622  0.11737766  0.12217137  1
  O  O197  1  0.61937048  0.11909533  0.61979929  1
  O  O198  1  0.61286635  0.62317035  0.12483672  1
  O  O199  1  0.62014479  0.61398957  0.62517463  1
  O  O200  1  0.37415713  0.38325596  0.38111654  1
  O  O201  1  0.38159058  0.38055488  0.87943263  1
  O  O202  1  0.37646711  0.88464137  0.37482688  1
  O  O203  1  0.38073616  0.87830424  0.88529137  1
  O  O204  1  0.88304610  0.38114557  0.37870488  1
  O  O205  1  0.88247361  0.38029619  0.88098998  1
  O  O206  1  0.87911356  0.88079529  0.38006396  1
  O  O207  1  0.87921755  0.88076171  0.88104180  1
  O  O208  1  0.25408754  0.00617486  0.36699111  1
  O  O209  1  0.25272450  0.00695567  0.86539423  1
  O  O210  1  0.25481743  0.50705888  0.36922279  1
  O  O211  1  0.25680875  0.49888585  0.86804166  1
  O  O212  1  0.75430086  0.00576655  0.37022808  1
  O  O213  1  0.75433208  0.00466875  0.87009847  1
  O  O214  1  0.75492547  0.50711726  0.37016087  1
  O  O215  1  0.75774703  0.50936431  0.87565424  1
  O  O216  1  0.24458224  0.49611600  0.12954020  1
  O  O217  1  0.24537448  0.49325588  0.63066784  1
  O  O218  1  0.24259756  0.99486006  0.12984927  1
  O  O219  1  0.25004110  1.00207573  0.63657558  1
  O  O220  1  0.75120385  0.50228242  0.13868271  1
  O  O221  1  0.73846374  0.49871920  0.62588061  1
  O  O222  1  0.74543355  0.99517841  0.12947660  1
  O  O223  1  0.74385837  0.99562997  0.63107527  1
  O  O224  1  0.00141473  0.36844856  0.25631962  1
  O  O225  1  0.00704514  0.36910790  0.75716109  1
  O  O226  1  0.00331152  0.87052953  0.25485394  1
  O  O227  1  -0.00252599  0.86567064  0.75603011  1
  O  O228  1  0.50068628  0.36694189  0.25275446  1
  O  O229  1  0.50578413  0.36845160  0.75576404  1
  O  O230  1  0.50464234  0.87008755  0.25408217  1
  O  O231  1  0.50602034  0.86556810  0.74936312  1
  O  O232  1  0.49379377  0.13015918  0.24386829  1
  O  O233  1  0.49621181  0.13005044  0.74440982  1
  O  O234  1  0.49273503  0.62604390  0.23993507  1
  O  O235  1  0.49967194  0.63494969  0.74410913  1
  O  O236  1  0.99301154  0.12965659  0.24394230  1
  O  O237  1  0.99392904  0.13036640  0.75161971  1
  O  O238  1  0.99500370  0.63081253  0.24576453  1
  O  O239  1  0.99438597  0.63463713  0.75050913  1
  O  O240  1  0.37338046  0.25900761  0.00192695  1
  O  O241  1  0.37444581  0.25565034  0.50588911  1
  O  O242  1  0.36889896  0.75576710  0.00646997  1
  O  O243  1  0.37492155  0.74980991  0.51119961  1
  O  O244  1  0.87051650  0.25543163  0.00463429  1
  O  O245  1  0.86222585  0.24846297  0.49904344  1
  O  O246  1  0.87022592  0.75549070  0.00691297  1
  O  O247  1  0.87493052  0.75722877  0.50682344  1
  O  O248  1  0.12560907  0.23980472  0.49212838  1
  O  O249  1  0.12573401  0.24226962  0.99336630  1
  O  O250  1  0.12353244  0.74305824  0.49284474  1
  O  O251  1  0.13061657  0.74433765  1.00005674  1
  O  O252  1  0.63001640  0.24502597  0.49149937  1
  O  O253  1  0.63123043  0.24975176  0.99264648  1
  O  O254  1  0.62875382  0.74604796  0.49128152  1
  O  O255  1  0.63381398  0.74556356  0.99721543  1
  O  O256  1  0.49939952  0.24329261  0.13130912  1
  O  O257  1  0.49628562  0.24446963  0.63032642  1
  O  O258  1  0.49348784  0.73984397  0.12452465  1
  O  O259  1  0.49422583  0.74484812  0.63205760  1
  O  O260  1  0.99400097  0.24423365  0.12951130  1
  O  O261  1  0.99939049  0.24617326  0.63462582  1
  O  O262  1  0.99370917  0.74547696  0.13121662  1
  O  O263  1  0.99323940  0.74946835  0.63524816  1
  O  O264  1  0.00403415  0.25445316  0.36862683  1
  O  O265  1  0.00689444  0.25544052  0.87033694  1
  O  O266  1  0.00400955  0.75598310  0.36928853  1
  O  O267  1  -0.00207100  0.75621518  0.86530351  1
  O  O268  1  0.50925547  0.24828070  0.36877143  1
  O  O269  1  0.50574934  0.25535000  0.86927732  1
  O  O270  1  0.51184569  0.74711454  0.37410603  1
  O  O271  1  0.50071443  0.74925290  0.86336814  1
  O  O272  1  0.24013309  0.12554903  0.49187667  1
  O  O273  1  0.24317951  0.12426128  0.99385971  1
  O  O274  1  0.24304186  0.62681226  0.49266537  1
  O  O275  1  0.24306230  0.63231830  1.00040244  1
  O  O276  1  0.74340469  0.13198133  0.49351231  1
  O  O277  1  0.74875217  0.13197034  0.99293470  1
  O  O278  1  0.75091444  0.62441328  0.48789151  1
  O  O279  1  0.75241837  0.63001719  0.99140275  1
  O  O280  1  0.25634061  0.37485032  0.00713310  1
  O  O281  1  0.25684069  0.37362388  0.50665718  1
  O  O282  1  0.25427587  0.87174002  0.00575292  1
  O  O283  1  0.25454055  0.87103081  0.50273330  1
  O  O284  1  0.75838834  0.36913639  0.00006257  1
  O  O285  1  0.75051506  0.36207452  0.49957286  1
  O  O286  1  0.75585324  0.86956726  0.00569109  1
  O  O287  1  0.75737880  0.87508124  0.50778504  1
  O  O288  1  0.13128945  0.50084029  0.24268657  1
  O  O289  1  0.12987432  0.49269871  0.74517655  1
  O  O290  1  0.12798904  0.99518123  0.24417889  1
  O  O291  1  0.13725858  1.00159087  0.74798550  1
  O  O292  1  0.63721767  0.50038334  0.25179168  1
  O  O293  1  0.62503272  0.49375444  0.74012014  1
  O  O294  1  0.63235374  1.00031576  0.24412643  1
  O  O295  1  0.62978275  0.99498641  0.74403686  1
  O  O296  1  0.36804453  0.00644261  0.25357898  1
  O  O297  1  0.36869702  0.00692429  0.75031798  1
  O  O298  1  0.36866879  0.50710370  0.25570424  1
  O  O299  1  0.36915375  0.49922367  0.75557262  1
  O  O300  1  0.86917304  0.00603593  0.25508362  1
  O  O301  1  0.86872151  0.00450609  0.75615978  1
  O  O302  1  0.86854963  0.50590182  0.25735078  1
  O  O303  1  0.87609950  0.50588933  0.75744128  1
  O  O304  1  0.11945154  0.36805678  0.37236993  1
  O  O305  1  0.12058795  0.36964722  0.87026014  1
  O  O306  1  0.11786556  0.87081671  0.36853094  1
  O  O307  1  0.11532506  0.87234829  0.87053029  1
  O  O308  1  0.62264622  0.36215036  0.37281814  1
  O  O309  1  0.61908988  0.37010087  0.86977863  1
  O  O310  1  0.62621458  0.86261632  0.37411523  1
  O  O311  1  0.62286478  0.87014751  0.86589268  1
  O  O312  1  0.38061655  0.12633517  0.13170537  1
  O  O313  1  0.38154270  0.13140664  0.62982750  1
  O  O314  1  0.38191678  0.63017076  0.12954629  1
  O  O315  1  0.38205059  0.63350295  0.62830537  1
  O  O316  1  0.88001482  0.13039087  0.12956306  1
  O  O317  1  0.87643095  0.12844118  0.63456257  1
  O  O318  1  0.88104826  0.63102437  0.13182348  1
  O  O319  1  0.87720720  0.63088429  0.63233647  1
  O  O320  1  0.25190210  0.26006556  0.12290857  1
  O  O321  1  0.25783062  0.25632892  0.62327335  1
  O  O322  1  0.25420445  0.75658942  0.11942640  1
  O  O323  1  0.26239146  0.74898929  0.62589266  1
  O  O324  1  0.75683465  0.25039963  0.11895960  1
  O  O325  1  0.74776344  0.24989335  0.61201770  1
  O  O326  1  0.75586772  0.75332798  0.12130808  1
  O  O327  1  0.75646936  0.75606614  0.62525683  1
  O  O328  1  0.24290988  0.24284949  0.37447655  1
  O  O329  1  0.24370577  0.24309553  0.87565052  1
  O  O330  1  0.24176102  0.74372178  0.37427586  1
  O  O331  1  0.24895572  0.74888706  0.88275582  1
  O  O332  1  0.74166389  0.24455516  0.38078860  1
  O  O333  1  0.74513072  0.24480389  0.88071520  1
  O  O334  1  0.74494402  0.73992963  0.37667714  1
  O  O335  1  0.75256409  0.73928530  0.88093698  1
  O  O336  1  0.00412532  0.11897242  0.00466805  1
  O  O337  1  0.00900939  0.11980497  0.49778546  1
  O  O338  1  0.00375887  0.62050283  0.00650182  1
  O  O339  1  0.00754242  0.61671617  0.50105780  1
  O  O340  1  0.50027893  0.11497395  0.00519622  1
  O  O341  1  0.50554926  0.12011915  0.50597469  1
  O  O342  1  0.49835398  0.62007469  0.00955776  1
  O  O343  1  0.50245252  0.61595117  0.50868694  1
  O  O344  1  0.49242969  0.38171524  0.49680406  1
  O  O345  1  0.49457880  0.38124698  0.99398311  1
  O  O346  1  0.49707691  0.88512979  0.49625983  1
  O  O347  1  0.49481947  0.88403837  1.00268401  1
  O  O348  1  1.00128256  0.38059875  0.49262064  1
  O  O349  1  0.99569089  0.38072881  0.99499403  1
  O  O350  1  0.99397511  0.88123221  0.49340016  1
  O  O351  1  0.99332953  0.88044236  0.99546462  1
  O  O352  1  0.49295987  0.50093845  0.38092257  1
  O  O353  1  0.49492309  0.49466416  0.87890758  1
  O  O354  1  0.49344504  1.00236749  0.38095908  1
  O  O355  1  0.50027498  0.99859194  0.88744793  1
  O  O356  1  0.99627659  0.49467481  0.37989503  1
  O  O357  1  0.99627184  0.49429459  0.88134247  1
  O  O358  1  0.99254251  0.99476792  0.37896588  1
  O  O359  1  0.99338507  0.99506043  0.88047312  1
  O  O360  1  0.00341868  0.00534451  0.11935448  1
  O  O361  1  0.00165263  0.00389198  0.61584134  1
  O  O362  1  0.00393090  0.50642058  0.12058245  1
  O  O363  1  0.00849675  0.49948819  0.61908493  1
  O  O364  1  0.50471910  0.00488735  0.11776765  1
  O  O365  1  0.50546491  0.00599547  0.61951893  1
  O  O366  1  0.49766165  0.51113536  0.11941933  1
  O  O367  1  0.50788548  0.50379656  0.62099829  1
  O  O368  1  0.24839339  0.38369522  0.24216767  1
  O  O369  1  0.24483354  0.37932126  0.74428249  1
  O  O370  1  0.24218134  0.88108022  0.24354257  1
  O  O371  1  0.25132549  0.88764578  0.74929030  1
  O  O372  1  0.75026209  0.38729223  0.25170217  1
  O  O373  1  0.74143785  0.37757379  0.74946773  1
  O  O374  1  0.75025292  0.88234879  0.24311522  1
  O  O375  1  0.74573221  0.88073034  0.74491438  1
  O  O376  1  0.25326431  0.11926419  0.25316911  1
  O  O377  1  0.25634783  0.11867918  0.75467901  1
  O  O378  1  0.25479574  0.62042460  0.25480163  1
  O  O379  1  0.25106811  0.61454324  0.75256754  1
  O  O380  1  0.75536266  0.11969156  0.25473765  1
  O  O381  1  0.75466127  0.11925795  0.75629920  1
  O  O382  1  0.75620385  0.61748231  0.26068914  1
  O  O383  1  0.75752175  0.62347204  0.76071619  1
  O  O384  1  0.36812705  0.11978723  0.36814999  1
  O  O385  1  0.36965243  0.12373794  0.86724622  1
  O  O386  1  0.36945553  0.62062563  0.36986481  1
  O  O387  1  0.37165364  0.61531227  0.87200058  1
  O  O388  1  0.86889885  0.11954236  0.36848579  1
  O  O389  1  0.86896892  0.11839377  0.87023710  1
  O  O390  1  0.86845990  0.62013663  0.37095202  1
  O  O391  1  0.86850601  0.61951725  0.87106919  1
  O  O392  1  0.13146919  0.38303887  0.12582460  1
  O  O393  1  0.13169956  0.37901977  0.63081158  1
  O  O394  1  0.12826989  0.88101394  0.13018689  1
  O  O395  1  0.12964443  0.87953725  0.62978051  1
  O  O396  1  0.63038646  0.38105756  0.12949985  1
  O  O397  1  0.62472747  0.38408196  0.63072869  1
  O  O398  1  0.63310869  0.88068707  0.12729156  1
  O  O399  1  0.63070004  0.88095889  0.62995291  1
  O  O400  1  0.11605763  0.24998180  0.25550862  1
  O  O401  1  0.12082643  0.25449549  0.75591395  1
  O  O402  1  0.11802506  0.75593242  0.25473890  1
  O  O403  1  0.11238567  0.74975053  0.75041221  1
  O  O404  1  0.61954174  0.24824279  0.25956193  1
  O  O405  1  0.61970268  0.25466096  0.75549681  1
  O  O406  1  0.62523403  0.74973672  0.26332258  1
  O  O407  1  0.61519276  0.75521010  0.74854266  1
  O  O408  1  0.38176627  0.24315305  0.24929759  1
  O  O409  1  0.38195566  0.24535598  0.74384323  1
  O  O410  1  0.37428362  0.74312331  0.24260563  1
  O  O411  1  0.38529442  0.75015618  0.74205951  1
  O  O412  1  0.87887600  0.24424856  0.24521448  1
  O  O413  1  0.88223413  0.24280353  0.75288533  1
  O  O414  1  0.87990699  0.74500917  0.24586117  1
  O  O415  1  0.88319943  0.74505246  0.74505036  1
  O  O416  1  0.37987560  0.49549502  0.49528227  1
  O  O417  1  0.38054665  0.49438799  0.99293495  1
  O  O418  1  0.38161064  1.00273091  0.49213033  1
  O  O419  1  0.38539963  0.99427876  1.00139713  1
  O  O420  1  0.88317692  0.49827204  0.49413870  1
  O  O421  1  0.88220173  0.49522812  0.99551181  1
  O  O422  1  0.87889553  0.99598400  0.49388749  1
  O  O423  1  0.87930607  0.99454906  0.99489369  1
  O  O424  1  0.11819873  0.00491599  0.00512209  1
  O  O425  1  0.11829560  0.01055033  0.49637635  1
  O  O426  1  0.11894524  0.50579213  0.00574764  1
  O  O427  1  0.12111237  0.50476654  0.50481898  1
  O  O428  1  0.61540191  -0.00003211  0.00656516  1
  O  O429  1  0.62016192  0.00626913  0.50482907  1
  O  O430  1  0.61606771  0.50415036  0.00205965  1
  O  O431  1  0.61901031  0.49906656  0.50967414  1
  O  O432  1  0.36717951  0.37618097  0.11790165  1
  O  O433  1  0.37096050  0.36964758  0.61933043  1
  O  O434  1  0.36760182  0.87000469  0.12036018  1
  O  O435  1  0.37416522  0.86284623  0.62236862  1
  O  O436  1  0.87371737  0.36867798  0.11872138  1
  O  O437  1  0.87083936  0.36907431  0.62161470  1
  O  O438  1  0.86938732  0.86968478  0.11958647  1
  O  O439  1  0.86904175  0.87052901  0.62009978  1
  O  O440  1  0.12882791  0.12962370  0.38127948  1
  O  O441  1  0.13077312  0.12986029  0.88082565  1
  O  O442  1  0.12998657  0.63086337  0.37966859  1
  O  O443  1  0.12687110  0.62829770  0.88447679  1
  O  O444  1  0.62985507  0.13377153  0.37973399  1
  O  O445  1  0.63178761  0.13227364  0.87614162  1
  O  O446  1  0.63523024  0.63123885  0.37751600  1
  O  O447  1  0.63842830  0.62566296  0.87523436  1
