# generated using pymatgen
data_V3Zn3O8
_symmetry_space_group_name_H-M   'P 1'
_cell_length_a   17.08859016
_cell_length_b   17.08771687
_cell_length_c   17.08860499
_cell_angle_alpha   90.00488988
_cell_angle_beta   89.99459808
_cell_angle_gamma   89.99012946
_symmetry_Int_Tables_number   1
_chemical_formula_structural   V3Zn3O8
_chemical_formula_sum   'V96 Zn96 O256'
_cell_volume   4989.95782162
_cell_formula_units_Z   32
loop_
 _symmetry_equiv_pos_site_id
 _symmetry_equiv_pos_as_xyz
  1  'x, y, z'
loop_
 _atom_site_type_symbol
 _atom_site_label
 _atom_site_symmetry_multiplicity
 _atom_site_fract_x
 _atom_site_fract_y
 _atom_site_fract_z
 _atom_site_occupancy
  V  V0  1  0.12303672  0.00115605  0.62435983  1
  V  V1  1  0.37374803  0.37360570  0.49994939  1
  V  V2  1  -0.00065767  0.37491714  0.37502446  1
  V  V3  1  0.37528374  0.62419674  0.74997367  1
  V  V4  1  0.37655869  0.87492671  0.49941644  1
  V  V5  1  0.75034682  0.12603323  0.37504391  1
  V  V6  1  0.37606433  0.62552890  0.24901322  1
  V  V7  1  0.24996283  0.12396062  0.37450301  1
  V  V8  1  0.74933981  0.00051817  0.75039662  1
  V  V9  1  0.25154259  0.74944795  0.49986929  1
  V  V10  1  0.75080410  0.74970307  -0.00028652  1
  V  V11  1  0.87521089  0.50129940  0.37474572  1
  V  V12  1  0.62501327  0.12548844  -0.00042723  1
  V  V13  1  0.75055874  0.87438271  0.62537655  1
  V  V14  1  0.74993239  0.50015031  0.75099398  1
  V  V15  1  0.00058805  0.87609810  0.37628698  1
  V  V16  1  0.00037086  0.75087964  0.24923809  1
  V  V17  1  0.49960799  0.49937167  0.50069565  1
  V  V18  1  0.24921073  0.37373380  0.62460506  1
  V  V19  1  0.12418528  0.00148998  0.12401189  1
  V  V20  1  0.49940249  0.37432822  0.37444483  1
  V  V21  1  0.87393273  0.25112486  0.12409842  1
  V  V22  1  0.12435282  0.62489806  0.50082710  1
  V  V23  1  0.24947010  0.12432672  0.87579765  1
  V  V24  1  0.24966197  0.37458474  0.12405050  1
  V  V25  1  -0.00209404  0.37523137  0.87441299  1
  V  V26  1  0.50162322  0.50198748  0.00100317  1
  V  V27  1  -0.00136863  0.49900143  -0.00004572  1
  V  V28  1  0.37478793  0.87399172  0.00084898  1
  V  V29  1  0.49986362  -0.00064275  0.49911760  1
  V  V30  1  0.87689458  0.12729270  0.74718501  1
  V  V31  1  0.62488856  0.37765456  0.24923755  1
  V  V32  1  0.24998797  0.62506737  0.37551400  1
  V  V33  1  0.37621364  0.74815212  0.12598071  1
  V  V34  1  0.25078097  0.00030910  0.25007855  1
  V  V35  1  0.12582234  0.87336050  0.75068369  1
  V  V36  1  0.24929439  0.24985430  0.49934428  1
  V  V37  1  0.49949599  0.37443914  0.87382691  1
  V  V38  1  0.62507059  -0.00024929  0.62481204  1
  V  V39  1  0.87456193  0.75128024  0.62564503  1
  V  V40  1  0.12480479  0.74907417  0.87491565  1
  V  V41  1  0.75051685  0.62578761  0.37490997  1
  V  V42  1  0.37418868  -0.00006371  0.87540332  1
  V  V43  1  -0.00009736  0.12590728  0.12413303  1
  V  V44  1  0.37437617  0.24969277  0.12379938  1
  V  V45  1  0.37607252  0.74939016  0.62554220  1
  V  V46  1  0.75081280  0.75152878  0.50071151  1
  V  V47  1  0.12538879  0.37486385  0.74974571  1
  V  V48  1  0.12475961  0.62423140  0.00002287  1
  V  V49  1  0.87432325  0.12648567  0.24998792  1
  V  V50  1  0.25019691  0.74913080  0.00016304  1
  V  V51  1  0.24975509  0.50042672  0.24943271  1
  V  V52  1  0.24977441  0.87508158  0.12536667  1
  V  V53  1  0.12504177  0.49975590  0.12544138  1
  V  V54  1  0.25000546  0.62366333  0.87454300  1
  V  V55  1  0.87595784  -0.00012279  0.87566246  1
  V  V56  1  0.87413544  0.62435091  0.75056272  1
  V  V57  1  0.25093405  0.87424916  0.62556787  1
  V  V58  1  0.62456903  0.49967038  0.62418120  1
  V  V59  1  0.75032796  0.37521465  0.62319594  1
  V  V60  1  0.12449405  0.12564976  -0.00009709  1
  V  V61  1  0.74978756  0.37635314  0.12376941  1
  V  V62  1  0.62586686  0.75099862  0.37493140  1
  V  V63  1  0.12446981  0.25062557  0.37473869  1
  V  V64  1  0.87424415  0.37449785  0.49937043  1
  V  V65  1  0.49890471  0.12470280  0.62434307  1
  V  V66  1  0.50006667  0.87463049  0.87579267  1
  V  V67  1  0.25071549  -0.00090829  0.75151958  1
  V  V68  1  0.50002641  0.12548887  0.12549478  1
  V  V69  1  0.24985186  0.49857464  0.74909644  1
  V  V70  1  -0.00061287  0.87550781  0.87623514  1
  V  V71  1  0.12548807  0.24962325  0.87499586  1
  V  V72  1  0.62530307  0.87535005  0.25037886  1
  V  V73  1  0.62664482  0.74940429  0.87661207  1
  V  V74  1  0.12532012  0.87532426  0.24950272  1
  V  V75  1  0.74909526  0.12582048  0.87481082  1
  V  V76  1  0.75086843  0.87603574  0.12585370  1
  V  V77  1  0.49988661  0.25067638  0.24918209  1
  V  V78  1  0.74975082  0.25029264  0.50010779  1
  V  V79  1  0.00019321  0.25128256  0.25020245  1
  V  V80  1  0.37418150  0.49941912  0.37457265  1
  V  V81  1  0.50106519  0.87424204  0.37514562  1
  V  V82  1  0.37583886  0.49885758  0.87462647  1
  V  V83  1  0.62584509  0.00014637  0.12562529  1
  V  V84  1  0.50075859  0.74941186  0.75066722  1
  V  V85  1  0.49853067  0.24873885  0.74838512  1
  V  V86  1  0.62485901  0.87526823  0.75065205  1
  V  V87  1  0.87567379  0.00077426  0.37582220  1
  V  V88  1  0.50044747  0.62354011  0.62476315  1
  V  V89  1  -0.00006099  0.74888208  0.75044709  1
  V  V90  1  0.87620603  0.75159194  0.12511968  1
  V  V91  1  0.62513770  0.12551027  0.49851658  1
  V  V92  1  0.00000473  0.62555963  0.12602528  1
  V  V93  1  0.50007098  -0.00071818  0.00073070  1
  V  V94  1  0.00027694  0.62497727  0.62462343  1
  V  V95  1  0.62353087  0.24881673  0.87487882  1
  Zn  Zn96  1  0.37546744  0.37502262  -0.00125649  1
  Zn  Zn97  1  0.62637333  0.50389306  0.12379492  1
  Zn  Zn98  1  0.37322599  0.24665422  0.62413808  1
  Zn  Zn99  1  0.62413930  0.62539880  0.49983391  1
  Zn  Zn100  1  0.87612461  0.62596029  0.25047991  1
  Zn  Zn101  1  0.75006181  0.62310331  0.87739895  1
  Zn  Zn102  1  0.00081360  0.00203542  0.50191946  1
  Zn  Zn103  1  0.37571027  -0.00074491  0.37325529  1
  Zn  Zn104  1  0.62457830  0.24978222  0.37477355  1
  Zn  Zn105  1  0.50117738  0.74816326  0.24891372  1
  Zn  Zn106  1  0.87702326  0.87792393  0.00106033  1
  Zn  Zn107  1  0.37379563  0.12329367  0.74870891  1
  Zn  Zn108  1  0.50415305  0.62573280  0.12714921  1
  Zn  Zn109  1  0.62546575  0.62567756  0.00262003  1
  Zn  Zn110  1  0.12363702  0.37576546  0.25053116  1
  Zn  Zn111  1  0.25079469  0.25027367  -0.00109220  1
  Zn  Zn112  1  0.87268194  0.37527492  -0.00105274  1
  Zn  Zn113  1  0.74889139  0.50309815  0.24846954  1
  Zn  Zn114  1  0.87772442  0.25055657  0.62388687  1
  Zn  Zn115  1  0.87717617  0.87674672  0.50255736  1
  Zn  Zn116  1  0.00029752  0.25044915  0.74701509  1
  Zn  Zn117  1  -0.00145309  -0.00027797  0.00036649  1
  Zn  Zn118  1  0.12556138  0.75101784  0.37446582  1
  Zn  Zn119  1  0.12279221  0.49817995  0.62479054  1
  Zn  Zn120  1  0.12299707  0.12504537  0.50150601  1
  Zn  Zn121  1  0.87292924  0.50046779  0.87712392  1
  Zn  Zn122  1  0.75003504  0.25129267  -0.00151684  1
  Zn  Zn123  1  0.00075632  0.12841569  0.62250565  1
  Zn  Zn124  1  0.37640672  0.12229909  0.25016700  1
  Zn  Zn125  1  0.62516562  0.37448215  0.74887875  1
  Zn  Zn126  1  0.74992591  0.00139246  0.24934533  1
  Zn  Zn127  1  0.00065052  0.49939681  0.50131569  1
  Zn  Zn128  1  0.18661113  0.18778095  0.18934556  1
  Zn  Zn129  1  0.18783438  0.18764423  0.68970000  1
  Zn  Zn130  1  0.18712670  0.68794805  0.18826616  1
  Zn  Zn131  1  0.18752501  0.68639330  0.68672729  1
  Zn  Zn132  1  0.68748777  0.18970704  0.18787827  1
  Zn  Zn133  1  0.68739225  0.18792576  0.68587365  1
  Zn  Zn134  1  0.68699194  0.68847881  0.18733125  1
  Zn  Zn135  1  0.68673062  0.68601481  0.68772525  1
  Zn  Zn136  1  0.31220603  0.31154322  0.31069175  1
  Zn  Zn137  1  0.31308866  0.31143607  0.81221128  1
  Zn  Zn138  1  0.31377968  0.81130047  0.31308888  1
  Zn  Zn139  1  0.31307075  0.81199117  0.81325165  1
  Zn  Zn140  1  0.81132594  0.31255960  0.31217538  1
  Zn  Zn141  1  0.81146686  0.31251270  0.81133220  1
  Zn  Zn142  1  0.81330500  0.81336116  0.31088582  1
  Zn  Zn143  1  0.81347954  0.81304951  0.81345702  1
  Zn  Zn144  1  0.18601193  0.43725620  0.43760588  1
  Zn  Zn145  1  0.18628185  0.43658519  0.93776397  1
  Zn  Zn146  1  0.18828046  0.93778679  0.43856563  1
  Zn  Zn147  1  0.18601527  0.93819935  0.93908424  1
  Zn  Zn148  1  0.68643657  0.43819505  0.43713042  1
  Zn  Zn149  1  0.68362139  0.43551702  0.93622158  1
  Zn  Zn150  1  0.68899566  0.93792175  0.43779363  1
  Zn  Zn151  1  0.68891589  0.93709267  0.93858456  1
  Zn  Zn152  1  0.31156065  0.06316183  0.06172013  1
  Zn  Zn153  1  0.31235154  0.06205537  0.56151486  1
  Zn  Zn154  1  0.31536976  0.56205443  0.06197788  1
  Zn  Zn155  1  0.31223085  0.56029493  0.56324598  1
  Zn  Zn156  1  0.81228287  0.06351946  0.06099275  1
  Zn  Zn157  1  0.81207008  0.06222889  0.56154317  1
  Zn  Zn158  1  0.81487395  0.56255608  0.06325460  1
  Zn  Zn159  1  0.81265931  0.56336465  0.56221614  1
  Zn  Zn160  1  0.43703683  0.43801406  0.18587593  1
  Zn  Zn161  1  0.43597305  0.43465964  0.68664198  1
  Zn  Zn162  1  0.43766097  0.93634868  0.18934206  1
  Zn  Zn163  1  0.43773114  0.93749536  0.68753532  1
  Zn  Zn164  1  0.93618316  0.43811426  0.18906480  1
  Zn  Zn165  1  0.93689546  0.43868178  0.68610609  1
  Zn  Zn166  1  0.93756727  0.93879369  0.18873438  1
  Zn  Zn167  1  0.93779710  0.93763979  0.69097188  1
  Zn  Zn168  1  0.06308936  0.06351121  0.31076955  1
  Zn  Zn169  1  0.06175940  0.06187893  0.81213481  1
  Zn  Zn170  1  0.06278038  0.56268535  0.31267616  1
  Zn  Zn171  1  0.06222310  0.56027965  0.81163242  1
  Zn  Zn172  1  0.56299280  0.06193266  0.31214694  1
  Zn  Zn173  1  0.56118496  0.06328233  0.81235700  1
  Zn  Zn174  1  0.56210179  0.56304056  0.31330543  1
  Zn  Zn175  1  0.56541540  0.56355084  0.81457005  1
  Zn  Zn176  1  0.43623098  0.18777833  0.43654828  1
  Zn  Zn177  1  0.43684477  0.18642519  0.93749617  1
  Zn  Zn178  1  0.43844133  0.68700500  0.43658370  1
  Zn  Zn179  1  0.43797479  0.68580088  0.93792899  1
  Zn  Zn180  1  0.93932695  0.18713089  0.44060077  1
  Zn  Zn181  1  0.93660478  0.18922440  0.93808341  1
  Zn  Zn182  1  0.93716957  0.69005371  0.43901413  1
  Zn  Zn183  1  0.93526637  0.68647978  0.93748005  1
  Zn  Zn184  1  0.06264824  0.31173499  0.06069099  1
  Zn  Zn185  1  0.06141649  0.31094786  0.56209516  1
  Zn  Zn186  1  0.06221874  0.81331962  0.06150538  1
  Zn  Zn187  1  0.06279878  0.81245184  0.56220627  1
  Zn  Zn188  1  0.56248393  0.31441643  0.06086934  1
  Zn  Zn189  1  0.56346895  0.31220556  0.56259986  1
  Zn  Zn190  1  0.56349121  0.81183435  0.06448903  1
  Zn  Zn191  1  0.56428840  0.81160737  0.56174562  1
  O  O192  1  0.11975314  0.12117374  0.12046878  1
  O  O193  1  0.12592203  0.11138920  0.62700733  1
  O  O194  1  0.12056039  0.61970763  0.11894213  1
  O  O195  1  0.12003226  0.62505823  0.61610313  1
  O  O196  1  0.61938867  0.12079464  0.11986562  1
  O  O197  1  0.61983616  0.11812786  0.61849561  1
  O  O198  1  0.62249996  0.62137743  0.12211945  1
  O  O199  1  0.61759343  0.61867445  0.62295544  1
  O  O200  1  0.37899542  0.38062666  0.37894829  1
  O  O201  1  0.38105202  0.38123095  0.87613112  1
  O  O202  1  0.38220449  0.87496687  0.38254063  1
  O  O203  1  0.38030480  0.87918291  0.88152949  1
  O  O204  1  0.87805768  0.38325003  0.37918044  1
  O  O205  1  0.88628177  0.37627626  0.87524384  1
  O  O206  1  0.88405297  0.88436130  0.37390317  1
  O  O207  1  0.88206240  0.88228721  0.87413497  1
  O  O208  1  0.24970087  0.00841428  0.36970671  1
  O  O209  1  0.25465405  0.00326297  0.87077601  1
  O  O210  1  0.25521903  0.50463931  0.36955672  1
  O  O211  1  0.25512844  0.50475908  0.86981105  1
  O  O212  1  0.76041047  0.00598487  0.37383490  1
  O  O213  1  0.75416074  0.00521560  0.86892372  1
  O  O214  1  0.75758857  0.50921032  0.37547466  1
  O  O215  1  0.74964246  0.49933806  0.86296735  1
  O  O216  1  0.24610724  0.49286775  0.12900688  1
  O  O217  1  0.24920661  0.49245035  0.63209553  1
  O  O218  1  0.24435413  0.99440625  0.12951106  1
  O  O219  1  0.24365725  0.99286313  0.63111546  1
  O  O220  1  0.74958853  0.48956606  0.12820906  1
  O  O221  1  0.74482947  0.49590602  0.63119424  1
  O  O222  1  0.74332734  0.99451632  0.12535232  1
  O  O223  1  0.74383511  0.99442096  0.63044679  1
  O  O224  1  0.00047308  0.36857752  0.25670965  1
  O  O225  1  0.00563878  0.37682685  0.75973213  1
  O  O226  1  0.00602477  0.87118749  0.25745843  1
  O  O227  1  0.00667549  0.86739662  0.75607744  1
  O  O228  1  0.50648687  0.37144728  0.25368526  1
  O  O229  1  0.50101338  0.36510724  0.75429438  1
  O  O230  1  0.50733254  0.87330708  0.25732916  1
  O  O231  1  0.50525570  0.86914045  0.75580767  1
  O  O232  1  0.49946882  0.13184428  0.24306075  1
  O  O233  1  0.49885400  0.13228545  0.74365215  1
  O  O234  1  0.49071984  0.62648311  0.24958281  1
  O  O235  1  0.49457023  0.63003539  0.74522722  1
  O  O236  1  0.99430789  0.13182286  0.24420279  1
  O  O237  1  0.98764456  0.12540574  0.74906341  1
  O  O238  1  1.00067793  0.63277400  0.24369592  1
  O  O239  1  0.99544102  0.63025610  0.74497275  1
  O  O240  1  0.37430041  0.25201399  0.01250969  1
  O  O241  1  0.36741852  0.25707143  0.49983485  1
  O  O242  1  0.36874592  0.75486819  0.00389836  1
  O  O243  1  0.37100986  0.75444896  0.50673107  1
  O  O244  1  0.87106111  0.25402488  0.00846871  1
  O  O245  1  0.86720520  0.25697333  0.50013894  1
  O  O246  1  0.86671958  0.75281290  0.00597305  1
  O  O247  1  0.86885867  0.75350336  0.50814271  1
  O  O248  1  0.13260922  0.24855803  0.49189975  1
  O  O249  1  0.12750752  0.24312159  0.99315589  1
  O  O250  1  0.13218518  0.74077001  0.49907986  1
  O  O251  1  0.13106148  0.74370827  0.99472606  1
  O  O252  1  0.63081874  0.24307785  0.49760509  1
  O  O253  1  0.62361748  0.24245976  0.99269592  1
  O  O254  1  0.63300031  0.74822767  0.49356927  1
  O  O255  1  0.63518639  0.75204211  0.99496222  1
  O  O256  1  0.49246637  0.24635400  0.12881999  1
  O  O257  1  0.49984713  0.24393160  0.63300790  1
  O  O258  1  0.49083686  0.74832420  0.12667125  1
  O  O259  1  0.49554456  0.74472418  0.63109855  1
  O  O260  1  0.99475819  0.24572909  0.13032929  1
  O  O261  1  0.99553789  0.24695117  0.62978906  1
  O  O262  1  0.99636257  0.74534291  0.12925629  1
  O  O263  1  0.99495345  0.74599319  0.63170421  1
  O  O264  1  0.00442549  0.25504390  0.36948653  1
  O  O265  1  0.00595443  0.26056272  0.87357336  1
  O  O266  1  -0.00000413  0.76138267  0.36944311  1
  O  O267  1  0.00615682  0.75376735  0.86965689  1
  O  O268  1  0.49996528  0.25706580  0.36755030  1
  O  O269  1  0.50335356  0.25284812  0.86722037  1
  O  O270  1  0.50783717  0.75646681  0.37515921  1
  O  O271  1  0.50469490  0.75564956  0.87015653  1
  O  O272  1  0.24820434  0.13003214  0.49002894  1
  O  O273  1  0.24253225  0.12630982  0.99371531  1
  O  O274  1  0.24401753  0.62960990  0.49628830  1
  O  O275  1  0.24474861  0.62910721  0.99406930  1
  O  O276  1  0.74457883  0.12996410  0.49502638  1
  O  O277  1  0.74203445  0.12699235  0.99257386  1
  O  O278  1  0.74942307  0.63182950  0.48975502  1
  O  O279  1  0.75034159  0.63870772  0.99995762  1
  O  O280  1  0.25201618  0.37445364  0.01243200  1
  O  O281  1  0.25460909  0.36992017  0.50393341  1
  O  O282  1  0.25483132  0.86903305  0.00546847  1
  O  O283  1  0.25609595  0.86885004  0.50577562  1
  O  O284  1  0.74869002  0.37346708  0.01156627  1
  O  O285  1  0.75423286  0.37022823  0.50350325  1
  O  O286  1  0.75197637  0.86537475  0.00640734  1
  O  O287  1  0.75218506  0.86963352  0.50796434  1
  O  O288  1  0.13190161  0.49924679  0.24306402  1
  O  O289  1  0.13318194  0.49353967  0.74885053  1
  O  O290  1  0.13076237  0.99479499  0.24321172  1
  O  O291  1  0.13135892  0.99243376  0.74400741  1
  O  O292  1  0.62531404  0.48779317  0.24879565  1
  O  O293  1  0.63442210  0.49965324  0.74349939  1
  O  O294  1  0.62701269  0.99399671  0.24272572  1
  O  O295  1  0.62929453  0.99481492  0.74498009  1
  O  O296  1  0.36648895  0.00161283  0.25191588  1
  O  O297  1  0.36880451  -0.00163522  0.75779739  1
  O  O298  1  0.36906411  0.50472742  0.25562755  1
  O  O299  1  0.37022243  0.50525178  0.75500898  1
  O  O300  1  0.87412971  0.00748388  0.26024833  1
  O  O301  1  0.86829202  0.00764134  0.75572729  1
  O  O302  1  0.87205701  0.50275040  0.26367584  1
  O  O303  1  0.86400138  0.50581073  0.74943845  1
  O  O304  1  0.11804523  0.36942589  0.37299537  1
  O  O305  1  0.11785658  0.37014788  0.87023673  1
  O  O306  1  0.11615913  0.87583515  0.36912215  1
  O  O307  1  0.12133881  0.86827036  0.86987635  1
  O  O308  1  0.61864248  0.37419003  0.36558256  1
  O  O309  1  0.61708438  0.36638701  0.87055307  1
  O  O310  1  0.62135265  0.87078209  0.37047537  1
  O  O311  1  0.61909213  0.87067060  0.86963640  1
  O  O312  1  0.38060042  0.13375084  0.12547086  1
  O  O313  1  0.38282563  0.12600573  0.62737776  1
  O  O314  1  0.37467475  0.63107999  0.13195859  1
  O  O315  1  0.38022303  0.62984771  0.63081079  1
  O  O316  1  0.87957495  0.13082200  0.13038852  1
  O  O317  1  0.87446055  0.12325637  0.63699331  1
  O  O318  1  0.88275165  0.63232581  0.12790946  1
  O  O319  1  0.88023451  0.63180822  0.63021388  1
  O  O320  1  0.25725089  0.25788931  0.12585147  1
  O  O321  1  0.25058697  0.25536588  0.61828779  1
  O  O322  1  0.25460871  0.75556346  0.11892136  1
  O  O323  1  0.25684682  0.75464216  0.62083345  1
  O  O324  1  0.75512738  0.26031048  0.12424109  1
  O  O325  1  0.75117663  0.25715800  0.61805374  1
  O  O326  1  0.75569424  0.75623571  0.11800369  1
  O  O327  1  0.75453545  0.75505294  0.62153299  1
  O  O328  1  0.24495738  0.24293032  0.37782122  1
  O  O329  1  0.24447917  0.24360171  0.87678329  1
  O  O330  1  0.24933216  0.74328849  0.38238777  1
  O  O331  1  0.24488559  0.74372914  0.88008480  1
  O  O332  1  0.74859525  0.24357517  0.38182726  1
  O  O333  1  0.74142866  0.24407790  0.87478637  1
  O  O334  1  0.74729903  0.74404211  0.38016118  1
  O  O335  1  0.74534618  0.75193408  0.88463308  1
  O  O336  1  0.00658104  0.12433603  0.00668538  1
  O  O337  1  0.00543493  0.11935904  0.50421627  1
  O  O338  1  0.00604496  0.62014056  0.00570136  1
  O  O339  1  0.00968009  0.62716988  0.50515176  1
  O  O340  1  0.50514475  0.11822213  0.00557334  1
  O  O341  1  0.50507310  0.11954580  0.50374610  1
  O  O342  1  0.50103097  0.61364813  0.00044231  1
  O  O343  1  0.49951650  0.61719636  0.50701001  1
  O  O344  1  0.49400743  0.37956118  0.49453203  1
  O  O345  1  0.49824790  0.38427747  0.99262445  1
  O  O346  1  0.49633064  0.87995336  0.49586487  1
  O  O347  1  0.49457288  0.87984829  0.99510736  1
  O  O348  1  0.99276658  0.37702015  0.49207731  1
  O  O349  1  1.00083984  0.38079954  0.99021122  1
  O  O350  1  0.99932066  0.87750851  0.48848413  1
  O  O351  1  0.99858482  0.87746755  0.99168409  1
  O  O352  1  0.49336604  0.49405471  0.38084406  1
  O  O353  1  0.49528343  0.49501258  0.87992037  1
  O  O354  1  0.49921933  0.99317822  0.38202504  1
  O  O355  1  0.49511212  0.99395436  0.88102564  1
  O  O356  1  0.99051225  0.49564369  0.37614383  1
  O  O357  1  1.00086778  0.49021302  0.88080876  1
  O  O358  1  0.99286204  0.99201276  0.37322364  1
  O  O359  1  0.99413576  0.99263989  0.87484183  1
  O  O360  1  0.00665945  0.00808040  0.12549999  1
  O  O361  1  0.01294095  -0.00226572  0.62646781  1
  O  O362  1  0.00516984  0.50486527  0.12087925  1
  O  O363  1  0.00190707  0.50937713  0.62175487  1
  O  O364  1  0.50513255  0.00474062  0.11949185  1
  O  O365  1  0.50631595  0.00378475  0.61961236  1
  O  O366  1  0.49993960  0.50003004  0.11222462  1
  O  O367  1  0.50379773  0.50401549  0.62059368  1
  O  O368  1  0.24912459  0.38118204  0.23916798  1
  O  O369  1  0.24538195  0.37942812  0.74504546  1
  O  O370  1  0.24470876  0.87944131  0.24490149  1
  O  O371  1  0.24540380  0.87824423  0.74545809  1
  O  O372  1  0.74039927  0.37537051  0.24247826  1
  O  O373  1  0.74910268  0.38472545  0.74291635  1
  O  O374  1  0.74344148  0.87740870  0.24355270  1
  O  O375  1  0.74389596  0.88055205  0.74535082  1
  O  O376  1  0.25066828  0.11930500  0.25870292  1
  O  O377  1  0.25171976  0.11692257  0.75811003  1
  O  O378  1  0.25470393  0.61963113  0.25573822  1
  O  O379  1  0.25569938  0.61983582  0.75502191  1
  O  O380  1  0.75637888  0.12500888  0.25642080  1
  O  O381  1  0.75585371  0.11930360  0.75470332  1
  O  O382  1  0.75284988  0.62525705  0.26366105  1
  O  O383  1  0.75537147  0.61516476  0.74922883  1
  O  O384  1  0.36205518  0.12364061  0.37219298  1
  O  O385  1  0.36835278  0.11650005  0.87525414  1
  O  O386  1  0.36893320  0.61870650  0.37072425  1
  O  O387  1  0.36902679  0.62007963  0.86842008  1
  O  O388  1  0.87131856  0.11797539  0.37014309  1
  O  O389  1  0.86903398  0.12071477  0.86685429  1
  O  O390  1  0.86802501  0.61846726  0.37588957  1
  O  O391  1  0.87171748  0.62195963  0.86599669  1
  O  O392  1  0.13415824  0.38042739  0.12583283  1
  O  O393  1  0.13142520  0.37646423  0.63107263  1
  O  O394  1  0.13086058  0.88046290  0.12959710  1
  O  O395  1  0.13148513  0.87980915  0.63140446  1
  O  O396  1  0.63248625  0.37589688  0.13314485  1
  O  O397  1  0.63189219  0.38220759  0.62627794  1
  O  O398  1  0.63052607  0.88084597  0.13029995  1
  O  O399  1  0.63000621  0.88012033  0.63158013  1
  O  O400  1  0.11756772  0.25228685  0.25655175  1
  O  O401  1  0.12386202  0.25710325  0.75800862  1
  O  O402  1  0.11912174  0.75773737  0.25163518  1
  O  O403  1  0.12043243  0.75350183  0.75552979  1
  O  O404  1  0.61820625  0.26146814  0.25073084  1
  O  O405  1  0.61353924  0.24895605  0.75495129  1
  O  O406  1  0.62442869  0.75797521  0.25755560  1
  O  O407  1  0.61987653  0.75596875  0.75525198  1
  O  O408  1  0.38069067  0.24929792  0.23807352  1
  O  O409  1  0.38753784  0.24672995  0.74862143  1
  O  O410  1  0.37516327  0.74331901  0.24343002  1
  O  O411  1  0.38092520  0.74458274  0.74534675  1
  O  O412  1  0.88067910  0.24513821  0.24485792  1
  O  O413  1  0.87439220  0.23792123  0.74832013  1
  O  O414  1  0.88291569  0.74963020  0.24305239  1
  O  O415  1  0.88034102  0.74464608  0.74492370  1
  O  O416  1  0.37929131  0.49361739  0.49401400  1
  O  O417  1  0.38379302  0.49895737  0.99201996  1
  O  O418  1  0.38187307  0.99172476  0.49891353  1
  O  O419  1  0.38024041  0.99321124  0.99588030  1
  O  O420  1  0.87508389  0.49516968  0.48887108  1
  O  O421  1  0.88328209  0.49643620  0.99749791  1
  O  O422  1  0.87714261  0.99816772  0.48758685  1
  O  O423  1  0.87720818  0.99904788  0.99093940  1
  O  O424  1  0.12328049  0.00712880  0.00716861  1
  O  O425  1  0.12603890  -0.00075003  0.51379660  1
  O  O426  1  0.11970311  0.50606180  0.00577513  1
  O  O427  1  0.12411190  0.51344542  0.50140739  1
  O  O428  1  0.61890598  0.00474107  0.00535401  1
  O  O429  1  0.61996012  0.00510960  0.50580592  1
  O  O430  1  0.61346311  0.50183099  -0.00067565  1
  O  O431  1  0.61699977  0.50152598  0.50586968  1
  O  O432  1  0.36628638  0.36693906  0.12407270  1
  O  O433  1  0.36755239  0.37192738  0.61739522  1
  O  O434  1  0.36874555  0.86967298  0.11943195  1
  O  O435  1  0.37079486  0.86859108  0.62017132  1
  O  O436  1  0.86469475  0.36971306  0.12681465  1
  O  O437  1  0.86758897  0.37587275  0.61679097  1
  O  O438  1  0.86964299  0.87010050  0.12447732  1
  O  O439  1  0.86850166  0.86946004  0.62671967  1
  O  O440  1  0.13565289  0.13039470  0.37470684  1
  O  O441  1  0.12974579  0.12923967  0.87949413  1
  O  O442  1  0.13093002  0.62733903  0.38428518  1
  O  O443  1  0.13026106  0.62971627  0.88000933  1
  O  O444  1  0.63187038  0.12570516  0.38109264  1
  O  O445  1  0.62916163  0.12856601  0.88001727  1
  O  O446  1  0.63476829  0.63049542  0.37665515  1
  O  O447  1  0.62940351  0.63498891  0.87852167  1
