# generated using pymatgen
data_V3Zn3O8
_symmetry_space_group_name_H-M   'P 1'
_cell_length_a   17.08792813
_cell_length_b   17.08754123
_cell_length_c   17.08709369
_cell_angle_alpha   90.00301489
_cell_angle_beta   90.00850260
_cell_angle_gamma   89.99254713
_symmetry_Int_Tables_number   1
_chemical_formula_structural   V3Zn3O8
_chemical_formula_sum   'V96 Zn96 O256'
_cell_volume   4989.27194065
_cell_formula_units_Z   32
loop_
 _symmetry_equiv_pos_site_id
 _symmetry_equiv_pos_as_xyz
  1  'x, y, z'
loop_
 _atom_site_type_symbol
 _atom_site_label
 _atom_site_symmetry_multiplicity
 _atom_site_fract_x
 _atom_site_fract_y
 _atom_site_fract_z
 _atom_site_occupancy
  V  V0  1  0.37430888  0.49923850  0.37581937  1
  V  V1  1  0.87525503  0.62545619  0.25059042  1
  V  V2  1  0.62450636  0.37418500  0.25036827  1
  V  V3  1  0.62420362  0.49975195  0.12511420  1
  V  V4  1  0.12410356  0.50153704  0.12571128  1
  V  V5  1  0.75030088  0.25004669  0.00008986  1
  V  V6  1  0.62538975  0.74949738  0.37458007  1
  V  V7  1  0.24906377  0.00041868  0.74963364  1
  V  V8  1  0.74879437  0.37443869  0.62437626  1
  V  V9  1  0.50144596  0.12318938  0.12336891  1
  V  V10  1  0.37382746  0.37481231  0.50073104  1
  V  V11  1  0.87491053  0.12422480  0.24929309  1
  V  V12  1  0.24915048  0.62563933  0.37684956  1
  V  V13  1  0.87462572  0.37518474  0.49960139  1
  V  V14  1  0.00041754  0.00141321  0.00015097  1
  V  V15  1  -0.00106930  0.74942313  0.24941764  1
  V  V16  1  0.75084394  0.75078393  0.50073099  1
  V  V17  1  0.00066292  0.62521487  0.62614900  1
  V  V18  1  0.37512459  0.87558513  0.00061896  1
  V  V19  1  0.24934863  0.12737334  0.37747482  1
  V  V20  1  0.62474960  0.24951556  0.37414956  1
  V  V21  1  0.00023013  0.12575848  0.12500285  1
  V  V22  1  0.25053132  0.25068694  0.00043506  1
  V  V23  1  0.37418242  0.25041341  0.62492346  1
  V  V24  1  0.37467044  0.24965413  0.12441405  1
  V  V25  1  0.49890066  0.37485104  0.87550813  1
  V  V26  1  0.49993091  0.24881735  0.24938122  1
  V  V27  1  0.62636478  0.87397381  0.24775619  1
  V  V28  1  0.12510240  0.74953242  0.37655771  1
  V  V29  1  0.24861484  0.49909724  0.25065823  1
  V  V30  1  0.49989235  0.49947225  0.00053358  1
  V  V31  1  0.49922099  0.62481094  0.62508253  1
  V  V32  1  0.24950403  0.12560940  0.87535672  1
  V  V33  1  0.74973193  0.62456012  0.37556226  1
  V  V34  1  0.37479348  0.62644400  0.75091872  1
  V  V35  1  -0.00081863  0.50162053  0.00006790  1
  V  V36  1  0.62343345  0.50015241  0.62456735  1
  V  V37  1  0.62749602  0.74680845  0.87676899  1
  V  V38  1  0.49947390  0.24956740  0.74922905  1
  V  V39  1  0.12611889  -0.00037534  0.12609690  1
  V  V40  1  0.87576492  0.00137631  0.87424018  1
  V  V41  1  0.12653574  0.37586076  0.75054435  1
  V  V42  1  0.75164566  0.50171631  0.75230079  1
  V  V43  1  0.12524555  0.50029652  0.62659194  1
  V  V44  1  0.87463532  0.49935690  0.37652879  1
  V  V45  1  0.62467938  0.24915354  0.87422820  1
  V  V46  1  0.00030906  0.87630764  0.87423000  1
  V  V47  1  0.49856303  0.37500371  0.37565951  1
  V  V48  1  -0.00083118  0.37478498  0.37536978  1
  V  V49  1  0.37448175  0.75112809  0.62496958  1
  V  V50  1  0.12508928  0.75160823  0.87580457  1
  V  V51  1  0.74940284  0.24939494  0.49903917  1
  V  V52  1  0.62502020  0.12364486  0.49920241  1
  V  V53  1  -0.00018472  0.37579991  0.87566735  1
  V  V54  1  0.50036107  0.87463431  0.37389694  1
  V  V55  1  0.62404948  0.62501547  0.50064308  1
  V  V56  1  0.50051523  0.75067465  0.75070725  1
  V  V57  1  0.75004953  0.12584319  0.87420466  1
  V  V58  1  0.37690020  -0.00066854  0.37437190  1
  V  V59  1  0.87495794  0.12645209  0.74940687  1
  V  V60  1  0.74945537  0.00008685  0.74818411  1
  V  V61  1  0.12506145  0.87713924  0.74927739  1
  V  V62  1  0.50042758  0.12324549  0.62370374  1
  V  V63  1  0.37381752  0.74965604  0.12544278  1
  V  V64  1  0.87272845  0.87192722  0.00072310  1
  V  V65  1  0.12393281  0.37500836  0.25182004  1
  V  V66  1  0.75020959  -0.00239302  0.24636602  1
  V  V67  1  0.00061588  0.00087288  0.49937147  1
  V  V68  1  0.12504537  0.00173177  0.62482658  1
  V  V69  1  0.37546779  0.37462480  0.00041333  1
  V  V70  1  0.87544418  0.87532095  0.49996217  1
  V  V71  1  0.62412558  0.12301905  -0.00064199  1
  V  V72  1  0.50022443  0.74890960  0.24964603  1
  V  V73  1  0.37440440  0.62437845  0.25096235  1
  V  V74  1  0.24927413  0.75027161  0.00142241  1
  V  V75  1  0.87489887  0.25085420  0.12441731  1
  V  V76  1  -0.00026562  0.12588775  0.62433187  1
  V  V77  1  0.74989131  0.37400171  0.12515103  1
  V  V78  1  0.87518185  0.74979343  0.62533148  1
  V  V79  1  0.74966481  0.49967420  0.25053323  1
  V  V80  1  0.37634903  0.12443690  0.24970915  1
  V  V81  1  0.37503522  0.87451741  0.50013618  1
  V  V82  1  0.25112589  0.62515994  0.87528389  1
  V  V83  1  0.75036179  0.12439315  0.37299531  1
  V  V84  1  0.87496156  0.24980820  0.62504412  1
  V  V85  1  0.12480207  0.62519094  0.50174925  1
  V  V86  1  0.00052960  0.25062401  0.25039678  1
  V  V87  1  -0.00023133  0.75055574  0.74933197  1
  V  V88  1  0.12618325  0.25100506  0.87649669  1
  V  V89  1  0.50021648  0.62333048  0.12466571  1
  V  V90  1  0.62387330  0.37446049  0.74946520  1
  V  V91  1  0.62595265  0.87516955  0.74843010  1
  V  V92  1  0.24976502  0.37483435  0.62597407  1
  V  V93  1  0.25027552  -0.00072530  0.24939320  1
  V  V94  1  0.00116663  0.87576077  0.37578197  1
  V  V95  1  0.37570485  -0.00030229  0.87445251  1
  Zn  Zn96  1  0.12487860  0.25064685  0.37731172  1
  Zn  Zn97  1  0.24880092  0.87369793  0.12799992  1
  Zn  Zn98  1  0.87271059  0.74855667  0.12440970  1
  Zn  Zn99  1  0.74818285  0.87136306  0.12182420  1
  Zn  Zn100  1  0.62412988  -0.00375794  0.12007735  1
  Zn  Zn101  1  0.24924925  0.75021898  0.50202940  1
  Zn  Zn102  1  0.62643983  -0.00199520  0.62190577  1
  Zn  Zn103  1  0.12458586  0.12734483  0.50005941  1
  Zn  Zn104  1  0.49857402  0.50027850  0.50054952  1
  Zn  Zn105  1  0.25026732  0.37447243  0.12572866  1
  Zn  Zn106  1  0.12507508  0.12669293  0.00022214  1
  Zn  Zn107  1  0.24994632  0.87563821  0.62423130  1
  Zn  Zn108  1  -0.00244886  0.62732998  0.12254754  1
  Zn  Zn109  1  0.00043452  0.25087846  0.74998215  1
  Zn  Zn110  1  0.75099287  0.74477397  0.00187091  1
  Zn  Zn111  1  0.87419166  0.50173757  0.87591320  1
  Zn  Zn112  1  0.75344131  0.62346093  0.87826358  1
  Zn  Zn113  1  0.87353177  0.37604398  -0.00057453  1
  Zn  Zn114  1  0.75036787  0.87652176  0.62306108  1
  Zn  Zn115  1  0.62770367  0.62434142  0.00028313  1
  Zn  Zn116  1  0.87692299  -0.00015592  0.37404361  1
  Zn  Zn117  1  0.37522942  0.50017668  0.87537201  1
  Zn  Zn118  1  0.12437965  0.62732829  0.00095769  1
  Zn  Zn119  1  0.50202515  -0.00104693  -0.00054725  1
  Zn  Zn120  1  0.87533907  0.62481251  0.75145095  1
  Zn  Zn121  1  0.50083558  0.87513333  0.87511766  1
  Zn  Zn122  1  -0.00052144  0.49930955  0.50190848  1
  Zn  Zn123  1  0.24714728  0.25002804  0.50126372  1
  Zn  Zn124  1  0.25226422  0.49995644  0.75177091  1
  Zn  Zn125  1  0.50300362  -0.00104194  0.49914858  1
  Zn  Zn126  1  0.12646410  0.87381274  0.25137033  1
  Zn  Zn127  1  0.37468476  0.12437938  0.74871312  1
  Zn  Zn128  1  0.18776777  0.18729238  0.18879925  1
  Zn  Zn129  1  0.18695000  0.18826005  0.68940414  1
  Zn  Zn130  1  0.18637445  0.68627144  0.18897865  1
  Zn  Zn131  1  0.18849228  0.68986434  0.68771567  1
  Zn  Zn132  1  0.68683412  0.18539190  0.18559775  1
  Zn  Zn133  1  0.68670348  0.18700201  0.68638153  1
  Zn  Zn134  1  0.68956058  0.68782614  0.18473828  1
  Zn  Zn135  1  0.68788204  0.68735747  0.68713468  1
  Zn  Zn136  1  0.31194558  0.31243292  0.31159234  1
  Zn  Zn137  1  0.31342781  0.31189488  0.81193618  1
  Zn  Zn138  1  0.31111796  0.81229818  0.31289688  1
  Zn  Zn139  1  0.31086905  0.81342830  0.81206246  1
  Zn  Zn140  1  0.81336412  0.31208684  0.31170444  1
  Zn  Zn141  1  0.81367007  0.31432720  0.81221674  1
  Zn  Zn142  1  0.81420080  0.81350361  0.31450824  1
  Zn  Zn143  1  0.81159043  0.81238598  0.81240853  1
  Zn  Zn144  1  0.18632872  0.43792089  0.44014516  1
  Zn  Zn145  1  0.18790909  0.43823398  0.93930144  1
  Zn  Zn146  1  0.18748233  0.93916607  0.43748133  1
  Zn  Zn147  1  0.18835859  0.93821599  0.93898201  1
  Zn  Zn148  1  0.68633564  0.43794351  0.43821634  1
  Zn  Zn149  1  0.68525635  0.43631398  0.93820275  1
  Zn  Zn150  1  0.68853403  0.93800956  0.43518710  1
  Zn  Zn151  1  0.68831904  0.93688805  0.93417746  1
  Zn  Zn152  1  0.31180216  0.06363792  0.06166519  1
  Zn  Zn153  1  0.31399170  0.06048110  0.56169810  1
  Zn  Zn154  1  0.31212202  0.56179677  0.06227508  1
  Zn  Zn155  1  0.31101854  0.56168850  0.56330850  1
  Zn  Zn156  1  0.81262911  0.06194906  0.06202685  1
  Zn  Zn157  1  0.81300620  0.06117461  0.56226391  1
  Zn  Zn158  1  0.81283568  0.56420329  0.06303662  1
  Zn  Zn159  1  0.81282127  0.56308253  0.56447374  1
  Zn  Zn160  1  0.43665595  0.43649915  0.18754782  1
  Zn  Zn161  1  0.43547826  0.43939414  0.68875198  1
  Zn  Zn162  1  0.43866837  0.93780888  0.18615887  1
  Zn  Zn163  1  0.43911331  0.93754629  0.68773545  1
  Zn  Zn164  1  0.93677378  0.43758783  0.18781751  1
  Zn  Zn165  1  0.93789715  0.43727538  0.68752195  1
  Zn  Zn166  1  0.93815979  0.93591351  0.18652506  1
  Zn  Zn167  1  0.93730597  0.93815107  0.68559753  1
  Zn  Zn168  1  0.06385828  0.06280515  0.31219575  1
  Zn  Zn169  1  0.06259990  0.06504320  0.81182900  1
  Zn  Zn170  1  0.06112444  0.56264665  0.31483840  1
  Zn  Zn171  1  0.06508129  0.56364968  0.81181489  1
  Zn  Zn172  1  0.56401549  0.06031996  0.31067401  1
  Zn  Zn173  1  0.56173110  0.06148040  0.81121806  1
  Zn  Zn174  1  0.56154884  0.56152257  0.31286495  1
  Zn  Zn175  1  0.56237125  0.56249448  0.81305913  1
  Zn  Zn176  1  0.43611281  0.18879567  0.43898748  1
  Zn  Zn177  1  0.43719394  0.18629175  0.93776407  1
  Zn  Zn178  1  0.43761099  0.68795966  0.43814878  1
  Zn  Zn179  1  0.43960225  0.68841744  0.93818256  1
  Zn  Zn180  1  0.93695897  0.18711475  0.43678742  1
  Zn  Zn181  1  0.93793141  0.18880702  0.93859161  1
  Zn  Zn182  1  0.93874609  0.68723053  0.43871171  1
  Zn  Zn183  1  0.93642483  0.68507366  0.93321958  1
  Zn  Zn184  1  0.06384259  0.31456971  0.06273875  1
  Zn  Zn185  1  0.06337600  0.31107847  0.56093508  1
  Zn  Zn186  1  0.06081826  0.81465550  0.06292076  1
  Zn  Zn187  1  0.06242668  0.81352169  0.56279916  1
  Zn  Zn188  1  0.56258472  0.31095827  0.06181112  1
  Zn  Zn189  1  0.56101156  0.31155348  0.56119193  1
  Zn  Zn190  1  0.56160432  0.81177416  0.06211007  1
  Zn  Zn191  1  0.56154835  0.81115910  0.56287009  1
  O  O192  1  0.11903930  0.11543930  0.12474235  1
  O  O193  1  0.11773452  0.11910832  0.62543561  1
  O  O194  1  0.12141395  0.61247621  0.12478246  1
  O  O195  1  0.12062949  0.62117097  0.62147989  1
  O  O196  1  0.61895842  0.12365853  0.11705570  1
  O  O197  1  0.61565283  0.12601615  0.61798232  1
  O  O198  1  0.61721998  0.61702945  0.12635970  1
  O  O199  1  0.61884065  0.62064963  0.61978040  1
  O  O200  1  0.37936939  0.37969162  0.37948072  1
  O  O201  1  0.38208779  0.37547570  0.88193657  1
  O  O202  1  0.38104768  0.87850373  0.38115725  1
  O  O203  1  0.37404334  0.88288461  0.88336790  1
  O  O204  1  0.87841456  0.37989458  0.37989974  1
  O  O205  1  0.88755174  0.37779175  0.87681079  1
  O  O206  1  0.88337892  0.87648117  0.38271327  1
  O  O207  1  0.88102089  0.88192567  0.88055776  1
  O  O208  1  0.25674926  0.00775071  0.36936831  1
  O  O209  1  0.25714652  0.00489804  0.87056649  1
  O  O210  1  0.25465648  0.50573046  0.36980143  1
  O  O211  1  0.25131528  0.51353035  0.87594044  1
  O  O212  1  0.75199027  0.00599920  0.36260214  1
  O  O213  1  0.75659333  0.00715661  0.86806162  1
  O  O214  1  0.75399882  0.50471332  0.36965543  1
  O  O215  1  0.74897879  0.49630554  0.86288515  1
  O  O216  1  0.24022795  0.49944853  0.13118608  1
  O  O217  1  0.24318912  0.49329199  0.62836127  1
  O  O218  1  0.24134419  1.00135945  0.13033319  1
  O  O219  1  0.24415191  0.99928724  0.63171027  1
  O  O220  1  0.74420636  0.49353303  0.13191694  1
  O  O221  1  0.74325542  0.49364813  0.63189641  1
  O  O222  1  0.74864171  0.99783348  0.13628574  1
  O  O223  1  0.74682442  0.99822609  0.63273891  1
  O  O224  1  0.00385285  0.37000262  0.25569941  1
  O  O225  1  0.00637658  0.37534277  0.76094670  1
  O  O226  1  0.00024649  0.86509217  0.25656853  1
  O  O227  1  0.00536382  0.87150407  0.75565315  1
  O  O228  1  0.50499700  0.36847569  0.25548582  1
  O  O229  1  0.50499111  0.36951167  0.75483643  1
  O  O230  1  0.50479561  0.86802421  0.25465415  1
  O  O231  1  0.50948577  0.86924896  0.75096377  1
  O  O232  1  0.49562465  0.13022109  0.24501495  1
  O  O233  1  0.49979018  0.13093828  0.73984201  1
  O  O234  1  0.49379204  0.62945280  0.24536689  1
  O  O235  1  0.49488448  0.63106153  0.74441739  1
  O  O236  1  0.99446279  0.13030006  0.24446235  1
  O  O237  1  0.99199409  0.12757144  0.74371789  1
  O  O238  1  0.99374821  0.63480961  0.25270093  1
  O  O239  1  1.00109821  0.63318569  0.74387534  1
  O  O240  1  0.37055673  0.25507749  0.00521183  1
  O  O241  1  0.37262654  0.25753963  0.50723750  1
  O  O242  1  0.37009919  0.75781652  0.00501473  1
  O  O243  1  0.37487912  0.75915746  0.50522166  1
  O  O244  1  0.86793954  0.25172532  0.00686608  1
  O  O245  1  0.86750025  0.25523663  0.50475180  1
  O  O246  1  0.87739357  0.76190247  -0.00189505  1
  O  O247  1  0.87011097  0.75507609  0.50501478  1
  O  O248  1  0.12950354  0.24530034  0.49522862  1
  O  O249  1  0.13232528  0.24994486  0.99492398  1
  O  O250  1  0.12609185  0.74382903  0.49435592  1
  O  O251  1  0.13031781  0.75049923  0.99441435  1
  O  O252  1  0.63055173  0.24495807  0.49315138  1
  O  O253  1  0.63087386  0.24403635  0.99330282  1
  O  O254  1  0.63015228  0.74463681  0.49414804  1
  O  O255  1  0.62466555  0.75053993  0.98752194  1
  O  O256  1  0.49488911  0.24373399  0.13057795  1
  O  O257  1  0.49515972  0.24232061  0.62958989  1
  O  O258  1  0.49360797  0.74331322  0.13081561  1
  O  O259  1  0.49461061  0.74368448  0.63119409  1
  O  O260  1  0.99529002  0.24608066  0.13002602  1
  O  O261  1  0.99191809  0.24455196  0.62647182  1
  O  O262  1  0.99914189  0.74903393  0.13751911  1
  O  O263  1  0.99537919  0.74515143  0.63059681  1
  O  O264  1  -0.00072758  0.25649183  0.36710117  1
  O  O265  1  0.00606626  0.26105331  0.87667182  1
  O  O266  1  0.00545247  0.75476999  0.36817818  1
  O  O267  1  0.00619351  0.75684696  0.86919887  1
  O  O268  1  0.50499045  0.25466060  0.36873427  1
  O  O269  1  0.50523111  0.25413688  0.86924357  1
  O  O270  1  0.50579315  0.75383061  0.36834806  1
  O  O271  1  0.50900610  0.75186986  0.86814377  1
  O  O272  1  0.25156174  0.12467869  0.48771875  1
  O  O273  1  0.24873219  0.13267101  0.99300625  1
  O  O274  1  0.24361927  0.62700407  0.49387892  1
  O  O275  1  0.24986126  0.63193947  0.99126028  1
  O  O276  1  0.74547508  0.13036420  0.49343825  1
  O  O277  1  0.74532718  0.13025668  0.99335747  1
  O  O278  1  0.74409890  0.63042125  0.49472819  1
  O  O279  1  0.74525111  0.62595536  0.99617801  1
  O  O280  1  0.25721662  0.36896679  0.00214086  1
  O  O281  1  0.25660889  0.37385191  0.50754557  1
  O  O282  1  0.26026815  0.86936363  0.00204011  1
  O  O283  1  0.26383851  0.87401914  0.49980370  1
  O  O284  1  0.75022283  0.36789155  0.00695063  1
  O  O285  1  0.75373412  0.36872949  0.50462345  1
  O  O286  1  0.76295381  0.87495701  -0.00229968  1
  O  O287  1  0.75603786  0.86811333  0.49941335  1
  O  O288  1  0.12801374  0.49599174  0.24374118  1
  O  O289  1  0.12855934  0.49357906  0.74439598  1
  O  O290  1  0.13046661  0.99921127  0.24047407  1
  O  O291  1  0.12918908  0.99568440  0.74517658  1
  O  O292  1  0.62984463  0.49353356  0.24571926  1
  O  O293  1  0.63126485  0.49344282  0.74411942  1
  O  O294  1  0.63516219  0.99307090  0.24830849  1
  O  O295  1  0.63027360  0.99030998  0.75044839  1
  O  O296  1  0.37064508  0.00530374  0.25468298  1
  O  O297  1  0.36914085  -0.00092322  0.75983924  1
  O  O298  1  0.36898601  0.50471934  0.25539541  1
  O  O299  1  0.37255411  0.51026444  0.75462727  1
  O  O300  1  0.86683203  0.00530063  0.24940623  1
  O  O301  1  0.87010180  0.00591674  0.75522345  1
  O  O302  1  0.86852323  0.50449408  0.25671755  1
  O  O303  1  0.86197529  0.49852601  0.74941034  1
  O  O304  1  0.11760606  0.37552916  0.36879191  1
  O  O305  1  0.11858110  0.37127180  0.87129647  1
  O  O306  1  0.11879496  0.86843118  0.37436554  1
  O  O307  1  0.11963771  0.87173168  0.87025504  1
  O  O308  1  0.61957545  0.36923139  0.36975204  1
  O  O309  1  0.61836355  0.36760397  0.86918879  1
  O  O310  1  0.61982988  0.86810404  0.36870634  1
  O  O311  1  0.62361482  0.86710419  0.86415676  1
  O  O312  1  0.38060600  0.13000774  0.13036303  1
  O  O313  1  0.38507129  0.13003208  0.62518133  1
  O  O314  1  0.37982528  0.62952157  0.13182099  1
  O  O315  1  0.37961738  0.63117426  0.63018739  1
  O  O316  1  0.88043157  0.13084129  0.12982070  1
  O  O317  1  0.87919406  0.13093343  0.63005446  1
  O  O318  1  0.87861984  0.62671694  0.13561985  1
  O  O319  1  0.88213512  0.63178114  0.62732043  1
  O  O320  1  0.25695280  0.25061514  0.11962916  1
  O  O321  1  0.25696590  0.25621315  0.62555107  1
  O  O322  1  0.25577319  0.74997156  0.12026402  1
  O  O323  1  0.25866085  0.75491300  0.62301933  1
  O  O324  1  0.75456981  0.25440463  0.12010385  1
  O  O325  1  0.75420932  0.25500151  0.61875568  1
  O  O326  1  0.75503145  0.75425242  0.12079982  1
  O  O327  1  0.75651188  0.75090285  0.61791288  1
  O  O328  1  0.25090688  0.23779287  0.37472053  1
  O  O329  1  0.24596326  0.24528193  0.88068678  1
  O  O330  1  0.24323626  0.74239089  0.37554306  1
  O  O331  1  0.24494886  0.74408968  0.88093648  1
  O  O332  1  0.74415033  0.24476108  0.37899000  1
  O  O333  1  0.74452599  0.24555828  0.87932593  1
  O  O334  1  0.74456663  0.74372579  0.38020068  1
  O  O335  1  0.73856205  0.74813743  0.87487333  1
  O  O336  1  0.00084829  0.11894959  0.00718602  1
  O  O337  1  -0.00064358  0.11854943  0.50621182  1
  O  O338  1  0.00348910  0.61418474  0.00027597  1
  O  O339  1  0.00674740  0.62329261  0.50782960  1
  O  O340  1  0.50668520  0.12441000  0.00543866  1
  O  O341  1  0.50587146  0.12538399  0.50803275  1
  O  O342  1  0.50120849  0.61819172  0.00794192  1
  O  O343  1  0.50637672  0.62439320  0.50673008  1
  O  O344  1  0.49318146  0.37615184  0.49290376  1
  O  O345  1  0.49534763  0.37862901  0.99489046  1
  O  O346  1  0.49168648  0.87449749  0.49286567  1
  O  O347  1  0.48587457  0.87585693  0.99744638  1
  O  O348  1  0.99149618  0.37592907  0.49371994  1
  O  O349  1  1.00083914  0.38402825  0.99175849  1
  O  O350  1  0.99504110  0.88090260  0.49489848  1
  O  O351  1  0.99269840  0.88194430  0.99318918  1
  O  O352  1  0.49254935  0.49291602  0.37556675  1
  O  O353  1  0.49991842  0.49249754  0.88192982  1
  O  O354  1  0.49414538  0.99267715  0.37398485  1
  O  O355  1  0.48721592  0.99791332  0.87589947  1
  O  O356  1  0.99172699  0.49301714  0.37702930  1
  O  O357  1  1.00396983  0.49163882  0.88373507  1
  O  O358  1  0.99972571  0.99428949  0.38043376  1
  O  O359  1  0.99513665  0.99625550  0.87973262  1
  O  O360  1  0.00763178  0.00580329  0.12107828  1
  O  O361  1  0.00503725  0.00656307  0.61965696  1
  O  O362  1  0.00777412  0.49964036  0.11758230  1
  O  O363  1  0.00688960  0.50648777  0.62511322  1
  O  O364  1  0.50214649  0.00816932  0.12155795  1
  O  O365  1  0.50270838  0.01197054  0.62350014  1
  O  O366  1  0.50479249  0.50385778  0.12150113  1
  O  O367  1  0.50627218  0.50685672  0.62473675  1
  O  O368  1  0.24316170  0.38196760  0.24893144  1
  O  O369  1  0.24430902  0.37670050  0.74468193  1
  O  O370  1  0.24794711  0.88346704  0.24812604  1
  O  O371  1  0.24238796  0.88271105  0.74936507  1
  O  O372  1  0.74364782  0.37964524  0.24570364  1
  O  O373  1  0.74332724  0.38070867  0.74375977  1
  O  O374  1  0.74601450  0.88338636  0.25071568  1
  O  O375  1  0.74111427  0.88102076  0.74862525  1
  O  O376  1  0.25732956  0.11953062  0.25765548  1
  O  O377  1  0.25251349  0.11815582  0.75751937  1
  O  O378  1  0.25534833  0.61880977  0.25660928  1
  O  O379  1  0.25587100  0.62773118  0.76115258  1
  O  O380  1  0.75431486  0.11734212  0.25303548  1
  O  O381  1  0.75474037  0.12095577  0.75538821  1
  O  O382  1  0.75446358  0.61887272  0.25689716  1
  O  O383  1  0.74919948  0.61122717  0.74954529  1
  O  O384  1  0.36990422  0.11961835  0.36931738  1
  O  O385  1  0.36935480  0.11466405  0.87422170  1
  O  O386  1  0.37009225  0.61981880  0.37001434  1
  O  O387  1  0.36594420  0.62768120  0.87027333  1
  O  O388  1  0.86769299  0.12387584  0.36660175  1
  O  O389  1  0.86984699  0.12128629  0.86986206  1
  O  O390  1  0.86852384  0.61927693  0.37150238  1
  O  O391  1  0.87164786  0.61883426  0.86812092  1
  O  O392  1  0.12551624  0.38657730  0.13223318  1
  O  O393  1  0.12945606  0.37981710  0.63095014  1
  O  O394  1  0.12584685  0.88814626  0.12712877  1
  O  O395  1  0.12542891  0.88321587  0.63155697  1
  O  O396  1  0.62964246  0.37882455  0.13181007  1
  O  O397  1  0.62919666  0.37888009  0.62944304  1
  O  O398  1  0.62642073  0.87622505  0.13232180  1
  O  O399  1  0.62610082  0.87447364  0.63664632  1
  O  O400  1  0.11793771  0.25692119  0.25088375  1
  O  O401  1  0.12265457  0.25806321  0.75847890  1
  O  O402  1  0.11512224  0.74962825  0.25683034  1
  O  O403  1  0.11956762  0.75788136  0.75577844  1
  O  O404  1  0.61988788  0.25451680  0.25487143  1
  O  O405  1  0.62003448  0.25541999  0.75486062  1
  O  O406  1  0.61973312  0.75375124  0.25574118  1
  O  O407  1  0.62102005  0.75691553  0.75576965  1
  O  O408  1  0.38128031  0.24423579  0.24457300  1
  O  O409  1  0.38262677  0.24771020  0.74344110  1
  O  O410  1  0.38031115  0.74395835  0.24559155  1
  O  O411  1  0.38080239  0.74709676  0.74520277  1
  O  O412  1  0.87991953  0.24430126  0.24333851  1
  O  O413  1  0.87521832  0.24438363  0.74299156  1
  O  O414  1  0.88490927  0.74446228  0.25276791  1
  O  O415  1  0.88240375  0.75108591  0.74346844  1
  O  O416  1  0.37618299  0.49357738  0.49336776  1
  O  O417  1  0.38229317  0.49292183  1.00001230  1
  O  O418  1  0.37948854  0.99009963  0.49324011  1
  O  O419  1  0.37296509  0.99166560  0.99116678  1
  O  O420  1  0.87392555  0.49272495  0.49434761  1
  O  O421  1  0.88761947  0.49647094  1.00014652  1
  O  O422  1  0.88197867  0.99357422  0.49798308  1
  O  O423  1  0.88042462  0.99377098  0.99361189  1
  O  O424  1  0.11948472  0.00157628  0.00921745  1
  O  O425  1  0.11857190  0.00251803  0.50702197  1
  O  O426  1  0.11729387  0.50066094  0.00969643  1
  O  O427  1  0.12248878  0.50713208  0.50845871  1
  O  O428  1  0.62309552  0.00663549  -0.00152502  1
  O  O429  1  0.62287404  0.00706464  0.50079423  1
  O  O430  1  0.61712279  0.49861828  0.00845518  1
  O  O431  1  0.62326141  0.50675023  0.50658008  1
  O  O432  1  0.37455093  0.36703605  0.11916795  1
  O  O433  1  0.37026473  0.37036965  0.62087945  1
  O  O434  1  0.37335682  0.86898076  0.11654507  1
  O  O435  1  0.37658167  0.87064330  0.61550905  1
  O  O436  1  0.86744810  0.36828587  0.12529292  1
  O  O437  1  0.86844630  0.36951154  0.61942533  1
  O  O438  1  0.87585311  0.87423572  0.11122473  1
  O  O439  1  0.87453395  0.86784135  0.61763678  1
  O  O440  1  0.13816575  0.12571330  0.37457098  1
  O  O441  1  0.13094754  0.13230832  0.87719784  1
  O  O442  1  0.12977871  0.62921209  0.38163976  1
  O  O443  1  0.13542184  0.63312574  0.87587106  1
  O  O444  1  0.63012999  0.13083682  0.37857019  1
  O  O445  1  0.63040505  0.13049569  0.87820762  1
  O  O446  1  0.62993625  0.62965532  0.37979700  1
  O  O447  1  0.62612389  0.63589788  0.87512170  1
