# generated using pymatgen
data_V3Zn3O8
_symmetry_space_group_name_H-M   'P 1'
_cell_length_a   17.08854167
_cell_length_b   17.08757786
_cell_length_c   17.08915849
_cell_angle_alpha   90.00483674
_cell_angle_beta   90.00532691
_cell_angle_gamma   90.00713784
_symmetry_Int_Tables_number   1
_chemical_formula_structural   V3Zn3O8
_chemical_formula_sum   'V96 Zn96 O256'
_cell_volume   4990.06473025
_cell_formula_units_Z   32
loop_
 _symmetry_equiv_pos_site_id
 _symmetry_equiv_pos_as_xyz
  1  'x, y, z'
loop_
 _atom_site_type_symbol
 _atom_site_label
 _atom_site_symmetry_multiplicity
 _atom_site_fract_x
 _atom_site_fract_y
 _atom_site_fract_z
 _atom_site_occupancy
  V  V0  1  0.62511064  0.62487292  0.49990615  1
  V  V1  1  0.74946478  0.50061616  0.24948334  1
  V  V2  1  0.50041014  0.50013471  0.00063028  1
  V  V3  1  0.62361349  0.37499073  0.74996810  1
  V  V4  1  0.25021367  0.37331006  0.62604525  1
  V  V5  1  0.74955075  0.37653420  0.12487759  1
  V  V6  1  0.25036617  0.12428500  0.37468767  1
  V  V7  1  0.87540502  0.25016268  0.62516707  1
  V  V8  1  0.50037523  0.37521414  0.37479579  1
  V  V9  1  0.00045079  0.62506696  0.12603069  1
  V  V10  1  0.87476474  0.75133375  0.12493494  1
  V  V11  1  0.37506932  0.87493606  0.00049992  1
  V  V12  1  0.75160919  0.87530123  0.62377210  1
  V  V13  1  0.25027947  0.49938452  0.25027050  1
  V  V14  1  -0.00057032  0.49957760  0.00090598  1
  V  V15  1  0.87407228  0.12579838  0.24919402  1
  V  V16  1  0.50089921  0.74997866  0.24951501  1
  V  V17  1  0.12523539  0.62399086  0.50179431  1
  V  V18  1  0.12479002  0.50009722  0.12571358  1
  V  V19  1  0.25072106  0.62383887  0.37503526  1
  V  V20  1  0.87539571  0.75077381  0.62513980  1
  V  V21  1  0.24781305  0.12379378  0.87572588  1
  V  V22  1  0.24940121  -0.00121956  0.75022833  1
  V  V23  1  0.75068479  0.75196920  0.00056361  1
  V  V24  1  0.62505451  0.75032733  0.87480350  1
  V  V25  1  0.49980248  0.00211775  -0.00021805  1
  V  V26  1  0.12529468  0.62563927  0.00044813  1
  V  V27  1  0.74944471  0.00066271  0.24820035  1
  V  V28  1  0.87561200  0.62608129  0.25087882  1
  V  V29  1  0.12518714  0.00004685  0.12480124  1
  V  V30  1  0.50097772  0.25013777  0.24975096  1
  V  V31  1  0.75130956  0.75127446  0.50003543  1
  V  V32  1  0.24932936  0.24927261  0.49983354  1
  V  V33  1  0.37484348  0.62444121  0.75075079  1
  V  V34  1  0.12755413  0.87507213  0.25082911  1
  V  V35  1  0.62587831  0.00028999  0.62391339  1
  V  V36  1  0.87484810  0.50017448  0.87427288  1
  V  V37  1  0.12410752  0.37392480  0.25085309  1
  V  V38  1  0.37512360  0.12442305  0.25032828  1
  V  V39  1  0.00148138  0.75004859  0.25119417  1
  V  V40  1  0.49999309  0.12589634  0.12481699  1
  V  V41  1  0.37459034  0.24865551  0.62634456  1
  V  V42  1  0.62447831  0.12553869  0.49950577  1
  V  V43  1  0.87578615  0.50039119  0.37626378  1
  V  V44  1  0.00036938  0.12425941  0.62381050  1
  V  V45  1  0.12449377  0.74950146  0.87604872  1
  V  V46  1  0.12445368  0.37244092  0.75170640  1
  V  V47  1  0.87417759  0.25050104  0.12468939  1
  V  V48  1  0.37445416  0.12397587  0.74950164  1
  V  V49  1  0.24991670  0.49831134  0.75027833  1
  V  V50  1  0.37540746  0.75003717  0.12500819  1
  V  V51  1  0.62646001  0.87559796  0.24910252  1
  V  V52  1  0.49948774  -0.00158171  0.49932502  1
  V  V53  1  -0.00088071  0.25079816  0.25047441  1
  V  V54  1  0.62600893  0.75081066  0.37395404  1
  V  V55  1  0.74847699  0.25075873  -0.00160801  1
  V  V56  1  0.37634939  0.87440202  0.50000017  1
  V  V57  1  0.87541392  0.62459456  0.75014545  1
  V  V58  1  0.62424672  0.62572958  -0.00014067  1
  V  V59  1  0.25071677  0.74898780  0.50080119  1
  V  V60  1  0.62504210  0.50053108  0.12443452  1
  V  V61  1  0.74748040  0.12657880  0.87411587  1
  V  V62  1  0.74889908  0.12637726  0.37485099  1
  V  V63  1  -0.00040161  0.12392585  0.12397576  1
  V  V64  1  0.62456503  0.25037363  0.37516139  1
  V  V65  1  0.00024197  0.37324359  0.87482804  1
  V  V66  1  0.75038749  0.37549364  0.62465687  1
  V  V67  1  -0.00027931  0.37479114  0.37544782  1
  V  V68  1  0.75095523  0.62593796  0.37485434  1
  V  V69  1  0.24939060  0.62512568  0.87621695  1
  V  V70  1  0.75070485  0.50077589  0.75005173  1
  V  V71  1  0.37497745  0.74859330  0.62577484  1
  V  V72  1  0.87520294  -0.00196572  0.87578222  1
  V  V73  1  0.62512460  0.00106117  0.12419963  1
  V  V74  1  0.12417886  0.87333182  0.75126903  1
  V  V75  1  0.62469813  0.50053618  0.62431551  1
  V  V76  1  0.12414227  -0.00028311  0.62432000  1
  V  V77  1  0.00009698  0.74990989  0.75154168  1
  V  V78  1  0.00202685  0.62407081  0.62506526  1
  V  V79  1  0.37372225  0.37550637  0.00038286  1
  V  V80  1  0.24935586  0.37443755  0.12466760  1
  V  V81  1  0.12609683  0.74998734  0.37524752  1
  V  V82  1  0.24978311  0.87387574  0.62571545  1
  V  V83  1  0.50071844  0.74993825  0.75046497  1
  V  V84  1  0.74929967  0.00126643  0.74890957  1
  V  V85  1  0.62475551  0.87432503  0.74934515  1
  V  V86  1  0.49941361  0.12512699  0.62550071  1
  V  V87  1  0.37458447  0.49994444  0.87587377  1
  V  V88  1  0.37609069  0.49910130  0.37543591  1
  V  V89  1  0.87809749  -0.00056583  0.37544666  1
  V  V90  1  0.24737393  0.24805298  -0.00054079  1
  V  V91  1  0.50036224  0.62390354  0.62442025  1
  V  V92  1  0.50006739  0.37448165  0.87394277  1
  V  V93  1  0.87486094  0.37563514  -0.00040707  1
  V  V94  1  0.37477619  -0.00061511  0.87532668  1
  V  V95  1  0.87587155  0.37643725  0.50029895  1
  Zn  Zn96  1  0.62241894  0.12760836  -0.00083504  1
  Zn  Zn97  1  0.75035857  0.62531500  0.87417227  1
  Zn  Zn98  1  0.12226481  0.12211642  -0.00169492  1
  Zn  Zn99  1  0.00275823  0.49938401  0.50138828  1
  Zn  Zn100  1  0.00197067  0.87610245  0.37816824  1
  Zn  Zn101  1  0.37532752  0.25043698  0.12495898  1
  Zn  Zn102  1  0.50051790  0.87637785  0.87363210  1
  Zn  Zn103  1  0.37580527  0.37518130  0.50168900  1
  Zn  Zn104  1  -0.00062725  -0.00160307  -0.00097238  1
  Zn  Zn105  1  0.12379989  0.24896203  0.37500250  1
  Zn  Zn106  1  0.00005504  0.87559744  0.87731465  1
  Zn  Zn107  1  0.49964870  0.87567173  0.37603586  1
  Zn  Zn108  1  0.12534016  0.49826215  0.62350072  1
  Zn  Zn109  1  0.87509742  0.12591062  0.74927388  1
  Zn  Zn110  1  0.62205119  0.25051693  0.87440659  1
  Zn  Zn111  1  0.74819456  0.25141433  0.49954821  1
  Zn  Zn112  1  0.12439548  0.12187477  0.49723839  1
  Zn  Zn113  1  0.37519120  0.62530094  0.24874299  1
  Zn  Zn114  1  0.37613999  -0.00299727  0.37482331  1
  Zn  Zn115  1  0.25215947  -0.00050857  0.25054378  1
  Zn  Zn116  1  0.62516618  0.37585293  0.25020885  1
  Zn  Zn117  1  0.49918257  0.62309043  0.12462815  1
  Zn  Zn118  1  0.50017260  0.24948855  0.75082637  1
  Zn  Zn119  1  0.87795471  0.87571708  0.49947922  1
  Zn  Zn120  1  0.87801732  0.87524213  0.00128089  1
  Zn  Zn121  1  0.00142805  -0.00258865  0.50010603  1
  Zn  Zn122  1  0.11960726  0.24441307  0.87589692  1
  Zn  Zn123  1  -0.00067744  0.24884060  0.75169510  1
  Zn  Zn124  1  0.25119296  0.87610900  0.12630066  1
  Zn  Zn125  1  0.24944121  0.75025990  0.00164384  1
  Zn  Zn126  1  0.49988413  0.49885987  0.49970403  1
  Zn  Zn127  1  0.75256815  0.87796480  0.12384578  1
  Zn  Zn128  1  0.18635922  0.18776954  0.18723015  1
  Zn  Zn129  1  0.18653287  0.18640432  0.68772950  1
  Zn  Zn130  1  0.19013514  0.68745591  0.18804162  1
  Zn  Zn131  1  0.18677571  0.68656683  0.68901279  1
  Zn  Zn132  1  0.68599217  0.18800772  0.18735785  1
  Zn  Zn133  1  0.68663322  0.18969765  0.68803465  1
  Zn  Zn134  1  0.68780891  0.68673703  0.18519147  1
  Zn  Zn135  1  0.68862273  0.68734932  0.68699940  1
  Zn  Zn136  1  0.31379355  0.31171560  0.31240093  1
  Zn  Zn137  1  0.31204477  0.30995901  0.81406120  1
  Zn  Zn138  1  0.31324416  0.81281633  0.31393229  1
  Zn  Zn139  1  0.31169961  0.81151851  0.81409391  1
  Zn  Zn140  1  0.81147343  0.31372854  0.31277110  1
  Zn  Zn141  1  0.81196630  0.31292399  0.81083918  1
  Zn  Zn142  1  0.81253392  0.81494816  0.31127898  1
  Zn  Zn143  1  0.81119172  0.81311194  0.81219552  1
  Zn  Zn144  1  0.18730204  0.43629523  0.43798401  1
  Zn  Zn145  1  0.18606872  0.43695931  0.93691616  1
  Zn  Zn146  1  0.18903253  0.93855817  0.43876481  1
  Zn  Zn147  1  0.18820285  0.93579975  0.93876191  1
  Zn  Zn148  1  0.68798666  0.43732566  0.43808027  1
  Zn  Zn149  1  0.68715090  0.43782925  0.93621738  1
  Zn  Zn150  1  0.68867931  0.93731899  0.43616936  1
  Zn  Zn151  1  0.68643309  0.93758207  0.93719828  1
  Zn  Zn152  1  0.31128525  0.06222362  0.06438109  1
  Zn  Zn153  1  0.31287057  0.06114399  0.56243803  1
  Zn  Zn154  1  0.31257449  0.56351804  0.06280538  1
  Zn  Zn155  1  0.31119460  0.56070853  0.56261042  1
  Zn  Zn156  1  0.81137219  0.06382141  0.05953212  1
  Zn  Zn157  1  0.81233312  0.06414239  0.55972054  1
  Zn  Zn158  1  0.81187548  0.56503910  0.06230540  1
  Zn  Zn159  1  0.81339675  0.56335986  0.56263741  1
  Zn  Zn160  1  0.43748184  0.43563911  0.18759079  1
  Zn  Zn161  1  0.43744302  0.43681061  0.68763430  1
  Zn  Zn162  1  0.43992309  0.93834754  0.18781576  1
  Zn  Zn163  1  0.43813037  0.93704349  0.68635594  1
  Zn  Zn164  1  0.93632093  0.43755904  0.18868476  1
  Zn  Zn165  1  0.93978341  0.43859577  0.68691796  1
  Zn  Zn166  1  0.93945181  0.93619830  0.18826701  1
  Zn  Zn167  1  0.93722107  0.93772209  0.68998456  1
  Zn  Zn168  1  0.06310489  0.06397080  0.30961820  1
  Zn  Zn169  1  0.06110299  0.06236944  0.81004852  1
  Zn  Zn170  1  0.06282034  0.56163297  0.31446655  1
  Zn  Zn171  1  0.06284980  0.56093356  0.81249631  1
  Zn  Zn172  1  0.56161718  0.06176943  0.31343509  1
  Zn  Zn173  1  0.56175301  0.06203638  0.81169761  1
  Zn  Zn174  1  0.56254295  0.56409010  0.31105811  1
  Zn  Zn175  1  0.56342192  0.56253924  0.81316326  1
  Zn  Zn176  1  0.43718847  0.18773864  0.43809791  1
  Zn  Zn177  1  0.43498221  0.18849991  0.93640088  1
  Zn  Zn178  1  0.43852119  0.68644540  0.43683585  1
  Zn  Zn179  1  0.43963409  0.68752102  0.93736518  1
  Zn  Zn180  1  0.93676976  0.18770859  0.43907850  1
  Zn  Zn181  1  0.93619554  0.18551806  0.93865775  1
  Zn  Zn182  1  0.93960482  0.68837985  0.43902285  1
  Zn  Zn183  1  0.93740757  0.68688660  0.93725673  1
  Zn  Zn184  1  0.06250967  0.31154510  0.06321372  1
  Zn  Zn185  1  0.06327744  0.31136090  0.56198153  1
  Zn  Zn186  1  0.06013389  0.81458795  0.06162048  1
  Zn  Zn187  1  0.06103857  0.81306653  0.56170694  1
  Zn  Zn188  1  0.56313801  0.31292654  0.06182998  1
  Zn  Zn189  1  0.56042806  0.31294925  0.56136275  1
  Zn  Zn190  1  0.56238087  0.81515280  0.06301730  1
  Zn  Zn191  1  0.56319511  0.81198001  0.56287801  1
  O  O192  1  0.11867125  0.11459182  0.12748029  1
  O  O193  1  0.11641409  0.11890670  0.62498389  1
  O  O194  1  0.12008743  0.61955791  0.12099464  1
  O  O195  1  0.12021352  0.62390937  0.61976795  1
  O  O196  1  0.61757499  0.11867618  0.12357618  1
  O  O197  1  0.62009353  0.11950294  0.61977755  1
  O  O198  1  0.62315829  0.61805418  0.11751959  1
  O  O199  1  0.61995458  0.62032936  0.62002279  1
  O  O200  1  0.38059838  0.38397261  0.37501860  1
  O  O201  1  0.37873537  0.38139958  0.88041557  1
  O  O202  1  0.37716813  0.87607436  0.38429173  1
  O  O203  1  0.37607285  0.88031481  0.88397794  1
  O  O204  1  0.87942442  0.38062152  0.38029918  1
  O  O205  1  0.88003378  0.38071560  0.88003700  1
  O  O206  1  0.87697859  0.88789366  0.37324546  1
  O  O207  1  0.87379969  0.88730353  0.87464388  1
  O  O208  1  0.25365918  0.01245992  0.37357503  1
  O  O209  1  0.25534107  0.00404948  0.86972652  1
  O  O210  1  0.25780450  0.50321266  0.36954540  1
  O  O211  1  0.25546389  0.50523741  0.87050475  1
  O  O212  1  0.75745564  0.00673892  0.36809828  1
  O  O213  1  0.75471037  0.00786221  0.86973402  1
  O  O214  1  0.75567677  0.50651730  0.36954843  1
  O  O215  1  0.75743156  0.50142040  0.86829183  1
  O  O216  1  0.24424377  0.49486466  0.13009696  1
  O  O217  1  0.24987832  0.49183238  0.63300627  1
  O  O218  1  0.23903594  0.99847129  0.12991122  1
  O  O219  1  0.24514331  0.99350656  0.63110784  1
  O  O220  1  0.74603873  0.49604828  0.12966279  1
  O  O221  1  0.74498645  0.49538496  0.63074808  1
  O  O222  1  0.74397252  1.00127211  0.13089141  1
  O  O223  1  0.74515070  0.99612975  0.62902475  1
  O  O224  1  0.00388572  0.37006984  0.25494120  1
  O  O225  1  0.00949747  0.37480572  0.75554787  1
  O  O226  1  0.01250185  0.86840416  0.25267761  1
  O  O227  1  0.00713124  0.86750964  0.75184621  1
  O  O228  1  0.50176481  0.36813903  0.25694687  1
  O  O229  1  0.50577476  0.37518149  0.75654431  1
  O  O230  1  0.50663214  0.86472532  0.25120447  1
  O  O231  1  0.50664073  0.86799518  0.74948045  1
  O  O232  1  0.49225336  0.13005967  0.24611811  1
  O  O233  1  0.49249025  0.12450462  0.74298633  1
  O  O234  1  0.49891394  0.63849943  0.24711007  1
  O  O235  1  0.49424165  0.62979846  0.74458569  1
  O  O236  1  0.99311306  0.13198631  0.24404016  1
  O  O237  1  0.99704689  0.12819465  0.73675248  1
  O  O238  1  0.99554830  0.62983974  0.24523079  1
  O  O239  1  0.99524523  0.62983646  0.74522981  1
  O  O240  1  0.36285054  0.25622721  0.00144010  1
  O  O241  1  0.36386499  0.24975719  0.50668989  1
  O  O242  1  0.37814112  0.75846376  0.00821515  1
  O  O243  1  0.37018957  0.75320296  0.50648160  1
  O  O244  1  0.86866657  0.25649376  0.00579189  1
  O  O245  1  0.87277558  0.25657815  0.51057413  1
  O  O246  1  0.86575548  0.74851341  0.00506985  1
  O  O247  1  0.86831270  0.75051678  0.50671542  1
  O  O248  1  0.13851190  0.24656467  0.49878040  1
  O  O249  1  0.13619243  0.24830648  0.99904058  1
  O  O250  1  0.13234282  0.74471179  0.49508673  1
  O  O251  1  0.12630458  0.74295942  0.99551556  1
  O  O252  1  0.62536906  0.24280780  0.49358066  1
  O  O253  1  0.63329164  0.24847671  0.99571198  1
  O  O254  1  0.63130972  0.74436471  0.49467500  1
  O  O255  1  0.63112429  0.74652634  0.99593967  1
  O  O256  1  0.49829525  0.24446116  0.13096972  1
  O  O257  1  0.49212391  0.24244839  0.62561647  1
  O  O258  1  0.49231425  0.75018112  0.13307547  1
  O  O259  1  0.49462339  0.74334554  0.63074166  1
  O  O260  1  0.99307949  0.24540866  0.13044489  1
  O  O261  1  0.99162069  0.24258128  0.62514351  1
  O  O262  1  0.99555849  0.74342670  0.13180591  1
  O  O263  1  0.99501126  0.74415926  0.63216747  1
  O  O264  1  -0.00021296  0.25590433  0.36819514  1
  O  O265  1  -0.00046686  0.25663421  0.87247348  1
  O  O266  1  0.00846532  0.75024741  0.36807436  1
  O  O267  1  0.00665473  0.74931159  0.86828108  1
  O  O268  1  0.50454149  0.25502394  0.36991520  1
  O  O269  1  0.50009074  0.25856058  0.87248273  1
  O  O270  1  0.50684309  0.75021374  0.36522332  1
  O  O271  1  0.50657012  0.75189373  0.86750012  1
  O  O272  1  0.25135511  0.13254352  0.49155579  1
  O  O273  1  0.24935148  0.13333008  0.99548602  1
  O  O274  1  0.24556487  0.63059984  0.49527897  1
  O  O275  1  0.24299615  0.62555559  0.99395349  1
  O  O276  1  0.74181763  0.12723470  0.49266057  1
  O  O277  1  0.74809222  0.13214171  0.98931667  1
  O  O278  1  0.74508237  0.63147064  0.49439905  1
  O  O279  1  0.74411457  0.63618013  0.99864871  1
  O  O280  1  0.25344116  0.36810859  0.00419519  1
  O  O281  1  0.25143341  0.36445379  0.50554922  1
  O  O282  1  0.26419297  0.87306487  0.00272843  1
  O  O283  1  0.25568104  0.86805434  0.50676951  1
  O  O284  1  0.75650739  0.37141245  0.00469657  1
  O  O285  1  0.75735174  0.37413741  0.50735343  1
  O  O286  1  0.75057502  0.86195477  0.00151778  1
  O  O287  1  0.75183591  0.86866207  0.50640712  1
  O  O288  1  0.13009103  0.49426717  0.24466509  1
  O  O289  1  0.13157197  0.48821024  0.75068305  1
  O  O290  1  0.12594085  0.99075042  0.24277741  1
  O  O291  1  0.13090941  0.99285088  0.74456630  1
  O  O292  1  0.63232216  0.50043685  0.24328441  1
  O  O293  1  0.63069875  0.49590743  0.74359609  1
  O  O294  1  0.62963425  0.99567585  0.24497013  1
  O  O295  1  0.62992700  0.99454119  0.74334719  1
  O  O296  1  0.37469428  0.01180330  0.25155008  1
  O  O297  1  0.36855346  0.00349542  0.75474326  1
  O  O298  1  0.36929004  0.50099315  0.25918723  1
  O  O299  1  0.36950425  0.50525537  0.75643070  1
  O  O300  1  0.87024461  0.00657614  0.25591297  1
  O  O301  1  0.86656590  0.00269951  0.75812472  1
  O  O302  1  0.86942806  0.50673014  0.25554772  1
  O  O303  1  0.87038169  0.50465880  0.75467140  1
  O  O304  1  0.11873267  0.37305462  0.36788168  1
  O  O305  1  0.11903253  0.37343463  0.86692188  1
  O  O306  1  0.12707231  0.86929879  0.36627074  1
  O  O307  1  0.12556902  0.86815500  0.86813596  1
  O  O308  1  0.61859777  0.36954749  0.37369632  1
  O  O309  1  0.61806542  0.37598829  0.86771667  1
  O  O310  1  0.62489640  0.86764709  0.36755448  1
  O  O311  1  0.62317734  0.86900981  0.86691621  1
  O  O312  1  0.38014603  0.12624760  0.13537741  1
  O  O313  1  0.37941842  0.12853360  0.63069380  1
  O  O314  1  0.37768990  0.63629715  0.12633323  1
  O  O315  1  0.37941496  0.62918427  0.63107433  1
  O  O316  1  0.87859596  0.13099390  0.13003166  1
  O  O317  1  0.88151422  0.13349600  0.62417916  1
  O  O318  1  0.88127643  0.63030240  0.13153592  1
  O  O319  1  0.88098829  0.63098461  0.63092409  1
  O  O320  1  0.25020352  0.25551261  0.11558052  1
  O  O321  1  0.25491078  0.25253452  0.61770584  1
  O  O322  1  0.26298991  0.75253406  0.12402159  1
  O  O323  1  0.25573679  0.75387627  0.62087924  1
  O  O324  1  0.75526079  0.25586314  0.11969431  1
  O  O325  1  0.75923820  0.25630623  0.62333992  1
  O  O326  1  0.75594254  0.75059521  0.11594091  1
  O  O327  1  0.75565647  0.75530538  0.61983760  1
  O  O328  1  0.25094389  0.24198040  0.38335856  1
  O  O329  1  0.24840273  0.24301791  0.88506960  1
  O  O330  1  0.24586334  0.74339584  0.38098738  1
  O  O331  1  0.24341071  0.74202236  0.87690825  1
  O  O332  1  0.74369774  0.24414441  0.37586376  1
  O  O333  1  0.75088351  0.24151102  0.87912907  1
  O  O334  1  0.74594583  0.74465551  0.37909916  1
  O  O335  1  0.74430854  0.74851122  0.88380958  1
  O  O336  1  0.00169911  0.12174453  0.00912710  1
  O  O337  1  0.00243823  0.12351712  0.51179974  1
  O  O338  1  0.00515527  0.61879372  0.00662020  1
  O  O339  1  0.00791941  0.62512065  0.50720116  1
  O  O340  1  0.49833695  0.11985509  0.00635009  1
  O  O341  1  0.50478639  0.11905832  0.50594564  1
  O  O342  1  0.50614872  0.61766024  0.00118675  1
  O  O343  1  0.50721604  0.62357906  0.50641163  1
  O  O344  1  0.49572718  0.37841546  0.49102078  1
  O  O345  1  0.49340929  0.38088248  0.99473908  1
  O  O346  1  0.49419799  0.87972809  0.50073717  1
  O  O347  1  0.48943856  0.88200146  0.99870409  1
  O  O348  1  0.99419395  0.37591942  0.49367070  1
  O  O349  1  0.99441864  0.38030195  0.99592529  1
  O  O350  1  0.99590663  0.87876360  0.49559291  1
  O  O351  1  0.99563213  0.87945941  0.99444963  1
  O  O352  1  0.49140001  0.49563148  0.37390321  1
  O  O353  1  0.49341461  0.49507224  0.88082309  1
  O  O354  1  0.49788938  0.99703372  0.38391392  1
  O  O355  1  0.49208871  0.99930623  0.88091489  1
  O  O356  1  0.99262985  0.49339622  0.37588664  1
  O  O357  1  0.99446495  0.49405472  0.88191810  1
  O  O358  1  0.98891718  1.00222817  0.37414284  1
  O  O359  1  0.98676329  1.00124807  0.87386658  1
  O  O360  1  0.00930163  0.00570809  0.12675559  1
  O  O361  1  0.00407292  0.00876507  0.62558963  1
  O  O362  1  0.00476174  0.50514647  0.12083154  1
  O  O363  1  0.00391156  0.50858211  0.62280247  1
  O  O364  1  0.50526329  0.00694837  0.11981597  1
  O  O365  1  0.50663167  0.00533134  0.61951411  1
  O  O366  1  0.50573975  0.49998719  0.11837776  1
  O  O367  1  0.50586665  0.50663018  0.62377735  1
  O  O368  1  0.24456006  0.37910408  0.24475473  1
  O  O369  1  0.24284929  0.37838129  0.74728601  1
  O  O370  1  0.23912414  0.87608399  0.24934333  1
  O  O371  1  0.24503488  0.87898904  0.74453053  1
  O  O372  1  0.74933039  0.38293239  0.24295185  1
  O  O373  1  0.74480031  0.38195429  0.74363843  1
  O  O374  1  0.74364536  0.88256736  0.24700970  1
  O  O375  1  0.74356117  0.88068906  0.74307147  1
  O  O376  1  0.25906816  0.12779702  0.25806843  1
  O  O377  1  0.25451765  0.11778610  0.75498757  1
  O  O378  1  0.25147914  0.61737929  0.25703049  1
  O  O379  1  0.25559576  0.61879831  0.75612159  1
  O  O380  1  0.75525465  0.12032262  0.25523338  1
  O  O381  1  0.75005855  0.11987083  0.75786341  1
  O  O382  1  0.75624256  0.62098725  0.25543738  1
  O  O383  1  0.75729966  0.61862094  0.75048450  1
  O  O384  1  0.36782138  0.12536850  0.36607086  1
  O  O385  1  0.36785165  0.11820001  0.86915822  1
  O  O386  1  0.36948796  0.61607605  0.37303578  1
  O  O387  1  0.37014426  0.61959839  0.87019136  1
  O  O388  1  0.86948118  0.11919668  0.36883151  1
  O  O389  1  0.86367770  0.11768317  0.87258520  1
  O  O390  1  0.87030515  0.62099805  0.36995699  1
  O  O391  1  0.87456271  0.61744861  0.86785469  1
  O  O392  1  0.12926872  0.38163563  0.13067861  1
  O  O393  1  0.13107008  0.37430918  0.63523477  1
  O  O394  1  0.12603575  0.88142520  0.13466796  1
  O  O395  1  0.13109507  0.87842977  0.63155496  1
  O  O396  1  0.63244796  0.38282178  0.12566428  1
  O  O397  1  0.62991949  0.38102784  0.62898135  1
  O  O398  1  0.62680157  0.88336868  0.13167442  1
  O  O399  1  0.63176849  0.88037917  0.62977776  1
  O  O400  1  0.11702609  0.25699192  0.25008127  1
  O  O401  1  0.12489185  0.26176019  0.75292445  1
  O  O402  1  0.12199935  0.75656925  0.25454287  1
  O  O403  1  0.11987098  0.75382925  0.75625508  1
  O  O404  1  0.61842113  0.25104412  0.25742915  1
  O  O405  1  0.62169295  0.25963589  0.75185970  1
  O  O406  1  0.61903593  0.75430130  0.25289557  1
  O  O407  1  0.62067556  0.75455830  0.75401817  1
  O  O408  1  0.38127060  0.24006986  0.24830413  1
  O  O409  1  0.37420751  0.24129432  0.74372949  1
  O  O410  1  0.38395692  0.75191267  0.24195165  1
  O  O411  1  0.37985743  0.74387382  0.74536977  1
  O  O412  1  0.87898514  0.24563338  0.24379352  1
  O  O413  1  0.87616153  0.25016798  0.73597096  1
  O  O414  1  0.88067511  0.74445516  0.24586437  1
  O  O415  1  0.87954612  0.74447147  0.74511464  1
  O  O416  1  0.37445330  0.49876093  0.48653928  1
  O  O417  1  0.37935439  0.49503015  0.99490860  1
  O  O418  1  0.38180221  0.99203167  0.50121336  1
  O  O419  1  0.37898035  0.99280081  0.99646684  1
  O  O420  1  0.87664523  0.49482550  0.49327828  1
  O  O421  1  0.88021403  0.49540908  0.99567078  1
  O  O422  1  0.87505907  1.00026808  0.48639987  1
  O  O423  1  0.87296510  0.99805491  0.98804993  1
  O  O424  1  0.12460410  -0.00071116  0.01311780  1
  O  O425  1  0.12381704  0.00207833  0.50901558  1
  O  O426  1  0.11884668  0.50472108  0.00621001  1
  O  O427  1  0.12479440  0.50806906  0.50232261  1
  O  O428  1  0.61759320  0.00165923  0.00549413  1
  O  O429  1  0.62042173  0.00518116  0.50524097  1
  O  O430  1  0.62027181  0.50548341  0.00454861  1
  O  O431  1  0.62526555  0.50789966  0.50647922  1
  O  O432  1  0.36683685  0.37409235  0.11816001  1
  O  O433  1  0.36786275  0.36756128  0.62489800  1
  O  O434  1  0.37571066  0.86818382  0.11743918  1
  O  O435  1  0.36886498  0.86761361  0.62093584  1
  O  O436  1  0.86963699  0.37049478  0.11910652  1
  O  O437  1  0.87142866  0.36870717  0.62065389  1
  O  O438  1  0.87307170  0.86666221  0.12390592  1
  O  O439  1  0.86833275  0.86868491  0.62523970  1
  O  O440  1  0.13685493  0.12776414  0.37418591  1
  O  O441  1  0.13211459  0.12426480  0.87709817  1
  O  O442  1  0.13172033  0.63010965  0.38048516  1
  O  O443  1  0.12976905  0.62880846  0.88087281  1
  O  O444  1  0.62933478  0.13032175  0.37992329  1
  O  O445  1  0.63664149  0.12574009  0.87535336  1
  O  O446  1  0.63204858  0.63092008  0.37955836  1
  O  O447  1  0.62721956  0.63192096  0.88155550  1
