# generated using pymatgen
data_V3Zn3O8
_symmetry_space_group_name_H-M   'P 1'
_cell_length_a   17.09035901
_cell_length_b   17.08968815
_cell_length_c   17.08969864
_cell_angle_alpha   89.98540710
_cell_angle_beta   89.99919077
_cell_angle_gamma   90.00325513
_symmetry_Int_Tables_number   1
_chemical_formula_structural   V3Zn3O8
_chemical_formula_sum   'V96 Zn96 O256'
_cell_volume   4991.36941185
_cell_formula_units_Z   32
loop_
 _symmetry_equiv_pos_site_id
 _symmetry_equiv_pos_as_xyz
  1  'x, y, z'
loop_
 _atom_site_type_symbol
 _atom_site_label
 _atom_site_symmetry_multiplicity
 _atom_site_fract_x
 _atom_site_fract_y
 _atom_site_fract_z
 _atom_site_occupancy
  V  V0  1  0.37572183  0.87575072  0.50070565  1
  V  V1  1  0.50072256  0.75028956  0.75064022  1
  V  V2  1  0.87526220  0.87432246  0.49892900  1
  V  V3  1  0.25041705  0.87416563  0.12405264  1
  V  V4  1  0.87597423  0.12516344  0.74845716  1
  V  V5  1  0.74920184  0.74958038  0.00029395  1
  V  V6  1  0.87546611  0.12590753  0.24992285  1
  V  V7  1  0.12530120  0.74996600  0.37484540  1
  V  V8  1  0.62619093  0.00062824  0.62490212  1
  V  V9  1  0.37450563  0.25018947  0.62687365  1
  V  V10  1  0.87438320  0.62511161  0.75039159  1
  V  V11  1  0.74948922  0.24938786  -0.00138317  1
  V  V12  1  0.37563929  0.24938305  0.12493107  1
  V  V13  1  -0.00008575  0.62491219  0.12450228  1
  V  V14  1  0.12513137  0.24986168  0.37306166  1
  V  V15  1  0.75045945  0.12639749  0.87501894  1
  V  V16  1  0.62506053  0.87467675  0.75061261  1
  V  V17  1  0.87474264  0.37538466  -0.00019685  1
  V  V18  1  0.37294257  0.37451171  0.00183819  1
  V  V19  1  0.37368251  0.50094155  0.37543021  1
  V  V20  1  0.74969161  0.37478589  0.12478488  1
  V  V21  1  0.75003904  0.37460289  0.62437200  1
  V  V22  1  0.12383179  0.49965770  0.62416960  1
  V  V23  1  0.12542001  0.62592204  0.49885052  1
  V  V24  1  0.75007329  0.12620056  0.37578538  1
  V  V25  1  0.37397736  0.62479663  0.24960222  1
  V  V26  1  0.49934378  0.50151243  0.50143382  1
  V  V27  1  0.87513158  0.74998082  0.62429925  1
  V  V28  1  0.75027686  0.00028197  0.75018404  1
  V  V29  1  0.37415050  0.62478363  0.75060647  1
  V  V30  1  0.00115040  0.37381578  0.37389878  1
  V  V31  1  0.12552234  0.24910641  0.87462863  1
  V  V32  1  0.87469216  0.37458184  0.50056328  1
  V  V33  1  0.49964752  0.25014295  0.75018930  1
  V  V34  1  0.87490170  0.49988311  0.37436947  1
  V  V35  1  0.25123303  -0.00002880  0.25036143  1
  V  V36  1  0.12542536  0.00066649  0.12426605  1
  V  V37  1  0.62395109  0.62572051  0.50128823  1
  V  V38  1  0.87510134  0.00022273  0.37423076  1
  V  V39  1  0.50084820  0.37470577  0.87488358  1
  V  V40  1  0.37508285  0.87366413  0.00017583  1
  V  V41  1  0.24829603  0.37462270  0.62453654  1
  V  V42  1  0.87521722  0.75005951  0.12544698  1
  V  V43  1  -0.00070647  0.74981059  0.24868376  1
  V  V44  1  0.12427290  0.74970101  0.87496932  1
  V  V45  1  0.12363179  0.37480577  0.74970661  1
  V  V46  1  -0.00028217  0.12545685  0.12549867  1
  V  V47  1  0.50013276  0.49974509  0.00110797  1
  V  V48  1  0.00024224  -0.00011761  -0.00034269  1
  V  V49  1  0.12551037  0.87528721  0.24947557  1
  V  V50  1  0.49988821  0.75025748  0.24985764  1
  V  V51  1  0.62475844  0.62561230  -0.00025302  1
  V  V52  1  0.62519650  0.75061901  0.37449639  1
  V  V53  1  0.62494079  0.49889170  0.12576710  1
  V  V54  1  0.49911358  0.62481278  0.62535940  1
  V  V55  1  0.62525898  0.00021055  0.12482828  1
  V  V56  1  0.50138355  0.37318387  0.37413282  1
  V  V57  1  0.75075981  0.87482418  0.62531654  1
  V  V58  1  0.74824700  0.49993803  0.75013983  1
  V  V59  1  0.00000043  0.62504231  0.62423836  1
  V  V60  1  0.12580032  0.12518660  -0.00153734  1
  V  V61  1  0.25030873  0.74995689  -0.00000900  1
  V  V62  1  -0.00028350  0.87498515  0.87474817  1
  V  V63  1  0.50081700  -0.00066769  0.00016577  1
  V  V64  1  0.24940033  0.62531691  0.37520098  1
  V  V65  1  0.12423010  0.62396483  0.00086966  1
  V  V66  1  0.00063644  0.12413598  0.62379575  1
  V  V67  1  0.87429653  0.50032141  0.87502128  1
  V  V68  1  -0.00053446  0.75041276  0.74964133  1
  V  V69  1  0.74954211  0.87595497  0.12565655  1
  V  V70  1  0.12549957  0.87505255  0.74937483  1
  V  V71  1  0.00109075  -0.00032751  0.49964831  1
  V  V72  1  0.25170626  0.12435881  0.37531166  1
  V  V73  1  0.74982586  0.74905006  0.49915428  1
  V  V74  1  0.37627988  0.12362162  0.24977400  1
  V  V75  1  0.74924438  -0.00002091  0.24924878  1
  V  V76  1  0.62619036  0.12768572  0.49983663  1
  V  V77  1  0.87456674  0.87520984  0.00016778  1
  V  V78  1  0.87529706  0.00040310  0.87478830  1
  V  V79  1  0.00033023  0.87529080  0.37413970  1
  V  V80  1  0.25080074  0.87491636  0.62523891  1
  V  V81  1  0.25036808  0.24875287  0.49994897  1
  V  V82  1  0.75009374  0.50001155  0.25126106  1
  V  V83  1  -0.00032447  0.50071670  0.00121097  1
  V  V84  1  0.49991944  -0.00039913  0.49961706  1
  V  V85  1  0.37538627  0.00024281  0.87449852  1
  V  V86  1  0.24897543  0.50099047  0.75029217  1
  V  V87  1  0.37463481  0.75061528  0.62474943  1
  V  V88  1  0.37436133  0.37542052  0.50045225  1
  V  V89  1  -0.00027388  0.49955176  0.49887023  1
  V  V90  1  0.50073158  0.12306972  0.12470324  1
  V  V91  1  0.87513543  0.24939229  0.12534568  1
  V  V92  1  0.25122121  0.00128555  0.75076644  1
  V  V93  1  0.50120627  0.87454554  0.87465748  1
  V  V94  1  0.24950604  0.62465262  0.87474609  1
  V  V95  1  -0.00019481  0.37522781  0.87414922  1
  Zn  Zn96  1  0.24715134  0.37587711  0.12764404  1
  Zn  Zn97  1  0.75077100  0.25125679  0.49938842  1
  Zn  Zn98  1  0.75182595  0.62453279  0.37510750  1
  Zn  Zn99  1  0.62471587  0.12622479  -0.00160304  1
  Zn  Zn100  1  0.87523720  0.24958181  0.62435737  1
  Zn  Zn101  1  0.62375788  0.37265966  0.25013808  1
  Zn  Zn102  1  0.74982605  0.62655113  0.87500769  1
  Zn  Zn103  1  0.24728959  0.49715564  0.24728440  1
  Zn  Zn104  1  0.00099834  0.25154339  0.24888091  1
  Zn  Zn105  1  0.49833059  0.87594895  0.37416127  1
  Zn  Zn106  1  0.87534518  0.62522948  0.25086182  1
  Zn  Zn107  1  0.25004268  0.24834274  0.00004512  1
  Zn  Zn108  1  0.62260615  0.50020398  0.62619438  1
  Zn  Zn109  1  0.12710602  0.12174618  0.50050369  1
  Zn  Zn110  1  0.37358278  0.50039559  0.87652488  1
  Zn  Zn111  1  0.25052709  0.75177811  0.49981641  1
  Zn  Zn112  1  0.62629447  0.24920527  0.87470351  1
  Zn  Zn113  1  0.62445779  0.37561361  0.74923594  1
  Zn  Zn114  1  0.37563018  0.74888213  0.12455614  1
  Zn  Zn115  1  0.12652536  -0.00050337  0.62321351  1
  Zn  Zn116  1  -0.00119719  0.25034808  0.74694435  1
  Zn  Zn117  1  0.12635084  0.49558234  0.12651759  1
  Zn  Zn118  1  0.62622460  0.74966444  0.87518219  1
  Zn  Zn119  1  0.37589949  -0.00099257  0.37481557  1
  Zn  Zn120  1  0.49972758  0.12644082  0.62672310  1
  Zn  Zn121  1  0.62387037  0.87508924  0.25034484  1
  Zn  Zn122  1  0.12684132  0.37693961  0.24682901  1
  Zn  Zn123  1  0.50278541  0.24830043  0.25106469  1
  Zn  Zn124  1  0.37535259  0.12533161  0.75071502  1
  Zn  Zn125  1  0.62676799  0.25157953  0.37314634  1
  Zn  Zn126  1  0.49813917  0.62424327  0.12489857  1
  Zn  Zn127  1  0.25222830  0.12634252  0.87534539  1
  Zn  Zn128  1  0.18974897  0.18777638  0.18742775  1
  Zn  Zn129  1  0.18566281  0.18633079  0.68774488  1
  Zn  Zn130  1  0.18728956  0.68631462  0.18654768  1
  Zn  Zn131  1  0.18748183  0.68832144  0.68658633  1
  Zn  Zn132  1  0.68554613  0.18842652  0.18839631  1
  Zn  Zn133  1  0.68596332  0.18961712  0.68820510  1
  Zn  Zn134  1  0.68745025  0.68556338  0.18630338  1
  Zn  Zn135  1  0.68642480  0.68725331  0.68657141  1
  Zn  Zn136  1  0.31288649  0.31217652  0.31025503  1
  Zn  Zn137  1  0.31214093  0.31404353  0.81275136  1
  Zn  Zn138  1  0.31292116  0.81305774  0.31514977  1
  Zn  Zn139  1  0.31337527  0.81287425  0.81288868  1
  Zn  Zn140  1  0.81205552  0.31204866  0.31325206  1
  Zn  Zn141  1  0.81485080  0.31094195  0.81085247  1
  Zn  Zn142  1  0.81173253  0.81302622  0.31133058  1
  Zn  Zn143  1  0.81116144  0.81196889  0.81410913  1
  Zn  Zn144  1  0.18764916  0.43738946  0.43473918  1
  Zn  Zn145  1  0.18692639  0.43772831  0.93869534  1
  Zn  Zn146  1  0.18870301  0.93808882  0.43793913  1
  Zn  Zn147  1  0.18792886  0.93731726  0.93643015  1
  Zn  Zn148  1  0.68589752  0.43973204  0.43897684  1
  Zn  Zn149  1  0.68663908  0.43734471  0.93753757  1
  Zn  Zn150  1  0.68731852  0.93739041  0.43673088  1
  Zn  Zn151  1  0.68690177  0.93838922  0.93782279  1
  Zn  Zn152  1  0.31217655  0.06264978  0.06086955  1
  Zn  Zn153  1  0.31484746  0.06434418  0.56484494  1
  Zn  Zn154  1  0.31085863  0.56093049  0.06451635  1
  Zn  Zn155  1  0.31136566  0.56333200  0.56211431  1
  Zn  Zn156  1  0.81201949  0.06372750  0.06204326  1
  Zn  Zn157  1  0.81364548  0.06202048  0.56188374  1
  Zn  Zn158  1  0.81209503  0.56324807  0.06426870  1
  Zn  Zn159  1  0.81188354  0.56199419  0.56196696  1
  Zn  Zn160  1  0.43736077  0.43859009  0.18817570  1
  Zn  Zn161  1  0.43466733  0.43813305  0.68800278  1
  Zn  Zn162  1  0.43730808  0.93594670  0.18679547  1
  Zn  Zn163  1  0.43811016  0.93782191  0.68628049  1
  Zn  Zn164  1  0.93909636  0.43666254  0.18874015  1
  Zn  Zn165  1  0.93614613  0.43779633  0.68745319  1
  Zn  Zn166  1  0.93714405  0.93829976  0.18726898  1
  Zn  Zn167  1  0.93786455  0.93866836  0.68672302  1
  Zn  Zn168  1  0.06369236  0.06418611  0.31221360  1
  Zn  Zn169  1  0.06338830  0.06263914  0.81051484  1
  Zn  Zn170  1  0.06284504  0.56153605  0.30978937  1
  Zn  Zn171  1  0.06194273  0.56219248  0.81320289  1
  Zn  Zn172  1  0.56343972  0.06305440  0.31252093  1
  Zn  Zn173  1  0.56358754  0.06399321  0.81396415  1
  Zn  Zn174  1  0.56248369  0.56239149  0.31406742  1
  Zn  Zn175  1  0.56173396  0.56171267  0.81437586  1
  Zn  Zn176  1  0.43709387  0.18736455  0.43819037  1
  Zn  Zn177  1  0.43731673  0.18593130  0.93715400  1
  Zn  Zn178  1  0.43716201  0.68893393  0.43715321  1
  Zn  Zn179  1  0.43761556  0.68760233  0.93621326  1
  Zn  Zn180  1  0.93707017  0.18890682  0.43946777  1
  Zn  Zn181  1  0.93818130  0.18825006  0.93724445  1
  Zn  Zn182  1  0.93758490  0.68599245  0.43513981  1
  Zn  Zn183  1  0.93626681  0.68704996  0.93785895  1
  Zn  Zn184  1  0.06215969  0.31232044  0.06181937  1
  Zn  Zn185  1  0.06242406  0.30977982  0.55981335  1
  Zn  Zn186  1  0.06298396  0.81184270  0.06243863  1
  Zn  Zn187  1  0.06379147  0.81314402  0.56202438  1
  Zn  Zn188  1  0.56356497  0.31091697  0.06219900  1
  Zn  Zn189  1  0.56314502  0.31422462  0.56363968  1
  Zn  Zn190  1  0.56282597  0.81248005  0.06471996  1
  Zn  Zn191  1  0.56231027  0.81281134  0.56370240  1
  O  O192  1  0.12007626  0.12006306  0.11947870  1
  O  O193  1  0.11381757  0.12137685  0.62303916  1
  O  O194  1  0.11665811  0.62663515  0.11639134  1
  O  O195  1  0.11908012  0.61980768  0.61986038  1
  O  O196  1  0.61869727  0.11743405  0.12303472  1
  O  O197  1  0.62504413  0.11898105  0.61581668  1
  O  O198  1  0.62343053  0.61831037  0.11429647  1
  O  O199  1  0.61642862  0.62461140  0.61888856  1
  O  O200  1  0.38233249  0.38028747  0.38187283  1
  O  O201  1  0.38397100  0.37526333  0.88427424  1
  O  O202  1  0.37776676  0.87840011  0.38450171  1
  O  O203  1  0.38166504  0.87990666  0.88052075  1
  O  O204  1  0.88062093  0.38032653  0.38112985  1
  O  O205  1  0.88035120  0.38071555  0.88000211  1
  O  O206  1  0.88063843  0.88014483  0.37952496  1
  O  O207  1  0.88046454  0.88061938  0.88024999  1
  O  O208  1  0.25094166  0.00644938  0.36753742  1
  O  O209  1  0.25627083  -0.00232669  0.86505158  1
  O  O210  1  0.25742188  0.50797435  0.37490815  1
  O  O211  1  0.24969266  0.50669956  0.86805259  1
  O  O212  1  0.75596294  0.00462833  0.36965514  1
  O  O213  1  0.75665244  0.00461077  0.86946200  1
  O  O214  1  0.75497141  0.49970669  0.36642637  1
  O  O215  1  0.75555125  0.49961306  0.86492352  1
  O  O216  1  0.24613662  0.49586392  0.12771981  1
  O  O217  1  0.24294522  0.49473055  0.62973911  1
  O  O218  1  0.24410103  0.99417008  0.12987232  1
  O  O219  1  0.25050794  0.99409651  0.63547731  1
  O  O220  1  0.74602068  0.49410621  0.13242757  1
  O  O221  1  0.75066170  0.49285237  0.63503830  1
  O  O222  1  0.74597117  0.99545964  0.12962963  1
  O  O223  1  0.74638796  0.99363330  0.63057662  1
  O  O224  1  0.00161334  0.37075867  0.25962166  1
  O  O225  1  0.00601144  0.37533883  0.75586157  1
  O  O226  1  0.00582912  0.87077965  0.25452870  1
  O  O227  1  0.00436498  0.86990340  0.75514341  1
  O  O228  1  0.49948651  0.37584404  0.26353055  1
  O  O229  1  0.49806931  0.36908669  0.75879005  1
  O  O230  1  0.50131504  0.86335812  0.25269851  1
  O  O231  1  0.50572189  0.87026699  0.75426856  1
  O  O232  1  0.49347166  0.12393770  0.24292070  1
  O  O233  1  0.49930812  0.13786036  0.74928758  1
  O  O234  1  0.49117537  0.63313923  0.25171652  1
  O  O235  1  0.49439564  0.62962237  0.74585089  1
  O  O236  1  0.99315413  0.12568958  0.24303890  1
  O  O237  1  0.99440891  0.12250553  0.73951942  1
  O  O238  1  0.99830390  0.63337951  0.24286792  1
  O  O239  1  0.99488292  0.63047846  0.74401981  1
  O  O240  1  0.37564060  0.25754174  0.00733428  1
  O  O241  1  0.36977769  0.25624200  0.50660770  1
  O  O242  1  0.36836714  0.75576633  0.00059861  1
  O  O243  1  0.37506561  0.75700476  0.50756711  1
  O  O244  1  0.87020428  0.25600241  0.00518374  1
  O  O245  1  0.87165266  0.25921776  0.50335733  1
  O  O246  1  0.86993710  0.75637657  0.00536126  1
  O  O247  1  0.87054887  0.75488939  0.50450894  1
  O  O248  1  0.13227326  0.24725745  0.48963997  1
  O  O249  1  0.12559209  0.24424392  0.98951449  1
  O  O250  1  0.12520566  0.74391756  0.49279008  1
  O  O251  1  0.12984502  0.74508713  0.99336135  1
  O  O252  1  0.62529409  0.23718826  0.50025560  1
  O  O253  1  0.63408364  0.24742231  0.99709921  1
  O  O254  1  0.62929769  0.74628353  0.49323687  1
  O  O255  1  0.62981637  0.74088753  1.00110659  1
  O  O256  1  0.49002849  0.24295533  0.12426472  1
  O  O257  1  0.49370187  0.25375020  0.63528717  1
  O  O258  1  0.49902817  0.74704690  0.13779588  1
  O  O259  1  0.49446754  0.74479595  0.63146602  1
  O  O260  1  0.99243832  0.24225611  0.12502267  1
  O  O261  1  0.99896721  0.23734706  0.62491008  1
  O  O262  1  0.99429644  0.74644942  0.12927212  1
  O  O263  1  0.99447957  0.74507772  0.63006990  1
  O  O264  1  0.01003731  0.25404364  0.37593720  1
  O  O265  1  0.00986583  0.25618799  0.87357766  1
  O  O266  1  0.00481768  0.75629490  0.36893447  1
  O  O267  1  0.00403256  0.75549927  0.86929845  1
  O  O268  1  0.49999562  0.26229998  0.37615626  1
  O  O269  1  0.49900326  0.25865072  0.86715432  1
  O  O270  1  0.50919446  0.75046550  0.36729390  1
  O  O271  1  0.50212251  0.75699140  0.86793295  1
  O  O272  1  0.25036269  0.13104413  0.49441987  1
  O  O273  1  0.24126139  0.12608381  0.99568465  1
  O  O274  1  0.24291466  0.62764345  0.49418028  1
  O  O275  1  0.24469103  0.63055815  0.99381015  1
  O  O276  1  0.74109693  0.12339593  0.49533152  1
  O  O277  1  0.75145532  0.13160582  0.99252379  1
  O  O278  1  0.74321828  0.63202272  0.49986163  1
  O  O279  1  0.74084173  0.62997007  1.00004344  1
  O  O280  1  0.26423178  0.37282811  -0.00135832  1
  O  O281  1  0.25503019  0.36970719  0.50535902  1
  O  O282  1  0.25460327  0.86977514  0.00414973  1
  O  O283  1  0.25721685  0.87511994  0.50757195  1
  O  O284  1  0.75624378  0.37074196  0.00463681  1
  O  O285  1  0.75518632  0.37811710  0.50983457  1
  O  O286  1  0.75581278  0.87066381  0.00567915  1
  O  O287  1  0.75573012  0.86951471  0.50556109  1
  O  O288  1  0.12804961  0.49713272  0.24636843  1
  O  O289  1  0.12898433  0.49515543  0.74370774  1
  O  O290  1  0.13051152  0.99479465  0.24366219  1
  O  O291  1  0.13497727  0.99252448  0.75024484  1
  O  O292  1  0.63363627  0.49902867  0.24527635  1
  O  O293  1  0.63639031  0.49929001  0.74933699  1
  O  O294  1  0.63172328  0.99789522  0.24400114  1
  O  O295  1  0.63081045  0.99474256  0.74453977  1
  O  O296  1  0.36869649  0.00534092  0.25039761  1
  O  O297  1  0.36641386  -0.00136427  0.75527693  1
  O  O298  1  0.37711768  0.51232199  0.25696287  1
  O  O299  1  0.36637613  0.50700440  0.75152841  1
  O  O300  1  0.86967333  0.00558885  0.25498172  1
  O  O301  1  0.86921132  0.00387088  0.75573299  1
  O  O302  1  0.86555823  0.50008506  0.25535898  1
  O  O303  1  0.86717240  0.50573035  0.75480563  1
  O  O304  1  0.11953514  0.36415673  0.37681981  1
  O  O305  1  0.11967300  0.36804771  0.87025027  1
  O  O306  1  0.11981846  0.87021789  0.36864683  1
  O  O307  1  0.11869330  0.86889073  0.86985202  1
  O  O308  1  0.61234052  0.37531250  0.37726237  1
  O  O309  1  0.61124784  0.37381044  0.87457646  1
  O  O310  1  0.62327740  0.86186018  0.37396177  1
  O  O311  1  0.61885437  0.87479567  0.86806245  1
  O  O312  1  0.38052878  0.13078025  0.12857917  1
  O  O313  1  0.37907006  0.13505246  0.62952606  1
  O  O314  1  0.37667784  0.62798294  0.13696039  1
  O  O315  1  0.37927899  0.63065934  0.63083578  1
  O  O316  1  0.88018609  0.12931530  0.12999020  1
  O  O317  1  0.88399800  0.12368404  0.62994400  1
  O  O318  1  0.88187911  0.63310009  0.12540631  1
  O  O319  1  0.88091807  0.63060950  0.62983001  1
  O  O320  1  0.26530154  0.24938059  0.12198590  1
  O  O321  1  0.25324181  0.25583807  0.62078242  1
  O  O322  1  0.25021164  0.75695718  0.11755910  1
  O  O323  1  0.25693329  0.75677059  0.62442272  1
  O  O324  1  0.75609147  0.25511589  0.11929026  1
  O  O325  1  0.75148754  0.26333438  0.62441138  1
  O  O326  1  0.75526175  0.75585281  0.12040569  1
  O  O327  1  0.75588991  0.75553704  0.61963411  1
  O  O328  1  0.24433442  0.24444969  0.38048464  1
  O  O329  1  0.23694536  0.24960118  0.87480030  1
  O  O330  1  0.24229048  0.74420454  0.37711609  1
  O  O331  1  0.24353813  0.74514444  0.87946995  1
  O  O332  1  0.74749426  0.24219239  0.37908746  1
  O  O333  1  0.75077110  0.24471013  0.88040123  1
  O  O334  1  0.74170954  0.74873790  0.37988367  1
  O  O335  1  0.74705596  0.74734273  0.88355190  1
  O  O336  1  0.00486229  0.11834375  0.00535793  1
  O  O337  1  -0.00075931  0.11753525  0.50856823  1
  O  O338  1  0.00461981  0.62074344  0.00421061  1
  O  O339  1  0.00532465  0.61959099  0.50521969  1
  O  O340  1  0.50071248  0.11643683  0.00623148  1
  O  O341  1  0.50886088  0.11667942  0.50152335  1
  O  O342  1  0.50784141  0.61952978  0.00087768  1
  O  O343  1  0.50333983  0.62103464  0.50602090  1
  O  O344  1  0.49368066  0.38105606  0.49457428  1
  O  O345  1  0.49251538  0.37832096  0.99288595  1
  O  O346  1  0.49572424  0.88498264  0.50152893  1
  O  O347  1  0.49502862  0.87919639  0.99511255  1
  O  O348  1  0.99506867  0.38119783  0.49517864  1
  O  O349  1  0.99307688  0.38087830  0.99327678  1
  O  O350  1  0.99422158  0.87878519  0.49369555  1
  O  O351  1  0.99470753  0.88011287  0.99447848  1
  O  O352  1  0.49374302  0.49368844  0.38205901  1
  O  O353  1  0.49700995  0.49032150  0.88093739  1
  O  O354  1  0.50079764  0.99792567  0.38827248  1
  O  O355  1  0.49525682  0.99383734  0.87960925  1
  O  O356  1  0.99498564  0.49439056  0.38103019  1
  O  O357  1  0.99385164  0.49503818  0.88022093  1
  O  O358  1  0.99459124  0.99436661  0.37850865  1
  O  O359  1  0.99511086  0.99439364  0.87978095  1
  O  O360  1  0.00576982  0.00483067  0.11909040  1
  O  O361  1  0.00079640  0.00733804  0.61864481  1
  O  O362  1  -0.00136996  0.50702717  0.11710754  1
  O  O363  1  0.00465510  0.50566494  0.61930576  1
  O  O364  1  0.50512984  0.00316291  0.11949852  1
  O  O365  1  0.50728669  0.00197724  0.61605041  1
  O  O366  1  0.50717657  0.50110499  0.11876305  1
  O  O367  1  0.49917852  0.50651947  0.61956329  1
  O  O368  1  0.24861108  0.37817224  0.24734005  1
  O  O369  1  0.24349021  0.38106658  0.74411879  1
  O  O370  1  0.24461923  0.87941024  0.24446191  1
  O  O371  1  0.24569619  0.88213531  0.74577917  1
  O  O372  1  0.74920976  0.38547773  0.24429509  1
  O  O373  1  0.75138940  0.38460946  0.74275532  1
  O  O374  1  0.74915879  0.88232425  0.24299267  1
  O  O375  1  0.74587813  0.88040084  0.74465630  1
  O  O376  1  0.25655490  0.11868577  0.25458399  1
  O  O377  1  0.25025782  0.11221784  0.75174061  1
  O  O378  1  0.26079016  0.62781832  0.25662359  1
  O  O379  1  0.25372230  0.62063023  0.75482714  1
  O  O380  1  0.75593302  0.11874555  0.25523475  1
  O  O381  1  0.75556470  0.11909982  0.75380013  1
  O  O382  1  0.75190502  0.61161518  0.25021983  1
  O  O383  1  0.75549842  0.61592931  0.74932180  1
  O  O384  1  0.36938983  0.12341901  0.36840080  1
  O  O385  1  0.37223723  0.11624098  0.87175957  1
  O  O386  1  0.37010852  0.62130137  0.36884583  1
  O  O387  1  0.36746158  0.62368893  0.86827676  1
  O  O388  1  0.87047720  0.11902426  0.37046267  1
  O  O389  1  0.87164501  0.11859573  0.86920988  1
  O  O390  1  0.87236689  0.61635995  0.37219239  1
  O  O391  1  0.87351220  0.61851141  0.86807514  1
  O  O392  1  0.12810542  0.37446671  0.12663005  1
  O  O393  1  0.12884945  0.37999033  0.62899848  1
  O  O394  1  0.12977008  0.88105608  0.12966758  1
  O  O395  1  0.13141811  0.87556761  0.63234647  1
  O  O396  1  0.63198729  0.38180966  0.12523404  1
  O  O397  1  0.63642187  0.37997127  0.62643923  1
  O  O398  1  0.63243808  0.88175544  0.12694214  1
  O  O399  1  0.63186324  0.88020311  0.63047856  1
  O  O400  1  0.12475643  0.24886902  0.26351384  1
  O  O401  1  0.12230589  0.25629520  0.75809037  1
  O  O402  1  0.11915480  0.75629369  0.25475861  1
  O  O403  1  0.11865438  0.75462552  0.75546535  1
  O  O404  1  0.62016097  0.25452091  0.25419181  1
  O  O405  1  0.61313620  0.25516943  0.75213923  1
  O  O406  1  0.61767460  0.74782212  0.25800592  1
  O  O407  1  0.61902548  0.75662478  0.75088328  1
  O  O408  1  0.37880597  0.24258446  0.24006287  1
  O  O409  1  0.38340080  0.25147657  0.74552007  1
  O  O410  1  0.38377431  0.74156400  0.25272294  1
  O  O411  1  0.38082557  0.74479041  0.74493524  1
  O  O412  1  0.87537393  0.24283681  0.24302664  1
  O  O413  1  0.87946376  0.24101365  0.74623521  1
  O  O414  1  0.88126587  0.75007416  0.24324985  1
  O  O415  1  0.87989975  0.74585946  0.74417586  1
  O  O416  1  0.37960343  0.49518374  0.49562564  1
  O  O417  1  0.38178630  0.49055001  0.99977485  1
  O  O418  1  0.38587499  0.99561802  0.50160083  1
  O  O419  1  0.38059080  0.99280961  0.99489645  1
  O  O420  1  0.88076127  0.49499778  0.49485636  1
  O  O421  1  0.87888424  0.49486840  0.99462451  1
  O  O422  1  0.88006340  0.99285685  0.49322328  1
  O  O423  1  0.88076807  0.99459225  0.99470019  1
  O  O424  1  0.11916831  0.00392248  0.00445324  1
  O  O425  1  0.11671233  0.00103971  0.50204674  1
  O  O426  1  0.11644308  0.50726966  -0.00122415  1
  O  O427  1  0.11924772  0.50544513  0.50496785  1
  O  O428  1  0.61828706  0.00083633  0.00691505  1
  O  O429  1  0.61930698  0.00666740  0.50492159  1
  O  O430  1  0.62112367  0.50728321  0.00545899  1
  O  O431  1  0.61703555  0.50888270  0.50199829  1
  O  O432  1  0.37949922  0.36556312  0.11587465  1
  O  O433  1  0.36708987  0.37061371  0.61981448  1
  O  O434  1  0.36782606  0.87244483  0.11781286  1
  O  O435  1  0.37040008  0.86933102  0.62063938  1
  O  O436  1  0.86980143  0.36949738  0.11895578  1
  O  O437  1  0.86599206  0.37622214  0.61928802  1
  O  O438  1  0.87005631  0.87075952  0.11879123  1
  O  O439  1  0.87045180  0.86930878  0.61927465  1
  O  O440  1  0.13187807  0.13337248  0.37676701  1
  O  O441  1  0.12382259  0.13399343  0.87923468  1
  O  O442  1  0.12895029  0.63092808  0.38008762  1
  O  O443  1  0.12912833  0.63114654  0.87995042  1
  O  O444  1  0.63110152  0.12400216  0.38561167  1
  O  O445  1  0.63514790  0.12713010  0.87725272  1
  O  O446  1  0.62603703  0.63594606  0.38189786  1
  O  O447  1  0.62656724  0.62544002  0.88841995  1
