# generated using pymatgen
data_V3Zn3O8
_symmetry_space_group_name_H-M   'P 1'
_cell_length_a   17.08736329
_cell_length_b   17.08680616
_cell_length_c   17.08710359
_cell_angle_alpha   89.98825780
_cell_angle_beta   90.00222371
_cell_angle_gamma   89.99361721
_symmetry_Int_Tables_number   1
_chemical_formula_structural   V3Zn3O8
_chemical_formula_sum   'V96 Zn96 O256'
_cell_volume   4988.89525236
_cell_formula_units_Z   32
loop_
 _symmetry_equiv_pos_site_id
 _symmetry_equiv_pos_as_xyz
  1  'x, y, z'
loop_
 _atom_site_type_symbol
 _atom_site_label
 _atom_site_symmetry_multiplicity
 _atom_site_fract_x
 _atom_site_fract_y
 _atom_site_fract_z
 _atom_site_occupancy
  V  V0  1  0.25131993  0.24971537  0.50042284  1
  V  V1  1  0.00072832  0.37631189  0.37429537  1
  V  V2  1  0.37538860  0.24947613  0.12524518  1
  V  V3  1  0.25158193  0.12503564  0.37544739  1
  V  V4  1  0.00002291  0.75042567  0.24924819  1
  V  V5  1  0.12549698  0.37522622  0.24926527  1
  V  V6  1  0.37486075  0.75043003  0.62598452  1
  V  V7  1  -0.00128966  0.24890255  0.75041745  1
  V  V8  1  0.74954159  0.50039035  0.75029966  1
  V  V9  1  0.12628991  0.25059395  0.37485438  1
  V  V10  1  0.62500901  0.37484704  0.25100985  1
  V  V11  1  0.87704608  0.37411490  0.49980043  1
  V  V12  1  0.24905896  0.49923295  0.74845398  1
  V  V13  1  0.62437073  0.24994515  0.87588934  1
  V  V14  1  0.62740945  0.12558532  0.49981191  1
  V  V15  1  0.12488817  -0.00066994  0.62495398  1
  V  V16  1  0.12560008  0.12460580  0.50021727  1
  V  V17  1  0.24955092  0.74958638  0.49969135  1
  V  V18  1  0.12394126  0.87401486  0.75032025  1
  V  V19  1  -0.00028202  0.00024234  0.00027708  1
  V  V20  1  0.37572527  0.87549425  0.50051382  1
  V  V21  1  0.37545291  0.49924575  0.37506146  1
  V  V22  1  0.49955831  0.87433845  0.37593617  1
  V  V23  1  0.50154145  0.75057460  0.75113548  1
  V  V24  1  0.62536142  0.37560842  0.75025087  1
  V  V25  1  0.25019015  0.87484035  0.62547228  1
  V  V26  1  0.74961073  0.87488980  0.62550555  1
  V  V27  1  0.00041062  0.87497946  0.37480312  1
  V  V28  1  0.62366725  0.12532532  0.00050864  1
  V  V29  1  0.25037498  0.37537188  0.12386342  1
  V  V30  1  0.74988003  0.87521243  0.12364238  1
  V  V31  1  0.62659721  0.25042987  0.37504020  1
  V  V32  1  0.50148488  0.12452580  0.62581432  1
  V  V33  1  0.87471501  0.74938790  0.62494242  1
  V  V34  1  0.25000927  0.12450117  0.87398203  1
  V  V35  1  0.49856683  0.12465977  0.12583565  1
  V  V36  1  -0.00084712  0.49911051  -0.00146431  1
  V  V37  1  0.24965893  0.24984276  -0.00127148  1
  V  V38  1  0.24872233  0.62514187  0.87470999  1
  V  V39  1  0.37433179  0.50013162  0.87441182  1
  V  V40  1  -0.00001494  0.24977632  0.24858065  1
  V  V41  1  0.12333466  0.24988972  0.87371199  1
  V  V42  1  0.62627174  0.00052469  0.62600910  1
  V  V43  1  0.74924676  0.62629030  0.37583973  1
  V  V44  1  0.25058674  0.75084233  0.00115350  1
  V  V45  1  0.62672605  0.62822129  -0.00166772  1
  V  V46  1  0.37463435  0.12443222  0.75040756  1
  V  V47  1  0.74998140  0.37473634  0.12472842  1
  V  V48  1  0.87401469  0.49934593  0.87448376  1
  V  V49  1  0.87429573  0.62405243  0.74989988  1
  V  V50  1  0.50031413  0.25028930  0.75039499  1
  V  V51  1  0.12457113  0.62384359  -0.00146258  1
  V  V52  1  0.37599195  0.00011572  0.37620670  1
  V  V53  1  0.00071028  0.75072772  0.75041352  1
  V  V54  1  0.87502853  0.75086660  0.12310296  1
  V  V55  1  0.49951804  0.87498441  0.87711571  1
  V  V56  1  0.49920603  0.62594100  0.12630786  1
  V  V57  1  0.87495548  0.87515191  0.49997986  1
  V  V58  1  0.62492468  0.50051998  0.12570315  1
  V  V59  1  0.24955104  0.37550711  0.62601433  1
  V  V60  1  0.50089784  0.50043772  0.49988873  1
  V  V61  1  0.75007351  -0.00026898  0.75071527  1
  V  V62  1  0.87446848  0.62602311  0.24925577  1
  V  V63  1  0.37470139  0.62556872  0.74971858  1
  V  V64  1  0.37570315  0.12545629  0.25013575  1
  V  V65  1  0.87519693  -0.00101061  0.87701447  1
  V  V66  1  0.75039414  0.00212609  0.25152053  1
  V  V67  1  0.74834720  0.25089022  0.00147568  1
  V  V68  1  0.49821521  -0.00123157  0.00044994  1
  V  V69  1  0.37521234  0.37494974  0.49915439  1
  V  V70  1  0.37550531  0.24963426  0.62485555  1
  V  V71  1  0.25052757  0.50033186  0.24922149  1
  V  V72  1  0.12564490  0.00024209  0.12577611  1
  V  V73  1  0.24914674  0.62549801  0.37488450  1
  V  V74  1  -0.00093250  0.12505951  0.62556326  1
  V  V75  1  0.74947843  0.74911161  0.49946570  1
  V  V76  1  -0.00139548  0.37384524  0.87415941  1
  V  V77  1  0.75067006  0.50119940  0.25009190  1
  V  V78  1  0.37474614  0.37549450  -0.00030872  1
  V  V79  1  0.49953128  0.50114382  0.00031326  1
  V  V80  1  0.12384266  0.49992893  0.12306095  1
  V  V81  1  0.49950189  0.37565883  0.87481645  1
  V  V82  1  0.00015135  -0.00019781  0.49981121  1
  V  V83  1  0.12475999  0.12504208  -0.00006566  1
  V  V84  1  0.24964192  -0.00047362  0.24981934  1
  V  V85  1  0.25019661  0.00018359  0.75032783  1
  V  V86  1  0.62568233  0.49923994  0.62399250  1
  V  V87  1  0.37535451  0.62448338  0.24942879  1
  V  V88  1  0.87474905  0.00055296  0.37409711  1
  V  V89  1  0.50042026  0.75078124  0.25174203  1
  V  V90  1  -0.00045637  0.12679964  0.12649930  1
  V  V91  1  0.87470554  0.12482254  0.75002947  1
  V  V92  1  0.00200054  0.62196206  0.62231794  1
  V  V93  1  0.12610452  0.87586828  0.24932483  1
  V  V94  1  0.62423121  -0.00038930  0.12613891  1
  V  V95  1  0.12559087  0.74977778  0.37466749  1
  Zn  Zn96  1  0.12335827  0.37604981  0.74752767  1
  Zn  Zn97  1  0.50044338  0.62626666  0.62507721  1
  Zn  Zn98  1  0.50113544  -0.00136487  0.50056815  1
  Zn  Zn99  1  0.87556583  0.12757574  0.25092647  1
  Zn  Zn100  1  0.12471841  0.62298378  0.49887399  1
  Zn  Zn101  1  0.37287728  0.87623733  0.00240006  1
  Zn  Zn102  1  0.00119383  0.87322361  0.87681911  1
  Zn  Zn103  1  0.75041125  0.62817715  0.87494624  1
  Zn  Zn104  1  0.62609084  0.87489842  0.75113146  1
  Zn  Zn105  1  0.75431683  0.37322197  0.62451632  1
  Zn  Zn106  1  0.75141548  0.75095677  -0.00338849  1
  Zn  Zn107  1  0.87775755  0.87396730  -0.00078741  1
  Zn  Zn108  1  0.75311921  0.12597903  0.37598241  1
  Zn  Zn109  1  0.87433015  0.25028109  0.12565717  1
  Zn  Zn110  1  0.62369630  0.75128516  0.37876341  1
  Zn  Zn111  1  0.37399821  -0.00041413  0.87656269  1
  Zn  Zn112  1  0.12314322  0.75120308  0.87556335  1
  Zn  Zn113  1  0.25134367  0.87484777  0.12421585  1
  Zn  Zn114  1  0.00310889  0.50034254  0.49679231  1
  Zn  Zn115  1  0.49986937  0.25104964  0.25053397  1
  Zn  Zn116  1  0.12608809  0.49847771  0.62241416  1
  Zn  Zn117  1  0.87382584  0.37400311  0.00108868  1
  Zn  Zn118  1  -0.00089697  0.62452166  0.12344562  1
  Zn  Zn119  1  0.62438904  0.87483501  0.25346850  1
  Zn  Zn120  1  0.87341762  0.24975528  0.62478324  1
  Zn  Zn121  1  0.87754178  0.50026173  0.37480250  1
  Zn  Zn122  1  0.62907762  0.75064360  0.87423792  1
  Zn  Zn123  1  0.50054142  0.37444264  0.37328516  1
  Zn  Zn124  1  0.62500923  0.62532606  0.50056186  1
  Zn  Zn125  1  0.75248782  0.25097722  0.50240673  1
  Zn  Zn126  1  0.37440267  0.75248956  0.12442335  1
  Zn  Zn127  1  0.74851770  0.12499083  0.87603105  1
  Zn  Zn128  1  0.18765878  0.18705241  0.18716465  1
  Zn  Zn129  1  0.18632690  0.18814937  0.68787591  1
  Zn  Zn130  1  0.18599392  0.68639954  0.18554185  1
  Zn  Zn131  1  0.18592986  0.68731542  0.68797643  1
  Zn  Zn132  1  0.68581522  0.18776958  0.18727734  1
  Zn  Zn133  1  0.69108657  0.18878519  0.68712895  1
  Zn  Zn134  1  0.68617318  0.68856135  0.18797172  1
  Zn  Zn135  1  0.68706177  0.68575628  0.68680359  1
  Zn  Zn136  1  0.31309415  0.31299787  0.31213076  1
  Zn  Zn137  1  0.31169135  0.31244930  0.81162681  1
  Zn  Zn138  1  0.31364731  0.81282710  0.31272373  1
  Zn  Zn139  1  0.31288663  0.81286351  0.81538609  1
  Zn  Zn140  1  0.81336027  0.31254557  0.31282300  1
  Zn  Zn141  1  0.81146413  0.31293428  0.81333187  1
  Zn  Zn142  1  0.81245926  0.81312226  0.31144766  1
  Zn  Zn143  1  0.81279056  0.81199347  0.81242728  1
  Zn  Zn144  1  0.18644225  0.43926543  0.43942470  1
  Zn  Zn145  1  0.18568279  0.43662026  0.93459164  1
  Zn  Zn146  1  0.18821755  0.93669476  0.43690080  1
  Zn  Zn147  1  0.18551574  0.93659495  0.93617405  1
  Zn  Zn148  1  0.69123658  0.43657898  0.43671643  1
  Zn  Zn149  1  0.68785507  0.43898152  0.93730740  1
  Zn  Zn150  1  0.68590754  0.93638593  0.43766804  1
  Zn  Zn151  1  0.68582307  0.93768040  0.93766416  1
  Zn  Zn152  1  0.31259154  0.06179876  0.06209642  1
  Zn  Zn153  1  0.31347504  0.06195882  0.56326550  1
  Zn  Zn154  1  0.31253930  0.56467777  0.06257015  1
  Zn  Zn155  1  0.31312235  0.56357407  0.56313459  1
  Zn  Zn156  1  0.81352384  0.06551365  0.06329679  1
  Zn  Zn157  1  0.81235382  0.06230210  0.56327448  1
  Zn  Zn158  1  0.81243528  0.56194563  0.06152689  1
  Zn  Zn159  1  0.81544757  0.55869908  0.56110745  1
  Zn  Zn160  1  0.43937346  0.43671274  0.18779421  1
  Zn  Zn161  1  0.43682534  0.43755189  0.68639541  1
  Zn  Zn162  1  0.43419959  0.93562924  0.18649682  1
  Zn  Zn163  1  0.43845501  0.93808450  0.68837164  1
  Zn  Zn164  1  0.93586237  0.43696060  0.18626148  1
  Zn  Zn165  1  0.93768127  0.43687644  0.68751789  1
  Zn  Zn166  1  0.93748568  0.93871376  0.18751080  1
  Zn  Zn167  1  0.93696163  0.93722948  0.68868372  1
  Zn  Zn168  1  0.06294596  0.06352256  0.31269604  1
  Zn  Zn169  1  0.06151797  0.06174282  0.81279845  1
  Zn  Zn170  1  0.06174144  0.56326403  0.31076730  1
  Zn  Zn171  1  0.06307102  0.56156701  0.81094100  1
  Zn  Zn172  1  0.56238623  0.06213399  0.31292912  1
  Zn  Zn173  1  0.56291304  0.06163908  0.81345989  1
  Zn  Zn174  1  0.56390945  0.56297526  0.31371015  1
  Zn  Zn175  1  0.56229590  0.56354726  0.81280771  1
  Zn  Zn176  1  0.44148047  0.18726954  0.43750970  1
  Zn  Zn177  1  0.43720305  0.18666763  0.93774636  1
  Zn  Zn178  1  0.43554671  0.68613825  0.43768757  1
  Zn  Zn179  1  0.43657274  0.68818087  0.93722353  1
  Zn  Zn180  1  0.93815877  0.18858453  0.43598478  1
  Zn  Zn181  1  0.93469993  0.18728714  0.93895486  1
  Zn  Zn182  1  0.93624899  0.68809504  0.43729504  1
  Zn  Zn183  1  0.93843887  0.68568036  0.93595333  1
  Zn  Zn184  1  0.06154432  0.31316528  0.06104696  1
  Zn  Zn185  1  0.06169699  0.31231172  0.56342100  1
  Zn  Zn186  1  0.06396736  0.81380543  0.06179375  1
  Zn  Zn187  1  0.06271283  0.81044997  0.56265488  1
  Zn  Zn188  1  0.56230850  0.31303064  0.06385001  1
  Zn  Zn189  1  0.56289506  0.31321347  0.56197965  1
  Zn  Zn190  1  0.56241077  0.81279189  0.06448047  1
  Zn  Zn191  1  0.56399361  0.81299853  0.56303437  1
  O  O192  1  0.12023513  0.12017236  0.11901287  1
  O  O193  1  0.12034178  0.11871030  0.61908975  1
  O  O194  1  0.12307410  0.61643895  0.11762950  1
  O  O195  1  0.11315855  0.62588295  0.62294561  1
  O  O196  1  0.61790615  0.11908270  0.12028515  1
  O  O197  1  0.62088753  0.12156848  0.61804600  1
  O  O198  1  0.61913992  0.61982860  0.11872778  1
  O  O199  1  0.62174756  0.61050780  0.62353626  1
  O  O200  1  0.37626637  0.38135922  0.38126371  1
  O  O201  1  0.37997738  0.37984182  0.88055869  1
  O  O202  1  0.37917037  0.88092857  0.38144744  1
  O  O203  1  0.38745126  0.87718508  0.87784983  1
  O  O204  1  0.88287258  0.37549312  0.38192011  1
  O  O205  1  0.88105442  0.38189489  0.87675521  1
  O  O206  1  0.88115170  0.87990036  0.38041426  1
  O  O207  1  0.87693384  0.88816482  0.87648795  1
  O  O208  1  0.25555592  0.00611140  0.37038519  1
  O  O209  1  0.25030300  0.00710204  0.86810758  1
  O  O210  1  0.25560843  0.50492849  0.36851127  1
  O  O211  1  0.25605589  0.50462256  0.86973305  1
  O  O212  1  0.75532833  -0.00178404  0.36572537  1
  O  O213  1  0.75817533  0.00073916  0.87067274  1
  O  O214  1  0.75241403  0.51019389  0.36840320  1
  O  O215  1  0.75565684  0.50246747  0.86788565  1
  O  O216  1  0.24513335  0.49421725  0.12922021  1
  O  O217  1  0.25251056  0.49330175  0.63129462  1
  O  O218  1  0.24247246  1.00152048  0.13236453  1
  O  O219  1  0.24427272  0.99484729  0.63016342  1
  O  O220  1  0.74331524  0.49564624  0.13064493  1
  O  O221  1  0.74056404  0.49741765  0.63014638  1
  O  O222  1  0.74627182  0.99323951  0.13205278  1
  O  O223  1  0.74613008  0.99415051  0.63090260  1
  O  O224  1  0.00719316  0.37006711  0.25364726  1
  O  O225  1  0.00057643  0.36703916  0.75647391  1
  O  O226  1  0.00583876  0.87080424  0.25585458  1
  O  O227  1  0.00644717  0.86807112  0.74812573  1
  O  O228  1  0.50892983  0.37304995  0.25257230  1
  O  O229  1  0.50434512  0.36997765  0.75564302  1
  O  O230  1  0.49857285  0.86553123  0.25640830  1
  O  O231  1  0.50019268  0.86644919  0.75837113  1
  O  O232  1  0.49286110  0.12560556  0.24327787  1
  O  O233  1  0.49515091  0.13122986  0.74547095  1
  O  O234  1  0.49528068  0.63141534  0.24692898  1
  O  O235  1  0.49303549  0.63483360  0.75085440  1
  O  O236  1  1.00230099  0.13220454  0.24401464  1
  O  O237  1  0.99450998  0.12851550  0.74469090  1
  O  O238  1  0.99316048  0.63297449  0.24688105  1
  O  O239  1  0.99440071  0.63030949  0.74148412  1
  O  O240  1  0.36917304  0.25580871  0.00482123  1
  O  O241  1  0.37117579  0.25399838  0.50495704  1
  O  O242  1  0.36252131  0.74880870  0.00129567  1
  O  O243  1  0.36926763  0.75560378  0.50585519  1
  O  O244  1  0.86326102  0.25170003  0.00249935  1
  O  O245  1  0.87522033  0.25998807  0.50021971  1
  O  O246  1  0.87408484  0.75105013  0.01159593  1
  O  O247  1  0.86944303  0.75687732  0.50542592  1
  O  O248  1  0.13162946  0.24373430  0.49445802  1
  O  O249  1  0.13076498  0.24448874  0.99406797  1
  O  O250  1  0.13218156  0.74969053  0.49205465  1
  O  O251  1  0.13289189  0.74284296  0.99864871  1
  O  O252  1  0.62541550  0.24258109  0.49274735  1
  O  O253  1  0.62829268  0.24514347  0.99517284  1
  O  O254  1  0.63304976  0.74480722  0.50001116  1
  O  O255  1  0.62500662  0.73804076  1.00142128  1
  O  O256  1  0.49264627  0.24314002  0.12532239  1
  O  O257  1  0.49519399  0.24525649  0.63095183  1
  O  O258  1  0.49829119  0.74437144  0.13550192  1
  O  O259  1  0.49369426  0.75052014  0.63499797  1
  O  O260  1  1.00165672  0.24443617  0.13110255  1
  O  O261  1  0.99937852  0.24119081  0.63223318  1
  O  O262  1  0.99028061  0.75084180  0.13057652  1
  O  O263  1  0.99376294  0.74245203  0.62946334  1
  O  O264  1  0.00876927  0.25543602  0.36856877  1
  O  O265  1  0.00425309  0.25320583  0.87072949  1
  O  O266  1  0.00450917  0.75617990  0.36916315  1
  O  O267  1  0.00101750  0.75214442  0.86575059  1
  O  O268  1  0.51289576  0.25224260  0.37345576  1
  O  O269  1  0.50417259  0.25619466  0.87018929  1
  O  O270  1  0.49904579  0.75402503  0.36741784  1
  O  O271  1  0.49996231  0.75757189  0.86663822  1
  O  O272  1  0.24538010  0.12992819  0.49534130  1
  O  O273  1  0.24440633  0.13091674  0.99442502  1
  O  O274  1  0.25091125  0.63245465  0.49263033  1
  O  O275  1  0.24472658  0.63076423  0.99428694  1
  O  O276  1  0.73777859  0.12602431  0.49917711  1
  O  O277  1  0.74082597  0.13215663  1.00040513  1
  O  O278  1  0.75237742  0.62975068  0.49091210  1
  O  O279  1  0.73710879  0.62576485  1.00067259  1
  O  O280  1  0.25537321  0.36986770  0.00397934  1
  O  O281  1  0.25664667  0.36858419  0.50475199  1
  O  O282  1  0.24882382  0.86328772  -0.00056696  1
  O  O283  1  0.25554325  0.86980800  0.50560072  1
  O  O284  1  0.74697484  0.36826154  0.00720758  1
  O  O285  1  0.76342194  0.37405309  0.50027664  1
  O  O286  1  0.75181037  0.87526265  0.01390800  1
  O  O287  1  0.75616975  0.86966333  0.50523393  1
  O  O288  1  0.13141759  0.49459164  0.24344732  1
  O  O289  1  0.13455263  0.49754030  0.74621286  1
  O  O290  1  0.13046743  0.99552628  0.24616955  1
  O  O291  1  0.13020904  0.99549011  0.74322606  1
  O  O292  1  0.63075501  0.49583283  0.24478444  1
  O  O293  1  0.62764227  0.49542005  0.74287415  1
  O  O294  1  0.63366506  0.99838596  0.24457052  1
  O  O295  1  0.63213185  0.99962717  0.74372237  1
  O  O296  1  0.36914630  0.00614366  0.25628418  1
  O  O297  1  0.36796431  0.00709613  0.75053718  1
  O  O298  1  0.37002671  0.50426227  0.25474122  1
  O  O299  1  0.37061723  0.50536322  0.75556853  1
  O  O300  1  0.86614663  0.00051676  0.25587756  1
  O  O301  1  0.87078977  0.00483378  0.75815990  1
  O  O302  1  0.86769186  0.50811638  0.24956752  1
  O  O303  1  0.86899930  0.50463789  0.75445485  1
  O  O304  1  0.12241438  0.36935937  0.36857881  1
  O  O305  1  0.11768387  0.36683957  0.87261946  1
  O  O306  1  0.11943997  0.87007999  0.36944690  1
  O  O307  1  0.12163330  0.87340879  0.86453691  1
  O  O308  1  0.62555440  0.36641423  0.37017131  1
  O  O309  1  0.61758723  0.37086612  0.87015817  1
  O  O310  1  0.61609142  0.87168140  0.37348509  1
  O  O311  1  0.61264918  0.87246547  0.87360567  1
  O  O312  1  0.37890048  0.13039348  0.13053441  1
  O  O313  1  0.38072332  0.13060651  0.63008368  1
  O  O314  1  0.38211061  0.62526436  0.13228368  1
  O  O315  1  0.37720172  0.63290820  0.63207897  1
  O  O316  1  0.88481514  0.12758757  0.12876996  1
  O  O317  1  0.88264042  0.12367281  0.63156507  1
  O  O318  1  0.87362515  0.63612726  0.13050807  1
  O  O319  1  0.88219116  0.62987659  0.62959499  1
  O  O320  1  0.25496248  0.25536940  0.11839165  1
  O  O321  1  0.25661117  0.25352627  0.61954430  1
  O  O322  1  0.25037227  0.74929691  0.11343281  1
  O  O323  1  0.25523846  0.75609480  0.62039030  1
  O  O324  1  0.74722592  0.25686119  0.11843886  1
  O  O325  1  0.75464902  0.25555273  0.62156418  1
  O  O326  1  0.75802927  0.75954996  0.12755202  1
  O  O327  1  0.75569614  0.75425162  0.61993958  1
  O  O328  1  0.24604444  0.24449152  0.38075219  1
  O  O329  1  0.24450844  0.24458804  0.87983349  1
  O  O330  1  0.24552932  0.74514353  0.37960502  1
  O  O331  1  0.24841476  0.74295524  0.88360557  1
  O  O332  1  0.73761218  0.24658749  0.37633116  1
  O  O333  1  0.74115229  0.24901607  0.88280838  1
  O  O334  1  0.74971334  0.74241040  0.37973281  1
  O  O335  1  0.74689003  0.74726573  0.87923303  1
  O  O336  1  0.00636378  0.12052317  0.00583368  1
  O  O337  1  0.00667307  0.11888481  0.50439121  1
  O  O338  1  0.00670647  0.61719562  0.00121036  1
  O  O339  1  -0.00081904  0.62595271  0.51056880  1
  O  O340  1  0.50395427  0.11951685  0.00612816  1
  O  O341  1  0.51115129  0.12385368  0.50724799  1
  O  O342  1  0.50609908  0.62012374  0.00542237  1
  O  O343  1  0.50103399  0.61230223  0.50166815  1
  O  O344  1  0.49418829  0.38537359  0.49900705  1
  O  O345  1  0.49438411  0.38137267  0.99498830  1
  O  O346  1  0.49251065  0.87543227  0.49477699  1
  O  O347  1  0.49987649  0.87948992  0.99246841  1
  O  O348  1  0.99407382  0.37410803  0.49213108  1
  O  O349  1  0.99832865  0.38110562  0.99214696  1
  O  O350  1  0.99503019  0.88011630  0.49492323  1
  O  O351  1  0.99832962  0.88464892  0.99811016  1
  O  O352  1  0.49532791  0.49931730  0.38429671  1
  O  O353  1  0.49367747  0.49461830  0.88008446  1
  O  O354  1  0.49293679  0.99338769  0.37660645  1
  O  O355  1  0.49956592  0.99091944  0.88071640  1
  O  O356  1  0.99839331  0.49171371  0.37398058  1
  O  O357  1  0.99421044  0.49388923  0.87848218  1
  O  O358  1  0.99603256  0.99426362  0.38048542  1
  O  O359  1  0.99057956  1.00009327  0.88110374  1
  O  O360  1  0.00631224  0.00632074  0.12079826  1
  O  O361  1  0.00564911  0.00444802  0.61892318  1
  O  O362  1  0.00651537  0.50003621  0.11766403  1
  O  O363  1  0.00059134  0.51288576  0.62537656  1
  O  O364  1  0.50479929  0.00458544  0.12100971  1
  O  O365  1  0.50728997  0.00683888  0.62454495  1
  O  O366  1  0.50529444  0.50577622  0.11978645  1
  O  O367  1  0.50678507  0.50048236  0.61649282  1
  O  O368  1  0.24538387  0.38048542  0.24346443  1
  O  O369  1  0.25051557  0.38106006  0.74352613  1
  O  O370  1  0.24336909  0.88201154  0.25102611  1
  O  O371  1  0.24544604  0.87989202  0.74453198  1
  O  O372  1  0.74411303  0.38160659  0.24511886  1
  O  O373  1  0.74210719  0.38258098  0.74918619  1
  O  O374  1  0.74910584  0.88437173  0.24084807  1
  O  O375  1  0.74910166  0.88118109  0.74272540  1
  O  O376  1  0.25530887  0.12000028  0.25637134  1
  O  O377  1  0.25468575  0.11998221  0.75410383  1
  O  O378  1  0.25509929  0.61945876  0.25465405  1
  O  O379  1  0.25597693  0.62053086  0.75486405  1
  O  O380  1  0.75032174  0.11160226  0.24993312  1
  O  O381  1  0.75664234  0.11749257  0.75291886  1
  O  O382  1  0.75425716  0.62199653  0.25709281  1
  O  O383  1  0.75669404  0.61804309  0.74977228  1
  O  O384  1  0.37061652  0.12089165  0.37103714  1
  O  O385  1  0.36807377  0.12524532  0.86761473  1
  O  O386  1  0.36850944  0.61814822  0.36898541  1
  O  O387  1  0.36931556  0.61849263  0.86956329  1
  O  O388  1  0.87272943  0.11640861  0.37288662  1
  O  O389  1  0.87321290  0.11341620  0.86988292  1
  O  O390  1  0.86473140  0.62627270  0.36793760  1
  O  O391  1  0.87427130  0.61709153  0.86704602  1
  O  O392  1  0.13178952  0.37989601  0.12923447  1
  O  O393  1  0.13436350  0.37530939  0.62698496  1
  O  O394  1  0.12716571  0.88273948  0.13259094  1
  O  O395  1  0.13100881  0.88033499  0.62923036  1
  O  O396  1  0.62944942  0.38162511  0.13072875  1
  O  O397  1  0.62363680  0.38569609  0.63131932  1
  O  O398  1  0.63420455  0.88079129  0.12823794  1
  O  O399  1  0.63248334  0.88258128  0.62587367  1
  O  O400  1  0.12229594  0.25630201  0.25550393  1
  O  O401  1  0.11728369  0.24920702  0.75722969  1
  O  O402  1  0.11986409  0.75553810  0.25462328  1
  O  O403  1  0.11866407  0.75689691  0.75043514  1
  O  O404  1  0.62375537  0.25495539  0.25881600  1
  O  O405  1  0.61895907  0.25531809  0.75561048  1
  O  O406  1  0.61115545  0.75044231  0.25273382  1
  O  O407  1  0.61268064  0.75045770  0.74987741  1
  O  O408  1  0.37532899  0.24365698  0.24331383  1
  O  O409  1  0.38071101  0.24478976  0.74434783  1
  O  O410  1  0.38460709  0.74299258  0.25061872  1
  O  O411  1  0.38225860  0.74590733  0.74595486  1
  O  O412  1  0.88379389  0.24795993  0.24800867  1
  O  O413  1  0.88129346  0.24197141  0.75157808  1
  O  O414  1  0.88007931  0.74666963  0.24167787  1
  O  O415  1  0.88038409  0.74449724  0.74289399  1
  O  O416  1  0.38253702  0.49512771  0.49552077  1
  O  O417  1  0.37980035  0.49510904  0.99460927  1
  O  O418  1  0.37626000  0.99387880  0.49432622  1
  O  O419  1  0.38280071  0.99884435  0.99699781  1
  O  O420  1  0.88063798  0.48847218  0.49610608  1
  O  O421  1  0.88093693  0.49902460  0.99286333  1
  O  O422  1  0.88070540  0.99409712  0.49478874  1
  O  O423  1  0.88026443  1.00069064  0.99198263  1
  O  O424  1  0.12021079  0.00678480  0.00527194  1
  O  O425  1  0.12029034  0.00461367  0.50488845  1
  O  O426  1  0.12008506  0.50390536  0.00378636  1
  O  O427  1  0.12118668  0.50537600  0.50426589  1
  O  O428  1  0.61870159  0.00564403  0.00688659  1
  O  O429  1  0.62424749  0.00972172  0.50617368  1
  O  O430  1  0.61837571  0.50811771  0.00559886  1
  O  O431  1  0.61753188  0.49815185  0.50742079  1
  O  O432  1  0.36979303  0.37046851  0.11903308  1
  O  O433  1  0.37040924  0.36823869  0.61897626  1
  O  O434  1  0.36888091  0.87046642  0.12078702  1
  O  O435  1  0.36916171  0.87044504  0.62068359  1
  O  O436  1  0.86466885  0.37279843  0.12227599  1
  O  O437  1  0.87767748  0.37283648  0.61323735  1
  O  O438  1  0.86696487  0.86733182  0.12561363  1
  O  O439  1  0.86976332  0.87002996  0.61906211  1
  O  O440  1  0.13184104  0.13022445  0.38100242  1
  O  O441  1  0.13027289  0.12981281  0.88049580  1
  O  O442  1  0.13164718  0.63275807  0.37363918  1
  O  O443  1  0.13199440  0.62539551  0.88092828  1
  O  O444  1  0.62553778  0.13171586  0.38396930  1
  O  O445  1  0.62403533  0.13205709  0.88262365  1
  O  O446  1  0.63860086  0.62667817  0.37686488  1
  O  O447  1  0.62485958  0.62589639  0.88698730  1
