# generated using pymatgen
data_V3Zn3O8
_symmetry_space_group_name_H-M   'P 1'
_cell_length_a   17.08532475
_cell_length_b   17.08437900
_cell_length_c   17.08463666
_cell_angle_alpha   89.99112639
_cell_angle_beta   90.00013776
_cell_angle_gamma   90.01210843
_symmetry_Int_Tables_number   1
_chemical_formula_structural   V3Zn3O8
_chemical_formula_sum   'V96 Zn96 O256'
_cell_volume   4986.87138387
_cell_formula_units_Z   32
loop_
 _symmetry_equiv_pos_site_id
 _symmetry_equiv_pos_as_xyz
  1  'x, y, z'
loop_
 _atom_site_type_symbol
 _atom_site_label
 _atom_site_symmetry_multiplicity
 _atom_site_fract_x
 _atom_site_fract_y
 _atom_site_fract_z
 _atom_site_occupancy
  V  V0  1  0.62341516  0.00055055  0.12505240  1
  V  V1  1  0.62298647  0.75020711  0.87500141  1
  V  V2  1  0.74954112  0.74947096  0.49979651  1
  V  V3  1  -0.00089922  0.00036731  0.49863689  1
  V  V4  1  0.49811500  0.87459813  0.87615823  1
  V  V5  1  -0.00010702  0.62638395  0.12545044  1
  V  V6  1  0.12670216  0.49985337  0.62700919  1
  V  V7  1  0.74903226  0.62481767  0.87533852  1
  V  V8  1  0.62529193  -0.00044245  0.62497852  1
  V  V9  1  0.37391780  0.12462192  0.24907565  1
  V  V10  1  0.87454632  0.12484202  0.74875352  1
  V  V11  1  0.87465121  0.62563665  0.74953752  1
  V  V12  1  0.12367476  0.12575728  0.49926567  1
  V  V13  1  0.74966370  0.12688136  0.37450590  1
  V  V14  1  0.24880454  0.12468671  0.37421542  1
  V  V15  1  0.75068702  0.37577977  0.12522755  1
  V  V16  1  0.87339372  -0.00027791  0.87460363  1
  V  V17  1  0.62663686  0.50017331  0.12560066  1
  V  V18  1  0.24907174  0.12444153  0.87511201  1
  V  V19  1  0.37443291  0.12452873  0.75044558  1
  V  V20  1  0.62526378  0.62361730  0.00117126  1
  V  V21  1  -0.00006635  0.87562245  0.37385225  1
  V  V22  1  0.00054459  0.37515548  0.87371973  1
  V  V23  1  0.62591919  0.74871972  0.37472781  1
  V  V24  1  0.25119134  0.75098898  0.50049616  1
  V  V25  1  0.75189081  0.50133798  0.25037240  1
  V  V26  1  0.50023763  0.25081746  0.25157960  1
  V  V27  1  0.12552504  0.62498568  -0.00094881  1
  V  V28  1  0.74827075  0.00052340  0.74921530  1
  V  V29  1  0.37694545  0.62450881  0.75138102  1
  V  V30  1  0.37411762  0.24885481  0.62538107  1
  V  V31  1  0.12405607  0.87515261  0.24869608  1
  V  V32  1  0.49962096  0.62509488  0.62636841  1
  V  V33  1  0.00136520  0.50178514  0.50082277  1
  V  V34  1  0.12450077  0.12599227  -0.00186841  1
  V  V35  1  0.37459121  -0.00129955  0.87622837  1
  V  V36  1  0.50066710  0.87476969  0.37521111  1
  V  V37  1  0.24818781  -0.00077973  0.24834414  1
  V  V38  1  0.75055465  0.37491042  0.62372806  1
  V  V39  1  0.12437395  -0.00118200  0.12365932  1
  V  V40  1  0.37538729  0.49954857  0.37664853  1
  V  V41  1  0.24962713  0.24952744  0.50114762  1
  V  V42  1  0.87583725  0.25012999  0.12531410  1
  V  V43  1  0.74972996  0.75066158  0.00039931  1
  V  V44  1  -0.00077554  0.00010911  -0.00083830  1
  V  V45  1  0.25102688  0.62526102  0.87631641  1
  V  V46  1  0.12439220  -0.00069920  0.62469535  1
  V  V47  1  0.25094057  0.62498613  0.37626056  1
  V  V48  1  0.37540525  0.37542323  0.00110349  1
  V  V49  1  0.25090441  0.37563033  0.12510249  1
  V  V50  1  0.87570472  0.37498071  -0.00051580  1
  V  V51  1  0.87510330  0.74963807  0.62599899  1
  V  V52  1  0.62561881  0.12542826  0.49821273  1
  V  V53  1  0.00014574  0.25116351  0.74980652  1
  V  V54  1  0.24892963  -0.00112593  0.74908691  1
  V  V55  1  0.74995758  0.24971741  0.00024472  1
  V  V56  1  0.62478252  0.37228136  0.75015629  1
  V  V57  1  0.37390957  0.25027780  0.12444544  1
  V  V58  1  -0.00119818  0.12520820  0.62443231  1
  V  V59  1  0.25066470  0.49878440  0.75124596  1
  V  V60  1  0.12451614  0.75075751  0.37421062  1
  V  V61  1  0.87459739  0.50047960  0.87420548  1
  V  V62  1  0.37629666  0.49911732  0.87723624  1
  V  V63  1  0.62558950  0.87480789  0.25022630  1
  V  V64  1  0.74955966  0.87551196  0.12378427  1
  V  V65  1  0.12665395  0.62496647  0.50071611  1
  V  V66  1  0.12715707  0.37508527  0.24976745  1
  V  V67  1  0.49987491  0.12391004  0.62448345  1
  V  V68  1  0.49918428  0.12456154  0.12474996  1
  V  V69  1  0.37672461  0.62514167  0.25154835  1
  V  V70  1  0.87516817  0.00013571  0.37428612  1
  V  V71  1  0.62441305  0.12560380  0.00081314  1
  V  V72  1  0.87488557  0.37562081  0.50085519  1
  V  V73  1  0.25015033  0.87549032  0.62423606  1
  V  V74  1  0.00087751  0.50056500  -0.00098446  1
  V  V75  1  0.49982984  0.00007084  0.49985895  1
  V  V76  1  0.37429417  0.37341267  0.50189817  1
  V  V77  1  0.50056982  0.37384578  0.37540124  1
  V  V78  1  0.75053913  0.00073107  0.24992771  1
  V  V79  1  0.74861130  0.12575106  0.87529064  1
  V  V80  1  0.37434419  0.87512885  0.49994730  1
  V  V81  1  -0.00075745  0.87399377  0.87337027  1
  V  V82  1  0.37439070  0.75005142  0.12623659  1
  V  V83  1  0.62435968  0.49899855  0.62478359  1
  V  V84  1  0.74940153  0.49888098  0.74989073  1
  V  V85  1  0.50123225  0.49931169  0.00181433  1
  V  V86  1  0.87307167  0.87511074  -0.00045724  1
  V  V87  1  0.74830369  0.87526908  0.62622592  1
  V  V88  1  0.25045660  0.49924676  0.25098540  1
  V  V89  1  -0.00003616  0.25064645  0.24872078  1
  V  V90  1  0.37429581  -0.00010680  0.37425701  1
  V  V91  1  0.49988891  0.49875191  0.50096795  1
  V  V92  1  0.50081066  0.24948826  0.75057437  1
  V  V93  1  0.87632213  0.50296718  0.37431596  1
  V  V94  1  0.12474420  0.25095423  0.37458965  1
  V  V95  1  0.12531100  0.75066217  0.87330426  1
  Zn  Zn96  1  0.50084367  0.74876485  0.24995291  1
  Zn  Zn97  1  -0.00196252  0.12448163  0.12376398  1
  Zn  Zn98  1  0.50159223  0.37265687  0.87632520  1
  Zn  Zn99  1  0.50192588  0.62551171  0.12826383  1
  Zn  Zn100  1  0.00183804  0.37633687  0.37519392  1
  Zn  Zn101  1  0.62493023  0.37466992  0.25192948  1
  Zn  Zn102  1  0.24924053  0.25163988  -0.00192470  1
  Zn  Zn103  1  0.62379196  0.25021173  0.87576329  1
  Zn  Zn104  1  0.87581391  0.87494730  0.49929128  1
  Zn  Zn105  1  0.49976194  0.75092366  0.74960298  1
  Zn  Zn106  1  0.12336512  0.87415313  0.74844444  1
  Zn  Zn107  1  0.62295979  0.87427984  0.75025067  1
  Zn  Zn108  1  0.24961034  0.37243394  0.62873229  1
  Zn  Zn109  1  0.87528282  0.12585804  0.24801492  1
  Zn  Zn110  1  0.87524884  0.75086568  0.12719549  1
  Zn  Zn111  1  0.12651752  0.37491279  0.75198793  1
  Zn  Zn112  1  0.87369533  0.24934850  0.62239109  1
  Zn  Zn113  1  0.87764382  0.62782754  0.24941435  1
  Zn  Zn114  1  0.24924860  0.87344917  0.12262164  1
  Zn  Zn115  1  0.62593105  0.25255222  0.37471763  1
  Zn  Zn116  1  0.12688112  0.25243543  0.87474401  1
  Zn  Zn117  1  -0.00001782  0.75055014  0.74874972  1
  Zn  Zn118  1  0.75070557  0.62614367  0.37426349  1
  Zn  Zn119  1  0.25186519  0.75152133  0.00069856  1
  Zn  Zn120  1  0.37251902  0.87538564  0.00303132  1
  Zn  Zn121  1  0.12610695  0.50029173  0.12487080  1
  Zn  Zn122  1  0.00153729  0.62731090  0.62688571  1
  Zn  Zn123  1  -0.00155484  0.74980708  0.24952872  1
  Zn  Zn124  1  0.74919339  0.25147008  0.49873143  1
  Zn  Zn125  1  0.62448945  0.62370099  0.49935741  1
  Zn  Zn126  1  0.37593808  0.75087062  0.62643950  1
  Zn  Zn127  1  0.49740684  0.00035069  0.00100971  1
  Zn  Zn128  1  0.18674479  0.18737248  0.18442836  1
  Zn  Zn129  1  0.18583193  0.18586182  0.68800292  1
  Zn  Zn130  1  0.18762105  0.68725781  0.18832104  1
  Zn  Zn131  1  0.19089145  0.68701356  0.68864040  1
  Zn  Zn132  1  0.68575486  0.18881254  0.18836200  1
  Zn  Zn133  1  0.68817996  0.18884167  0.68479684  1
  Zn  Zn134  1  0.69023414  0.68687356  0.18717709  1
  Zn  Zn135  1  0.68518978  0.68733455  0.68955324  1
  Zn  Zn136  1  0.31350381  0.31210002  0.31311424  1
  Zn  Zn137  1  0.31266879  0.31242325  0.81438067  1
  Zn  Zn138  1  0.31109267  0.81275509  0.31062283  1
  Zn  Zn139  1  0.31350840  0.81133644  0.81024475  1
  Zn  Zn140  1  0.81402873  0.31462763  0.31293444  1
  Zn  Zn141  1  0.81327420  0.31135339  0.81243927  1
  Zn  Zn142  1  0.81538767  0.81318030  0.31001827  1
  Zn  Zn143  1  0.80983559  0.81294758  0.81216331  1
  Zn  Zn144  1  0.18863130  0.43571866  0.43858143  1
  Zn  Zn145  1  0.18715715  0.43771110  0.93766840  1
  Zn  Zn146  1  0.18615798  0.93738836  0.43680896  1
  Zn  Zn147  1  0.18903241  0.93485458  0.93875205  1
  Zn  Zn148  1  0.68683052  0.43847346  0.43667058  1
  Zn  Zn149  1  0.68664342  0.43556563  0.93690348  1
  Zn  Zn150  1  0.68841348  0.93704400  0.43813017  1
  Zn  Zn151  1  0.68420300  0.93851417  0.93785921  1
  Zn  Zn152  1  0.31092802  0.06101192  0.06140565  1
  Zn  Zn153  1  0.31184082  0.06228457  0.56225173  1
  Zn  Zn154  1  0.31328367  0.56418501  0.06397601  1
  Zn  Zn155  1  0.31289105  0.56178203  0.56409070  1
  Zn  Zn156  1  0.81213995  0.06390973  0.06336214  1
  Zn  Zn157  1  0.81305375  0.06203376  0.56105799  1
  Zn  Zn158  1  0.81429962  0.56333388  0.06203605  1
  Zn  Zn159  1  0.81098015  0.56393497  0.56260861  1
  Zn  Zn160  1  0.43862056  0.43776062  0.18800725  1
  Zn  Zn161  1  0.43724255  0.43568205  0.68922544  1
  Zn  Zn162  1  0.43830366  0.93538386  0.18892189  1
  Zn  Zn163  1  0.43680672  0.93714220  0.68906168  1
  Zn  Zn164  1  0.93933082  0.43794791  0.18608599  1
  Zn  Zn165  1  0.93874681  0.43896029  0.68655575  1
  Zn  Zn166  1  0.93727220  0.93810880  0.18707656  1
  Zn  Zn167  1  0.93663703  0.93626426  0.68767791  1
  Zn  Zn168  1  0.06187648  0.06344557  0.31093060  1
  Zn  Zn169  1  0.06194552  0.06170793  0.81202457  1
  Zn  Zn170  1  0.06404099  0.56250470  0.31217149  1
  Zn  Zn171  1  0.06122465  0.56533017  0.81084070  1
  Zn  Zn172  1  0.56262057  0.06281935  0.31150578  1
  Zn  Zn173  1  0.56226229  0.06217460  0.81342001  1
  Zn  Zn174  1  0.56285657  0.56215180  0.31256833  1
  Zn  Zn175  1  0.56238092  0.55964768  0.81371234  1
  Zn  Zn176  1  0.43717536  0.18748060  0.43705288  1
  Zn  Zn177  1  0.43719105  0.18837437  0.93744103  1
  Zn  Zn178  1  0.43817892  0.68778806  0.43937573  1
  Zn  Zn179  1  0.43897010  0.68702148  0.94135997  1
  Zn  Zn180  1  0.93677036  0.18861058  0.43510137  1
  Zn  Zn181  1  0.93731148  0.18771041  0.93591750  1
  Zn  Zn182  1  0.93993386  0.68763266  0.43895303  1
  Zn  Zn183  1  0.93752383  0.68857031  0.93794410  1
  Zn  Zn184  1  0.06377700  0.31316503  0.06295535  1
  Zn  Zn185  1  0.06145896  0.31446265  0.56348599  1
  Zn  Zn186  1  0.06205702  0.81182623  0.06024380  1
  Zn  Zn187  1  0.06243678  0.81372069  0.56053507  1
  Zn  Zn188  1  0.56301859  0.31307768  0.06475778  1
  Zn  Zn189  1  0.56341778  0.31031126  0.56180656  1
  Zn  Zn190  1  0.55953172  0.81136024  0.06230937  1
  Zn  Zn191  1  0.56258814  0.81217372  0.56218779  1
  O  O192  1  0.12343429  0.11872729  0.11344668  1
  O  O193  1  0.11838273  0.11897168  0.61831042  1
  O  O194  1  0.11698768  0.62372023  0.11813086  1
  O  O195  1  0.12661649  0.61563976  0.61953949  1
  O  O196  1  0.61923312  0.11976634  0.12104780  1
  O  O197  1  0.61957570  0.11881285  0.61824171  1
  O  O198  1  0.62651549  0.61805234  0.11860695  1
  O  O199  1  0.61545908  0.61775978  0.62484974  1
  O  O200  1  0.37982923  0.38024308  0.38236698  1
  O  O201  1  0.37661272  0.38187610  0.88311711  1
  O  O202  1  0.38006095  0.88102391  0.37960388  1
  O  O203  1  0.38301338  0.87983092  0.87474561  1
  O  O204  1  0.87580707  0.38684495  0.38406378  1
  O  O205  1  0.87991450  0.38134506  0.88022677  1
  O  O206  1  0.88152819  0.88257407  0.37635025  1
  O  O207  1  0.87804258  0.88075313  0.87992518  1
  O  O208  1  0.25427606  0.00603382  0.36945077  1
  O  O209  1  0.25458973  0.00449936  0.86839136  1
  O  O210  1  0.25649116  0.50506701  0.37178164  1
  O  O211  1  0.25625480  0.50612742  0.87056629  1
  O  O212  1  0.75451744  0.00684797  0.37005869  1
  O  O213  1  0.75427066  0.00578072  0.86970422  1
  O  O214  1  0.75861026  0.50171514  0.36766428  1
  O  O215  1  0.75525615  0.50504622  0.86954124  1
  O  O216  1  0.24986623  0.49408533  0.13359744  1
  O  O217  1  0.24165187  0.49912836  0.63145351  1
  O  O218  1  0.24253918  0.99904522  0.13211234  1
  O  O219  1  0.24404422  0.99577382  0.62887376  1
  O  O220  1  0.74832830  0.49524873  0.13201993  1
  O  O221  1  0.74437583  0.49545287  0.63038455  1
  O  O222  1  0.74358165  0.99546454  0.13019502  1
  O  O223  1  0.74493795  0.99517339  0.62885400  1
  O  O224  1  0.00683515  0.36578085  0.25056150  1
  O  O225  1  -0.00085474  0.36655514  0.75449163  1
  O  O226  1  0.00699205  0.87506570  0.25645011  1
  O  O227  1  0.00216942  0.87213458  0.75795355  1
  O  O228  1  0.49925397  0.36891347  0.25792965  1
  O  O229  1  0.50687440  0.36724940  0.75011096  1
  O  O230  1  0.50846364  0.87318898  0.25897923  1
  O  O231  1  0.50115068  0.87329415  0.76188589  1
  O  O232  1  0.49307071  0.12952331  0.24502681  1
  O  O233  1  0.49398676  0.12845685  0.74344275  1
  O  O234  1  0.49179680  0.62707019  0.25000827  1
  O  O235  1  0.49530101  0.62219835  0.74080809  1
  O  O236  1  0.99974418  0.13893326  0.24766992  1
  O  O237  1  0.99425847  0.13154822  0.74516115  1
  O  O238  1  1.00112327  0.62461344  0.23779340  1
  O  O239  1  0.98959789  0.62906174  0.74696144  1
  O  O240  1  0.37348440  0.25656194  0.00749628  1
  O  O241  1  0.36924393  0.25284993  0.50595719  1
  O  O242  1  0.37400707  0.74912816  0.01351388  1
  O  O243  1  0.36849616  0.75764497  0.50074864  1
  O  O244  1  0.87043429  0.25583065  0.00476464  1
  O  O245  1  0.87516789  0.26470301  0.49891040  1
  O  O246  1  0.86672242  0.75774358  -0.00036954  1
  O  O247  1  0.86614903  0.75023350  0.50837423  1
  O  O248  1  0.12872992  0.24514740  0.49530477  1
  O  O249  1  0.12507859  0.23785042  0.99781123  1
  O  O250  1  0.13153613  0.74471491  0.49453607  1
  O  O251  1  0.12550258  0.74368724  0.98764257  1
  O  O252  1  0.62768040  0.24088742  0.49604016  1
  O  O253  1  0.63269457  0.24384498  1.00104173  1
  O  O254  1  0.63361445  0.75038397  0.49143775  1
  O  O255  1  0.63038532  0.74379792  0.99499864  1
  O  O256  1  0.49346594  0.24444042  0.13176436  1
  O  O257  1  0.49381489  0.24225170  0.62967406  1
  O  O258  1  0.49054634  0.74680993  0.12951276  1
  O  O259  1  0.49931408  0.73764994  0.62522919  1
  O  O260  1  0.99486463  0.25035538  0.13358558  1
  O  O261  1  0.99794552  0.24433485  0.63307427  1
  O  O262  1  0.99886758  0.73851295  0.12406273  1
  O  O263  1  0.98743041  0.75002814  0.62468663  1
  O  O264  1  0.00594133  0.25287196  0.36540702  1
  O  O265  1  -0.00074632  0.25571873  0.86462433  1
  O  O266  1  0.00745315  0.75661468  0.37536795  1
  O  O267  1  0.00864655  0.75511182  0.87386590  1
  O  O268  1  0.49903177  0.25564964  0.36897414  1
  O  O269  1  0.50219853  0.25107062  0.86578697  1
  O  O270  1  0.51087006  0.75612637  0.37688177  1
  O  O271  1  0.50480027  0.75797826  0.87526395  1
  O  O272  1  0.24363627  0.12965289  0.49395494  1
  O  O273  1  0.23894039  0.12448546  0.99360747  1
  O  O274  1  0.24638713  0.63023625  0.49499949  1
  O  O275  1  0.24345996  0.62585476  0.99306646  1
  O  O276  1  0.74506310  0.12418542  0.48936256  1
  O  O277  1  0.74462336  0.13064237  0.99522889  1
  O  O278  1  0.74654119  0.63791966  0.49865571  1
  O  O279  1  0.74514847  0.62963680  0.99405434  1
  O  O280  1  0.25681180  0.37496418  0.00690357  1
  O  O281  1  0.25673980  0.36664501  0.50236428  1
  O  O282  1  0.25424619  0.86970267  0.00437529  1
  O  O283  1  0.25515982  0.87129666  0.50417773  1
  O  O284  1  0.75677973  0.37010465  0.00511406  1
  O  O285  1  0.75997346  0.37736063  0.50462331  1
  O  O286  1  0.75333080  0.87084420  0.00434728  1
  O  O287  1  0.75146479  0.86443411  0.50610809  1
  O  O288  1  0.13320732  0.49279644  0.25036293  1
  O  O289  1  0.13063739  0.50158935  0.74157988  1
  O  O290  1  0.12887502  0.99601543  0.24385749  1
  O  O291  1  0.13100292  0.99957690  0.74220199  1
  O  O292  1  0.63650324  0.49947311  0.24565386  1
  O  O293  1  0.63083757  0.49303085  0.74466512  1
  O  O294  1  0.63055154  0.99415981  0.24487857  1
  O  O295  1  0.63126231  1.00040465  0.74205219  1
  O  O296  1  0.36915584  0.00533082  0.25562076  1
  O  O297  1  0.36852783  0.00618562  0.75505213  1
  O  O298  1  0.36995188  0.50466070  0.25765828  1
  O  O299  1  0.37054192  0.50437215  0.75697828  1
  O  O300  1  0.86831977  0.00292819  0.25589515  1
  O  O301  1  0.86856540  0.00564548  0.75481760  1
  O  O302  1  0.86922480  0.49890247  0.25882656  1
  O  O303  1  0.86881478  0.50496140  0.75460020  1
  O  O304  1  0.12496895  0.36805043  0.36895286  1
  O  O305  1  0.11594037  0.37311535  0.87282345  1
  O  O306  1  0.11950735  0.87064327  0.36925809  1
  O  O307  1  0.11895643  0.86570587  0.87405050  1
  O  O308  1  0.61634065  0.37377787  0.37328110  1
  O  O309  1  0.62376637  0.37128573  0.86616749  1
  O  O310  1  0.62132422  0.86758697  0.37087734  1
  O  O311  1  0.61493741  0.86987605  0.87474096  1
  O  O312  1  0.37879632  0.12962877  0.13062668  1
  O  O313  1  0.38035506  0.12857306  0.63013295  1
  O  O314  1  0.37643826  0.63262464  0.13385714  1
  O  O315  1  0.38518264  0.62294291  0.63132328  1
  O  O316  1  0.87722981  0.13403948  0.12718116  1
  O  O317  1  0.88152797  0.12576088  0.63047423  1
  O  O318  1  0.88785360  0.62621848  0.12406615  1
  O  O319  1  0.87339517  0.63518110  0.63004119  1
  O  O320  1  0.25698058  0.25706332  0.12385794  1
  O  O321  1  0.25554047  0.24854064  0.61902614  1
  O  O322  1  0.26116013  0.75017227  0.12550656  1
  O  O323  1  0.25173238  0.75648198  0.61785200  1
  O  O324  1  0.75581253  0.25600823  0.12074622  1
  O  O325  1  0.75445713  0.25839133  0.62029694  1
  O  O326  1  0.75062136  0.75776068  0.11764156  1
  O  O327  1  0.75503512  0.75398554  0.61818947  1
  O  O328  1  0.24507277  0.24350841  0.38048591  1
  O  O329  1  0.24694378  0.24029334  0.87692257  1
  O  O330  1  0.24453844  0.74476607  0.38119143  1
  O  O331  1  0.24107980  0.74344997  0.87444754  1
  O  O332  1  0.74992440  0.23919991  0.37498894  1
  O  O333  1  0.75026827  0.24307848  0.88234813  1
  O  O334  1  0.74335993  0.75129276  0.38324313  1
  O  O335  1  0.74345020  0.74437981  0.88074399  1
  O  O336  1  0.00846091  0.11879060  -0.00171456  1
  O  O337  1  0.00467994  0.12089172  0.50383427  1
  O  O338  1  0.00521049  0.61975256  0.00562782  1
  O  O339  1  0.00887530  0.61920796  0.50320619  1
  O  O340  1  0.50595059  0.12480696  0.00782919  1
  O  O341  1  0.50413634  0.11858804  0.50458201  1
  O  O342  1  0.50875510  0.61674646  0.00294690  1
  O  O343  1  0.50007066  0.61755042  0.51028155  1
  O  O344  1  0.49357004  0.37945196  0.49637349  1
  O  O345  1  0.49372515  0.38142343  1.00047751  1
  O  O346  1  0.49470846  0.88111576  0.49484206  1
  O  O347  1  0.49697587  0.87741783  0.98781271  1
  O  O348  1  0.99092218  0.38294714  0.49888052  1
  O  O349  1  0.99460766  0.38011037  0.99464322  1
  O  O350  1  0.99921284  0.88300849  0.49190178  1
  O  O351  1  0.99320934  0.88089399  0.99295880  1
  O  O352  1  0.49438337  0.49475700  0.38173209  1
  O  O353  1  0.49385693  0.49740004  0.88337237  1
  O  O354  1  0.49447893  0.99510432  0.38029506  1
  O  O355  1  0.49341121  0.99145916  0.87527650  1
  O  O356  1  0.99233400  0.49858713  0.38077288  1
  O  O357  1  0.99337252  0.49587678  0.87883126  1
  O  O358  1  0.99523896  0.99664490  0.37922581  1
  O  O359  1  0.99280500  0.99454587  0.87922128  1
  O  O360  1  0.00573722  0.00232951  0.11677056  1
  O  O361  1  0.00426036  0.00522027  0.61910065  1
  O  O362  1  0.00222562  0.50832488  0.11739200  1
  O  O363  1  0.01009126  0.50329745  0.62002685  1
  O  O364  1  0.50568781  0.00671589  0.12568163  1
  O  O365  1  0.50452027  0.00501118  0.61911490  1
  O  O366  1  0.50847226  0.50134428  0.12024641  1
  O  O367  1  0.50441446  0.50596172  0.62072213  1
  O  O368  1  0.24668314  0.37982597  0.24569485  1
  O  O369  1  0.24717514  0.38261916  0.74877277  1
  O  O370  1  0.24151615  0.88300791  0.24973711  1
  O  O371  1  0.24869443  0.88170612  0.74221538  1
  O  O372  1  0.75122367  0.38644432  0.24460586  1
  O  O373  1  0.74630702  0.38008512  0.74393958  1
  O  O374  1  0.74451961  0.88149090  0.24416940  1
  O  O375  1  0.74727021  0.88330977  0.74413778  1
  O  O376  1  0.25404014  0.11992478  0.25520183  1
  O  O377  1  0.25500186  0.11861471  0.75445751  1
  O  O378  1  0.25539199  0.61863055  0.25820883  1
  O  O379  1  0.25753041  0.61829906  0.75655167  1
  O  O380  1  0.74974386  0.11924611  0.25920569  1
  O  O381  1  0.75526218  0.12028130  0.75418317  1
  O  O382  1  0.75523073  0.61232728  0.25069328  1
  O  O383  1  0.75395364  0.61808035  0.75578102  1
  O  O384  1  0.36873281  0.11910564  0.36938394  1
  O  O385  1  0.36941641  0.11895776  0.86918907  1
  O  O386  1  0.37010688  0.61923489  0.37246805  1
  O  O387  1  0.37111748  0.61885621  0.87147280  1
  O  O388  1  0.86511569  0.11949683  0.37331652  1
  O  O389  1  0.86875309  0.11858728  0.86920692  1
  O  O390  1  0.87475345  0.61289465  0.37508308  1
  O  O391  1  0.86817479  0.61991146  0.87043461  1
  O  O392  1  0.13276684  0.37698717  0.13136189  1
  O  O393  1  0.12681827  0.38826363  0.62673656  1
  O  O394  1  0.12412239  0.88116992  0.13049542  1
  O  O395  1  0.13166446  0.88192540  0.62477314  1
  O  O396  1  0.63399802  0.38256171  0.12747642  1
  O  O397  1  0.63043556  0.38017080  0.62939120  1
  O  O398  1  0.62962310  0.88011840  0.13003740  1
  O  O399  1  0.62994599  0.88181048  0.62607223  1
  O  O400  1  0.11892350  0.25477610  0.25428395  1
  O  O401  1  0.11164574  0.25009811  0.75083994  1
  O  O402  1  0.12400779  0.75650841  0.25773296  1
  O  O403  1  0.12361150  0.74986261  0.76128849  1
  O  O404  1  0.61585713  0.25343707  0.25275582  1
  O  O405  1  0.61853040  0.25475563  0.74921137  1
  O  O406  1  0.62786731  0.75554201  0.26028837  1
  O  O407  1  0.62178426  0.75253054  0.75949471  1
  O  O408  1  0.37940954  0.24328269  0.24479594  1
  O  O409  1  0.37987652  0.24326066  0.74450011  1
  O  O410  1  0.37621395  0.74324414  0.24481396  1
  O  O411  1  0.37843638  0.73964311  0.74667746  1
  O  O412  1  0.88493904  0.25205572  0.24490893  1
  O  O413  1  0.88487444  0.24399459  0.74784660  1
  O  O414  1  0.87960983  0.74548358  0.24590241  1
  O  O415  1  0.87142581  0.74459491  0.73989077  1
  O  O416  1  0.37949921  0.49355942  0.49563753  1
  O  O417  1  0.38129990  0.49544453  0.99697819  1
  O  O418  1  0.37974217  0.99562013  0.49338158  1
  O  O419  1  0.37722251  0.99826782  0.99148560  1
  O  O420  1  0.87933129  0.49521795  0.49367140  1
  O  O421  1  0.88019169  0.49426470  0.99307234  1
  O  O422  1  0.88193873  0.99820517  0.49297436  1
  O  O423  1  0.87864097  0.99534364  0.99363107  1
  O  O424  1  0.11893041  0.00710387  0.00304787  1
  O  O425  1  0.11920873  0.00702220  0.50427508  1
  O  O426  1  0.11772189  0.50745741  0.00010128  1
  O  O427  1  0.12248725  0.50496031  0.50734002  1
  O  O428  1  0.62293337  0.00784952  0.00798355  1
  O  O429  1  0.61902418  0.00470181  0.50497629  1
  O  O430  1  0.62221587  0.50432223  0.00578301  1
  O  O431  1  0.61841306  0.50157565  0.50680912  1
  O  O432  1  0.37001088  0.36996446  0.12078168  1
  O  O433  1  0.37363704  0.36691481  0.61927592  1
  O  O434  1  0.37383842  0.86325364  0.12722561  1
  O  O435  1  0.36908816  0.87527371  0.61729198  1
  O  O436  1  0.87031932  0.37068246  0.11819296  1
  O  O437  1  0.86975266  0.37824500  0.61429866  1
  O  O438  1  0.86725265  0.87612058  0.11683267  1
  O  O439  1  0.86771383  0.86485518  0.62344768  1
  O  O440  1  0.12992737  0.13081672  0.38008290  1
  O  O441  1  0.12976143  0.12356890  0.88414860  1
  O  O442  1  0.13172239  0.62978171  0.38104837  1
  O  O443  1  0.12980664  0.63218503  0.87897834  1
  O  O444  1  0.63483801  0.12345888  0.37966934  1
  O  O445  1  0.63150214  0.12614424  0.88210561  1
  O  O446  1  0.62742369  0.63677982  0.37729339  1
  O  O447  1  0.63048168  0.62867564  0.88078718  1
