# generated using pymatgen
data_V3Zn3O8
_symmetry_space_group_name_H-M   'P 1'
_cell_length_a   17.08400602
_cell_length_b   17.08471421
_cell_length_c   17.08575819
_cell_angle_alpha   89.99527267
_cell_angle_beta   90.00454533
_cell_angle_gamma   89.99300984
_symmetry_Int_Tables_number   1
_chemical_formula_structural   V3Zn3O8
_chemical_formula_sum   'V96 Zn96 O256'
_cell_volume   4986.91175984
_cell_formula_units_Z   32
loop_
 _symmetry_equiv_pos_site_id
 _symmetry_equiv_pos_as_xyz
  1  'x, y, z'
loop_
 _atom_site_type_symbol
 _atom_site_label
 _atom_site_symmetry_multiplicity
 _atom_site_fract_x
 _atom_site_fract_y
 _atom_site_fract_z
 _atom_site_occupancy
  V  V0  1  0.25026249  0.87487214  0.62530786  1
  V  V1  1  0.00109952  0.25005328  0.74930808  1
  V  V2  1  0.87397171  0.74960850  0.62534294  1
  V  V3  1  0.75098274  0.12453992  0.87372986  1
  V  V4  1  0.37463660  0.62595036  0.24938887  1
  V  V5  1  0.24918030  0.37542721  0.62716179  1
  V  V6  1  0.00009456  0.50147353  0.50009440  1
  V  V7  1  0.12555223  0.75091926  0.37491780  1
  V  V8  1  0.00165287  0.00138300  0.00058507  1
  V  V9  1  0.62425386  0.12398273  -0.00029945  1
  V  V10  1  0.49938048  0.24910608  0.74980384  1
  V  V11  1  0.37412627  0.00029397  0.87413466  1
  V  V12  1  0.12453465  0.50064121  0.12344229  1
  V  V13  1  0.50002094  0.87513435  0.87443456  1
  V  V14  1  0.74978945  0.62575141  0.37478624  1
  V  V15  1  0.75016539  0.87629819  0.12562820  1
  V  V16  1  0.37689957  0.37781097  0.49884239  1
  V  V17  1  0.00047638  0.87397928  0.87467372  1
  V  V18  1  0.62420358  0.50053792  0.12462463  1
  V  V19  1  -0.00079731  0.62580939  0.62476999  1
  V  V20  1  0.62360603  0.49932785  0.62353147  1
  V  V21  1  0.87549396  0.12461998  0.75009356  1
  V  V22  1  0.37609616  0.24975368  0.12724561  1
  V  V23  1  0.00026480  0.12635248  0.12485318  1
  V  V24  1  0.74849661  0.74886154  0.50034311  1
  V  V25  1  0.37503784  0.12603731  0.25171526  1
  V  V26  1  0.49872738  0.75002020  0.24858671  1
  V  V27  1  0.00075889  0.12346256  0.62490889  1
  V  V28  1  0.37559639  0.74910237  0.62509243  1
  V  V29  1  0.24935932  0.24785386  0.00027564  1
  V  V30  1  0.50000115  0.00089637  0.49987922  1
  V  V31  1  0.12495920  0.00105477  0.12536182  1
  V  V32  1  0.87523298  0.37406834  0.49932286  1
  V  V33  1  0.00014594  0.62547983  0.12429879  1
  V  V34  1  0.37669048  0.37577233  0.00114644  1
  V  V35  1  0.49996799  0.25030354  0.25171893  1
  V  V36  1  0.62481711  0.74888995  0.37432716  1
  V  V37  1  0.74952482  0.37417534  0.12442142  1
  V  V38  1  0.87573112  0.87545933  0.00038095  1
  V  V39  1  0.62522307  0.87559531  0.24861875  1
  V  V40  1  0.62484115  -0.00035527  0.62408989  1
  V  V41  1  0.12530280  -0.00083806  0.62584454  1
  V  V42  1  0.37395346  0.00119758  0.37482595  1
  V  V43  1  -0.00104133  0.25043374  0.24882060  1
  V  V44  1  0.75043653  0.24924795  0.49909072  1
  V  V45  1  -0.00077311  0.74895950  0.75009577  1
  V  V46  1  0.49977738  0.00027877  -0.00048844  1
  V  V47  1  0.62586813  0.62563081  0.00021132  1
  V  V48  1  0.87585033  0.00070417  0.87467870  1
  V  V49  1  0.12468975  0.62508420  0.50031661  1
  V  V50  1  0.62608832  0.75021688  0.87559954  1
  V  V51  1  0.75016815  0.75098121  -0.00082267  1
  V  V52  1  -0.00120863  0.87544874  0.37589745  1
  V  V53  1  0.12582102  0.87651281  0.25051756  1
  V  V54  1  0.75143012  0.50056498  0.75145886  1
  V  V55  1  0.74968146  0.24977216  -0.00067265  1
  V  V56  1  0.62560042  0.12511535  0.49941637  1
  V  V57  1  0.25049739  -0.00063529  0.74951651  1
  V  V58  1  0.62523306  0.24900714  0.87437644  1
  V  V59  1  0.74883247  0.87345433  0.62473663  1
  V  V60  1  0.12518038  0.37652525  0.24996607  1
  V  V61  1  0.62470312  0.37410566  0.75014443  1
  V  V62  1  0.37462082  0.24996354  0.62625600  1
  V  V63  1  0.62495012  0.37390446  0.25036330  1
  V  V64  1  0.25075916  0.74949178  0.50056739  1
  V  V65  1  0.24993811  0.62483001  0.87526720  1
  V  V66  1  0.25061899  0.62501164  0.37502972  1
  V  V67  1  0.37450864  0.62396650  0.75175641  1
  V  V68  1  0.24989433  0.00145259  0.25065228  1
  V  V69  1  0.49953763  0.87462796  0.37384892  1
  V  V70  1  0.87534561  0.37522261  -0.00151944  1
  V  V71  1  0.62574452  0.24947952  0.37537587  1
  V  V72  1  -0.00113730  -0.00071774  0.50018022  1
  V  V73  1  0.50030610  0.62376804  0.62540061  1
  V  V74  1  0.37373575  0.87509241  -0.00020992  1
  V  V75  1  0.50011081  0.37490290  0.87649010  1
  V  V76  1  0.25030648  0.49921016  0.75196016  1
  V  V77  1  -0.00040560  0.37557551  0.87489159  1
  V  V78  1  0.24841553  0.25064617  0.49981543  1
  V  V79  1  0.87541981  0.75001585  0.12496408  1
  V  V80  1  0.62487764  0.87550974  0.74922026  1
  V  V81  1  0.24963753  0.74976626  -0.00058370  1
  V  V82  1  0.25057113  0.50139472  0.25043280  1
  V  V83  1  0.87535306  0.24946566  0.62311137  1
  V  V84  1  -0.00060407  0.37629234  0.37439679  1
  V  V85  1  0.37388119  0.75095592  0.12453216  1
  V  V86  1  0.12572293  0.37414406  0.75053240  1
  V  V87  1  0.37511921  0.87517508  0.49954414  1
  V  V88  1  0.50013168  0.74965448  0.75018125  1
  V  V89  1  0.12491077  0.25101744  0.37532151  1
  V  V90  1  0.12417127  0.74897685  0.87495707  1
  V  V91  1  0.87560334  0.25001090  0.12512121  1
  V  V92  1  0.87445935  0.62586908  0.25030795  1
  V  V93  1  0.37445090  0.12483333  0.74970822  1
  V  V94  1  0.62530479  -0.00072868  0.12449711  1
  V  V95  1  0.87414380  0.50149077  0.37466867  1
  Zn  Zn96  1  0.87336873  0.00093683  0.37111342  1
  Zn  Zn97  1  0.87223160  0.87504569  0.49940643  1
  Zn  Zn98  1  0.75382278  0.12133870  0.37334633  1
  Zn  Zn99  1  0.12627638  0.12512222  -0.00129553  1
  Zn  Zn100  1  0.12504090  0.62396049  -0.00107414  1
  Zn  Zn101  1  0.37640175  0.50106485  0.87764284  1
  Zn  Zn102  1  0.87412496  0.50180676  0.87574484  1
  Zn  Zn103  1  0.12656063  0.24728714  0.87575291  1
  Zn  Zn104  1  0.87505514  0.62356318  0.75234538  1
  Zn  Zn105  1  0.24808968  0.12616461  0.37678393  1
  Zn  Zn106  1  -0.00153205  0.50031931  -0.00238701  1
  Zn  Zn107  1  0.50126818  0.37791142  0.37637042  1
  Zn  Zn108  1  0.50102832  0.12425748  0.12591061  1
  Zn  Zn109  1  0.62252959  0.62287910  0.49772877  1
  Zn  Zn110  1  0.49952150  0.62568838  0.12417347  1
  Zn  Zn111  1  0.12489883  0.87434347  0.74980871  1
  Zn  Zn112  1  0.12600707  0.12580048  0.49903216  1
  Zn  Zn113  1  0.75099358  0.00117742  0.25318980  1
  Zn  Zn114  1  0.24767516  0.12413756  0.87506404  1
  Zn  Zn115  1  0.49958636  0.50261730  -0.00124679  1
  Zn  Zn116  1  0.87201945  0.12234592  0.25030132  1
  Zn  Zn117  1  0.74976173  0.49932444  0.25108397  1
  Zn  Zn118  1  0.12415141  0.50023485  0.62523514  1
  Zn  Zn119  1  0.37836042  0.50076166  0.37377014  1
  Zn  Zn120  1  0.75049214  0.37440757  0.62463993  1
  Zn  Zn121  1  0.00068691  0.75213891  0.25021746  1
  Zn  Zn122  1  0.25076875  0.37541099  0.12619699  1
  Zn  Zn123  1  0.75350359  0.62573671  0.87464657  1
  Zn  Zn124  1  0.24835533  0.87593590  0.12424701  1
  Zn  Zn125  1  0.50012293  0.12528681  0.62440492  1
  Zn  Zn126  1  0.49947429  0.50127126  0.49739280  1
  Zn  Zn127  1  0.75027936  -0.00036048  0.74848950  1
  Zn  Zn128  1  0.18774653  0.18707356  0.18735949  1
  Zn  Zn129  1  0.18742912  0.18642424  0.68721787  1
  Zn  Zn130  1  0.18797381  0.68914116  0.18798228  1
  Zn  Zn131  1  0.18598492  0.68689905  0.68858903  1
  Zn  Zn132  1  0.68776426  0.18538988  0.18819034  1
  Zn  Zn133  1  0.68855326  0.18621886  0.68541086  1
  Zn  Zn134  1  0.68856770  0.68807119  0.18750668  1
  Zn  Zn135  1  0.68722324  0.68522312  0.68796439  1
  Zn  Zn136  1  0.31120112  0.31434393  0.31411950  1
  Zn  Zn137  1  0.31282066  0.31167422  0.81535696  1
  Zn  Zn138  1  0.31146522  0.81375235  0.31174508  1
  Zn  Zn139  1  0.31168754  0.81231624  0.81241969  1
  Zn  Zn140  1  0.81109042  0.31084658  0.31193685  1
  Zn  Zn141  1  0.81307394  0.31311417  0.81068863  1
  Zn  Zn142  1  0.81251907  0.81282710  0.31144715  1
  Zn  Zn143  1  0.81273330  0.81265774  0.81124492  1
  Zn  Zn144  1  0.18838934  0.43854490  0.43766434  1
  Zn  Zn145  1  0.18798074  0.43586603  0.93774019  1
  Zn  Zn146  1  0.18668323  0.93859218  0.43794600  1
  Zn  Zn147  1  0.18683337  0.93659216  0.93673729  1
  Zn  Zn148  1  0.68914339  0.43587947  0.43726914  1
  Zn  Zn149  1  0.68730087  0.43766478  0.93747287  1
  Zn  Zn150  1  0.68746815  0.93705263  0.43706197  1
  Zn  Zn151  1  0.68857061  0.93822308  0.93716812  1
  Zn  Zn152  1  0.31334620  0.06327866  0.06530817  1
  Zn  Zn153  1  0.31170098  0.06454073  0.56264548  1
  Zn  Zn154  1  0.31166948  0.56397850  0.06324922  1
  Zn  Zn155  1  0.31095381  0.56126847  0.56488091  1
  Zn  Zn156  1  0.81305290  0.06295090  0.06356924  1
  Zn  Zn157  1  0.81171738  0.06204338  0.56128163  1
  Zn  Zn158  1  0.81160895  0.56123060  0.06159074  1
  Zn  Zn159  1  0.81164214  0.56359318  0.56270115  1
  Zn  Zn160  1  0.43927556  0.43720472  0.18753745  1
  Zn  Zn161  1  0.43688909  0.43712113  0.68878176  1
  Zn  Zn162  1  0.43682324  0.93789755  0.18617713  1
  Zn  Zn163  1  0.43782990  0.93811809  0.68619972  1
  Zn  Zn164  1  0.93653210  0.43832499  0.18760584  1
  Zn  Zn165  1  0.93771738  0.43677796  0.68569078  1
  Zn  Zn166  1  0.93787250  0.93973749  0.18859299  1
  Zn  Zn167  1  0.93621709  0.93518449  0.68795871  1
  Zn  Zn168  1  0.06204652  0.06536362  0.31212523  1
  Zn  Zn169  1  0.06542800  0.06313843  0.81362129  1
  Zn  Zn170  1  0.06207997  0.56388831  0.31151864  1
  Zn  Zn171  1  0.06380540  0.56199880  0.81043832  1
  Zn  Zn172  1  0.56361346  0.06380166  0.31270643  1
  Zn  Zn173  1  0.56175397  0.06243758  0.81101893  1
  Zn  Zn174  1  0.56056212  0.56151860  0.31148940  1
  Zn  Zn175  1  0.56342843  0.56189360  0.81408466  1
  Zn  Zn176  1  0.43841904  0.18870202  0.43727324  1
  Zn  Zn177  1  0.43677887  0.18643872  0.93696122  1
  Zn  Zn178  1  0.43843566  0.68564277  0.43710254  1
  Zn  Zn179  1  0.43830113  0.68772442  0.93853436  1
  Zn  Zn180  1  0.93747420  0.18540905  0.43514216  1
  Zn  Zn181  1  0.93849725  0.18823957  0.93791038  1
  Zn  Zn182  1  0.93619150  0.68921003  0.43910032  1
  Zn  Zn183  1  0.93621941  0.68550269  0.93686997  1
  Zn  Zn184  1  0.06290753  0.31349452  0.06229863  1
  Zn  Zn185  1  0.06272841  0.31353325  0.56260987  1
  Zn  Zn186  1  0.06382621  0.81304133  0.06174252  1
  Zn  Zn187  1  0.06317895  0.81246563  0.56329995  1
  Zn  Zn188  1  0.56149715  0.31089241  0.06423918  1
  Zn  Zn189  1  0.56215320  0.31210109  0.56352603  1
  Zn  Zn190  1  0.56124390  0.81327756  0.06251307  1
  Zn  Zn191  1  0.56291594  0.81184811  0.56104414  1
  O  O192  1  0.11811091  0.11867778  0.12280130  1
  O  O193  1  0.11755145  0.11741943  0.62379010  1
  O  O194  1  0.11662809  0.61757909  0.12635928  1
  O  O195  1  0.11815855  0.62467317  0.61722223  1
  O  O196  1  0.62340371  0.11817143  0.11618550  1
  O  O197  1  0.62292204  0.11806422  0.61807322  1
  O  O198  1  0.62606860  0.61686633  0.11872599  1
  O  O199  1  0.61830916  0.61442926  0.62549155  1
  O  O200  1  0.37520900  0.37713288  0.38764294  1
  O  O201  1  0.38171295  0.37475485  0.88628520  1
  O  O202  1  0.38022002  0.88028516  0.38039416  1
  O  O203  1  0.38126801  0.87974753  0.87944773  1
  O  O204  1  0.88036052  0.38093140  0.37941726  1
  O  O205  1  0.88440207  0.37474298  0.87968569  1
  O  O206  1  0.88891183  0.87388972  0.37744375  1
  O  O207  1  0.88046610  0.88021551  0.88100295  1
  O  O208  1  0.25642248  0.00124368  0.36959576  1
  O  O209  1  0.25729839  -0.00099444  0.86785662  1
  O  O210  1  0.25083632  0.50831850  0.36794406  1
  O  O211  1  0.25197458  0.50624869  0.86993977  1
  O  O212  1  0.75419474  0.00033960  0.37370688  1
  O  O213  1  0.75780289  0.00657441  0.87380032  1
  O  O214  1  0.75675201  0.50713601  0.37426440  1
  O  O215  1  0.74877252  0.49996487  0.86264327  1
  O  O216  1  0.23872038  0.50119798  0.13122600  1
  O  O217  1  0.24750437  0.49334658  0.63371385  1
  O  O218  1  0.24345970  0.99862515  0.13222654  1
  O  O219  1  0.24573322  0.99387432  0.62912672  1
  O  O220  1  0.73949522  0.49319640  0.12552019  1
  O  O221  1  0.74014475  0.49873543  0.63282809  1
  O  O222  1  0.74213727  0.99199312  0.12215333  1
  O  O223  1  0.74288758  0.99219940  0.62516673  1
  O  O224  1  0.00534159  0.37119764  0.25540143  1
  O  O225  1  0.00464590  0.36964294  0.75621820  1
  O  O226  1  0.00711928  0.87506148  0.26090272  1
  O  O227  1  0.00079417  0.86744541  0.75734968  1
  O  O228  1  0.50740396  0.36764284  0.25130969  1
  O  O229  1  0.50483131  0.36853832  0.75671500  1
  O  O230  1  0.50418157  0.86943505  0.25534151  1
  O  O231  1  0.50454136  0.86881000  0.75473726  1
  O  O232  1  0.49305892  0.13234637  0.24943136  1
  O  O233  1  0.49305357  0.13177845  0.74831007  1
  O  O234  1  0.49285505  0.63304900  0.24744648  1
  O  O235  1  0.49493845  0.63078148  0.74600953  1
  O  O236  1  0.99974412  0.13414494  0.24156742  1
  O  O237  1  0.99479729  0.13013752  0.74482823  1
  O  O238  1  0.99432952  0.62758107  0.23988702  1
  O  O239  1  0.99926603  0.63098995  0.74227734  1
  O  O240  1  0.36962521  0.25688491  0.00594678  1
  O  O241  1  0.36931485  0.25850508  0.50581857  1
  O  O242  1  0.36977705  0.75585645  0.00422551  1
  O  O243  1  0.37020567  0.75542681  0.50531615  1
  O  O244  1  0.86906880  0.25602789  0.00481726  1
  O  O245  1  0.87151144  0.25477164  0.50425724  1
  O  O246  1  0.86997014  0.75613566  0.00547100  1
  O  O247  1  0.86671112  0.75200216  0.50734866  1
  O  O248  1  0.13074006  0.25154536  0.49342673  1
  O  O249  1  0.13839575  0.25117271  1.00169828  1
  O  O250  1  0.13196136  0.74509451  0.49495812  1
  O  O251  1  0.13133932  0.74775050  0.99347291  1
  O  O252  1  0.63003205  0.24567747  0.49620821  1
  O  O253  1  0.62996528  0.24454215  0.99391435  1
  O  O254  1  0.63000667  0.74741060  0.49207259  1
  O  O255  1  0.63043171  0.74531354  0.99562734  1
  O  O256  1  0.49379107  0.24754000  0.13305985  1
  O  O257  1  0.49282709  0.24951521  0.63314194  1
  O  O258  1  0.49242597  0.75048971  0.13127300  1
  O  O259  1  0.49482173  0.74476067  0.63082059  1
  O  O260  1  0.99542713  0.24671816  0.12919408  1
  O  O261  1  0.99498125  0.24381866  0.62937639  1
  O  O262  1  0.99509193  0.74084752  0.12559600  1
  O  O263  1  0.99467984  0.74566459  0.62939229  1
  O  O264  1  0.00514686  0.25813743  0.36954144  1
  O  O265  1  0.00015472  0.26032260  0.86842653  1
  O  O266  1  0.00701247  0.75968368  0.37650107  1
  O  O267  1  0.00439690  0.75450380  0.87088620  1
  O  O268  1  0.50751448  0.25348714  0.36908166  1
  O  O269  1  0.50595921  0.25484686  0.86970964  1
  O  O270  1  0.50410709  0.75556414  0.36861912  1
  O  O271  1  0.50560976  0.75623131  0.86936374  1
  O  O272  1  0.24723630  0.13479881  0.49828487  1
  O  O273  1  0.25162545  0.13657437  0.99973092  1
  O  O274  1  0.24540603  0.63056669  0.49564337  1
  O  O275  1  0.24901947  0.63184608  0.99294463  1
  O  O276  1  0.74312673  0.13224734  0.49939238  1
  O  O277  1  0.74467703  0.13079922  0.99327207  1
  O  O278  1  0.74692215  0.63123588  0.49275365  1
  O  O279  1  0.74212734  0.63256048  0.99968305  1
  O  O280  1  0.26073354  0.36710473  0.00226803  1
  O  O281  1  0.25706892  0.37076380  0.50653846  1
  O  O282  1  0.25699511  0.86782124  -0.00007772  1
  O  O283  1  0.25606370  0.86928447  0.50510465  1
  O  O284  1  0.75465608  0.36818542  0.00413739  1
  O  O285  1  0.75833819  0.36790805  0.50217317  1
  O  O286  1  0.75624817  0.86996533  0.00512347  1
  O  O287  1  0.74943329  0.86630282  0.50719085  1
  O  O288  1  0.12957747  0.49655248  0.24238962  1
  O  O289  1  0.13242700  0.49181803  0.74782508  1
  O  O290  1  0.12998757  0.99610364  0.24544253  1
  O  O291  1  0.13176101  0.99704260  0.74343377  1
  O  O292  1  0.62691187  0.49419686  0.23984175  1
  O  O293  1  0.63137304  0.49454562  0.74268591  1
  O  O294  1  0.62311275  0.99187857  0.24216393  1
  O  O295  1  0.62545749  0.99314003  0.74315682  1
  O  O296  1  0.37046441  0.00497769  0.25548655  1
  O  O297  1  0.37054549  0.00443849  0.75417883  1
  O  O298  1  0.36823478  0.50713718  0.24834708  1
  O  O299  1  0.36840124  0.50632396  0.75273319  1
  O  O300  1  0.87084845  0.00249714  0.25143403  1
  O  O301  1  0.87443174  0.00684334  0.75664814  1
  O  O302  1  0.87304410  0.50707815  0.25675248  1
  O  O303  1  0.86209575  0.49853441  0.74855840  1
  O  O304  1  0.11825303  0.37212907  0.36936889  1
  O  O305  1  0.11567544  0.37206397  0.86980455  1
  O  O306  1  0.11772126  0.87039115  0.37104272  1
  O  O307  1  0.11745735  0.86758012  0.87335925  1
  O  O308  1  0.62507383  0.36807589  0.36834861  1
  O  O309  1  0.62010670  0.36753421  0.87056877  1
  O  O310  1  0.61779297  0.86838678  0.36887802  1
  O  O311  1  0.61927082  0.87033575  0.86985692  1
  O  O312  1  0.37848663  0.13149832  0.13375119  1
  O  O313  1  0.37677300  0.13222558  0.63162013  1
  O  O314  1  0.37629659  0.63278051  0.13105664  1
  O  O315  1  0.37959795  0.63034848  0.63182362  1
  O  O316  1  0.88253099  0.13379966  0.12370242  1
  O  O317  1  0.88125633  0.12938602  0.63009665  1
  O  O318  1  0.88183438  0.62919875  0.12924894  1
  O  O319  1  0.88183533  0.63200893  0.62606024  1
  O  O320  1  0.25724701  0.25292859  0.11752919  1
  O  O321  1  0.25527370  0.25657311  0.62046383  1
  O  O322  1  0.25553900  0.75248232  0.11801512  1
  O  O323  1  0.25638068  0.75419465  0.61996500  1
  O  O324  1  0.75463978  0.25504160  0.11745748  1
  O  O325  1  0.75764640  0.25140711  0.61802234  1
  O  O326  1  0.75571774  0.75648061  0.11866872  1
  O  O327  1  0.75298976  0.75350003  0.62045235  1
  O  O328  1  0.24167636  0.25136396  0.38200414  1
  O  O329  1  0.25006284  0.24844156  0.88768174  1
  O  O330  1  0.24518456  0.74560711  0.38158464  1
  O  O331  1  0.24433400  0.74440711  0.87892133  1
  O  O332  1  0.74287535  0.24948806  0.38297402  1
  O  O333  1  0.74479782  0.24461952  0.87937980  1
  O  O334  1  0.74448112  0.74573800  0.38004305  1
  O  O335  1  0.74315075  0.75138476  0.88163735  1
  O  O336  1  0.00131926  0.11914450  0.00662184  1
  O  O337  1  0.00184276  0.11473165  0.50668376  1
  O  O338  1  0.00078508  0.62232647  0.01333059  1
  O  O339  1  0.00530061  0.62082774  0.50438238  1
  O  O340  1  0.50661130  0.11809072  -0.00018883  1
  O  O341  1  0.50615975  0.11831908  0.50175684  1
  O  O342  1  0.51085545  0.62424711  0.00305997  1
  O  O343  1  0.50173803  0.62229141  0.50970714  1
  O  O344  1  0.48726960  0.37627794  0.50171940  1
  O  O345  1  0.49086675  0.37291967  0.99502133  1
  O  O346  1  0.49405685  0.87956731  0.49366479  1
  O  O347  1  0.49417218  0.88008740  0.99283299  1
  O  O348  1  0.99495471  0.38134619  0.49353134  1
  O  O349  1  0.99448786  0.37462266  0.99020647  1
  O  O350  1  1.00136125  0.88250591  0.49183513  1
  O  O351  1  0.99418036  0.88062599  0.99493917  1
  O  O352  1  0.49645833  0.49596695  0.37945558  1
  O  O353  1  0.49833281  0.49090852  0.87865162  1
  O  O354  1  0.49420453  0.99341232  0.38022622  1
  O  O355  1  0.49436574  0.99371360  0.87947574  1
  O  O356  1  0.99429374  0.49642962  0.37994900  1
  O  O357  1  0.99915113  0.48654022  0.87429564  1
  O  O358  1  1.00334485  0.99048395  0.38445423  1
  O  O359  1  0.99487202  0.99448508  0.88029501  1
  O  O360  1  0.00566260  0.00590583  0.11933884  1
  O  O361  1  0.00494709  0.00219059  0.61874093  1
  O  O362  1  0.00844689  0.50870847  0.12619293  1
  O  O363  1  0.00095264  0.50687513  0.61740380  1
  O  O364  1  0.50661469  0.00003444  0.11662797  1
  O  O365  1  0.50636302  0.00000543  0.61702911  1
  O  O366  1  0.51404987  0.50094614  0.12256789  1
  O  O367  1  0.50983862  0.50495281  0.62773378  1
  O  O368  1  0.24297410  0.38283618  0.24803010  1
  O  O369  1  0.24589875  0.37886199  0.74694001  1
  O  O370  1  0.24314759  0.88313201  0.24928044  1
  O  O371  1  0.25032485  0.88108823  0.74221047  1
  O  O372  1  0.74299936  0.37567330  0.24146947  1
  O  O373  1  0.74268376  0.38225049  0.74733273  1
  O  O374  1  0.74189942  0.87381387  0.24187049  1
  O  O375  1  0.74184311  0.87594326  0.74324752  1
  O  O376  1  0.25709690  0.11921438  0.25306046  1
  O  O377  1  0.25725056  0.11747607  0.75016243  1
  O  O378  1  0.25494203  0.62144493  0.25597307  1
  O  O379  1  0.25531828  0.62007995  0.75534618  1
  O  O380  1  0.75201217  0.12097399  0.25314624  1
  O  O381  1  0.75727036  0.12387758  0.75640024  1
  O  O382  1  0.75733543  0.62460731  0.25667797  1
  O  O383  1  0.75018702  0.61325194  0.75181279  1
  O  O384  1  0.37342259  0.11849962  0.36940136  1
  O  O385  1  0.37356198  0.11745631  0.86757075  1
  O  O386  1  0.36745005  0.62519935  0.36819675  1
  O  O387  1  0.36902257  0.62481908  0.86902136  1
  O  O388  1  0.87399518  0.12061806  0.37010840  1
  O  O389  1  0.87072283  0.12076639  0.86985187  1
  O  O390  1  0.87052692  0.62130132  0.37010249  1
  O  O391  1  0.87154956  0.61935979  0.87120501  1
  O  O392  1  0.12409913  0.38648217  0.13142634  1
  O  O393  1  0.13142376  0.37655189  0.63217025  1
  O  O394  1  0.12457974  0.88240804  0.13271634  1
  O  O395  1  0.13303920  0.88044628  0.62619589  1
  O  O396  1  0.63011028  0.38136422  0.12837643  1
  O  O397  1  0.62502118  0.38380172  0.63194877  1
  O  O398  1  0.63031557  0.87938366  0.12870609  1
  O  O399  1  0.62879487  0.87920447  0.63025008  1
  O  O400  1  0.11925565  0.25791604  0.25420123  1
  O  O401  1  0.11846998  0.25642977  0.75082066  1
  O  O402  1  0.12392232  0.75736039  0.25755511  1
  O  O403  1  0.11799319  0.75167095  0.75696971  1
  O  O404  1  0.61958399  0.25487509  0.25469095  1
  O  O405  1  0.62020413  0.25401267  0.75495174  1
  O  O406  1  0.61873817  0.75582586  0.25403731  1
  O  O407  1  0.61904312  0.75522412  0.75509092  1
  O  O408  1  0.37923661  0.24666755  0.24683324  1
  O  O409  1  0.37938091  0.24533063  0.74580995  1
  O  O410  1  0.37876928  0.74632068  0.24434380  1
  O  O411  1  0.38072935  0.74447318  0.74442327  1
  O  O412  1  0.88275007  0.25253716  0.24128976  1
  O  O413  1  0.88129973  0.24448253  0.74348635  1
  O  O414  1  0.87775231  0.74431849  0.24229324  1
  O  O415  1  0.88135185  0.74807483  0.74310609  1
  O  O416  1  0.37444897  0.48851829  0.50158590  1
  O  O417  1  0.37644154  0.48795944  1.00154218  1
  O  O418  1  0.37950652  0.99419933  0.49519827  1
  O  O419  1  0.37982029  0.99504839  0.99451948  1
  O  O420  1  0.88040059  0.49490694  0.49421129  1
  O  O421  1  0.87693831  0.48986995  0.99796271  1
  O  O422  1  0.88964171  0.99573789  0.50144344  1
  O  O423  1  0.88159773  0.99468071  0.99456684  1
  O  O424  1  0.11886023  -0.00038437  0.00705460  1
  O  O425  1  0.11497286  0.00061782  0.50687763  1
  O  O426  1  0.12342215  0.50066540  0.01233159  1
  O  O427  1  0.11808297  0.50733437  0.50055281  1
  O  O428  1  0.61890442  0.00415324  0.00369653  1
  O  O429  1  0.61825058  0.00444462  0.50470558  1
  O  O430  1  0.62555286  0.50670657  0.00844715  1
  O  O431  1  0.62471237  0.49897675  0.51321548  1
  O  O432  1  0.37530271  0.36897669  0.11629511  1
  O  O433  1  0.36885192  0.36941683  0.61951450  1
  O  O434  1  0.37257018  0.86933464  0.11720869  1
  O  O435  1  0.37058154  0.86856785  0.61878587  1
  O  O436  1  0.86979280  0.36990422  0.11868849  1
  O  O437  1  0.87555479  0.36691100  0.61675418  1
  O  O438  1  0.87144358  0.86937383  0.11892209  1
  O  O439  1  0.86688346  0.86738996  0.62383873  1
  O  O440  1  0.12601063  0.13580809  0.37769837  1
  O  O441  1  0.12937066  0.12938516  0.88049400  1
  O  O442  1  0.12999109  0.63136709  0.38024202  1
  O  O443  1  0.13097141  0.63067589  0.87688790  1
  O  O444  1  0.62563071  0.13233600  0.38307832  1
  O  O445  1  0.63076897  0.12958987  0.87943173  1
  O  O446  1  0.63139694  0.63159417  0.37407583  1
  O  O447  1  0.62708960  0.63238449  0.88323477  1
