# generated using pymatgen
data_V3Zn3O8
_symmetry_space_group_name_H-M   'P 1'
_cell_length_a   17.08775095
_cell_length_b   17.08963218
_cell_length_c   17.08804647
_cell_angle_alpha   89.98864985
_cell_angle_beta   89.98899193
_cell_angle_gamma   90.00159265
_symmetry_Int_Tables_number   1
_chemical_formula_structural   V3Zn3O8
_chemical_formula_sum   'V96 Zn96 O256'
_cell_volume   4990.10886935
_cell_formula_units_Z   32
loop_
 _symmetry_equiv_pos_site_id
 _symmetry_equiv_pos_as_xyz
  1  'x, y, z'
loop_
 _atom_site_type_symbol
 _atom_site_label
 _atom_site_symmetry_multiplicity
 _atom_site_fract_x
 _atom_site_fract_y
 _atom_site_fract_z
 _atom_site_occupancy
  V  V0  1  0.12438689  0.87488685  0.24984553  1
  V  V1  1  0.25036131  0.62497907  0.87433953  1
  V  V2  1  0.50042506  0.75129113  0.74961796  1
  V  V3  1  0.49934392  0.00035880  -0.00071401  1
  V  V4  1  0.37461047  0.00122087  0.87421446  1
  V  V5  1  -0.00067675  0.12582306  0.12531880  1
  V  V6  1  0.50009532  0.87546614  0.87378075  1
  V  V7  1  0.49912351  0.37565474  0.87458243  1
  V  V8  1  0.87473584  0.49975318  0.37539045  1
  V  V9  1  0.37460688  0.50044466  0.87449413  1
  V  V10  1  0.37467409  0.49876345  0.37451153  1
  V  V11  1  0.74974859  0.49969725  0.75066119  1
  V  V12  1  0.87496585  0.75082678  0.12505797  1
  V  V13  1  0.12450893  0.12521668  0.00043929  1
  V  V14  1  0.12680382  0.87630482  0.74947889  1
  V  V15  1  0.62469924  -0.00030891  0.12436650  1
  V  V16  1  0.37438640  0.62349195  0.25061105  1
  V  V17  1  0.12618954  0.75019928  0.87615235  1
  V  V18  1  0.74923652  0.37502258  0.12540577  1
  V  V19  1  0.75021622  0.12455952  0.37413006  1
  V  V20  1  0.12533387  0.24885346  0.37641355  1
  V  V21  1  0.49906124  0.24868016  0.24978150  1
  V  V22  1  0.87535210  0.12540548  0.75043680  1
  V  V23  1  0.12395821  0.50074635  0.12527794  1
  V  V24  1  0.62469256  0.12306217  0.49946051  1
  V  V25  1  -0.00222896  0.50024402  -0.00018759  1
  V  V26  1  0.25026767  0.12528559  0.87522275  1
  V  V27  1  0.24894633  0.25066188  0.00115118  1
  V  V28  1  0.49875477  0.62320970  0.12427882  1
  V  V29  1  0.74985763  -0.00028296  0.74907942  1
  V  V30  1  0.74886127  0.87622567  0.12412330  1
  V  V31  1  0.49901432  0.50016869  -0.00044074  1
  V  V32  1  0.00365908  0.12297576  0.62400364  1
  V  V33  1  0.37525786  0.12594463  0.75021609  1
  V  V34  1  0.62389047  0.25145020  0.87379484  1
  V  V35  1  0.24947408  0.37489633  0.62632255  1
  V  V36  1  -0.00114870  0.37577798  0.87551885  1
  V  V37  1  0.00398293  0.62381921  0.62410918  1
  V  V38  1  0.62585620  0.62480943  0.49991685  1
  V  V39  1  0.75050436  0.62371865  0.37435925  1
  V  V40  1  0.12482994  -0.00000942  0.12548512  1
  V  V41  1  0.00163933  0.49997413  0.50075586  1
  V  V42  1  0.75052912  0.25018080  0.50086035  1
  V  V43  1  0.12534806  0.62533558  -0.00019438  1
  V  V44  1  -0.00024593  0.00039790  0.00066286  1
  V  V45  1  -0.00038484  0.25076215  0.25085750  1
  V  V46  1  0.24933502  0.50085882  0.25120137  1
  V  V47  1  0.49903210  0.37371050  0.37515346  1
  V  V48  1  0.12559054  0.37567291  0.74935388  1
  V  V49  1  -0.00081612  0.37533441  0.37633425  1
  V  V50  1  0.12394215  0.37549539  0.25045816  1
  V  V51  1  0.49911818  0.12482227  0.12462176  1
  V  V52  1  0.37595373  0.24942963  0.62506268  1
  V  V53  1  0.74966845  0.12639195  0.87458180  1
  V  V54  1  0.87554960  0.00027880  0.37538157  1
  V  V55  1  0.74970659  0.49944976  0.25062765  1
  V  V56  1  0.87397058  0.12584093  0.24994120  1
  V  V57  1  0.37559142  -0.00138520  0.37478095  1
  V  V58  1  0.87558662  0.75122397  0.62484339  1
  V  V59  1  -0.00049984  0.25029514  0.75092523  1
  V  V60  1  0.62428251  0.87386718  0.24886230  1
  V  V61  1  0.62476262  0.37420533  0.24987857  1
  V  V62  1  -0.00009587  0.87491839  0.37647356  1
  V  V63  1  0.24884985  0.37437804  0.12500242  1
  V  V64  1  0.62557007  0.87590481  0.74974098  1
  V  V65  1  0.74957180  0.25180900  0.00004734  1
  V  V66  1  -0.00176340  0.74920483  0.24931253  1
  V  V67  1  0.62646473  -0.00027495  0.62391839  1
  V  V68  1  0.74923899  0.74994608  -0.00081816  1
  V  V69  1  0.62485689  0.24814036  0.37510434  1
  V  V70  1  0.62524225  0.62572519  -0.00074854  1
  V  V71  1  0.87489859  0.00037283  0.87514718  1
  V  V72  1  0.37597572  0.62550195  0.74994764  1
  V  V73  1  0.37373997  0.12313249  0.25051272  1
  V  V74  1  0.75129824  0.75048543  0.49905482  1
  V  V75  1  0.62556653  0.49928101  0.62496347  1
  V  V76  1  0.50149736  0.74911126  0.25010130  1
  V  V77  1  0.37455887  0.74959782  0.12480230  1
  V  V78  1  0.25049636  -0.00052372  0.25073791  1
  V  V79  1  0.37480171  0.87473360  0.00010902  1
  V  V80  1  0.00157539  0.87479679  0.87504414  1
  V  V81  1  0.50139450  -0.00086062  0.49945621  1
  V  V82  1  0.37542260  0.37418655  0.49953719  1
  V  V83  1  0.37328656  0.24977667  0.12500110  1
  V  V84  1  0.87382759  0.25104898  0.12460747  1
  V  V85  1  0.87500721  0.62415239  0.75208583  1
  V  V86  1  0.50075297  0.62591684  0.62578070  1
  V  V87  1  0.49996958  0.25093902  0.74981083  1
  V  V88  1  0.87410982  0.25058941  0.62473717  1
  V  V89  1  0.25064796  0.87431710  0.12504454  1
  V  V90  1  0.24915149  0.24832173  0.49927053  1
  V  V91  1  0.87454739  0.87537410  -0.00042808  1
  V  V92  1  0.37619421  0.87224955  0.50016402  1
  V  V93  1  0.62411541  0.12589067  -0.00042035  1
  V  V94  1  0.25181434  0.87534436  0.62463389  1
  V  V95  1  0.12410698  0.25001864  0.87573518  1
  Zn  Zn96  1  0.49979180  0.50041216  0.49935557  1
  Zn  Zn97  1  -0.00137595  0.62558896  0.12532621  1
  Zn  Zn98  1  0.00098067  0.74914016  0.75026428  1
  Zn  Zn99  1  0.25085512  0.00216102  0.74918474  1
  Zn  Zn100  1  0.12777454  0.49995053  0.62535619  1
  Zn  Zn101  1  0.87349873  0.37474941  0.50191551  1
  Zn  Zn102  1  0.12700196  0.12113937  0.49847570  1
  Zn  Zn103  1  0.37387307  0.37545615  -0.00007938  1
  Zn  Zn104  1  0.50005615  0.12539106  0.62450313  1
  Zn  Zn105  1  0.75190264  0.87591191  0.62479654  1
  Zn  Zn106  1  0.37500422  0.74749526  0.62353758  1
  Zn  Zn107  1  0.50312908  0.87168278  0.37573157  1
  Zn  Zn108  1  0.74862435  0.00003600  0.24869256  1
  Zn  Zn109  1  0.87267418  0.49909806  0.87670909  1
  Zn  Zn110  1  0.24975131  0.62699122  0.37893457  1
  Zn  Zn111  1  0.24915038  0.50076104  0.74841844  1
  Zn  Zn112  1  0.62567358  0.74944488  0.37309671  1
  Zn  Zn113  1  0.62692386  0.75103956  0.87317712  1
  Zn  Zn114  1  0.87411986  0.62460774  0.24870517  1
  Zn  Zn115  1  0.24817409  0.12320269  0.37698568  1
  Zn  Zn116  1  0.12826633  0.74672258  0.37580818  1
  Zn  Zn117  1  0.25029522  0.74950339  0.00070641  1
  Zn  Zn118  1  0.00289365  -0.00032912  0.50094622  1
  Zn  Zn119  1  0.24720649  0.74852306  0.49723909  1
  Zn  Zn120  1  0.12975570  0.62757291  0.49786770  1
  Zn  Zn121  1  0.75070887  0.37394339  0.62397402  1
  Zn  Zn122  1  0.62418764  0.49840221  0.12535986  1
  Zn  Zn123  1  0.87258518  0.37692817  -0.00127691  1
  Zn  Zn124  1  0.75045118  0.62602903  0.87637366  1
  Zn  Zn125  1  0.87570625  0.87802233  0.50199022  1
  Zn  Zn126  1  0.62554017  0.37435805  0.74882337  1
  Zn  Zn127  1  0.12617149  -0.00035113  0.62174236  1
  Zn  Zn128  1  0.18714415  0.18684524  0.18966961  1
  Zn  Zn129  1  0.18854630  0.18990360  0.68837588  1
  Zn  Zn130  1  0.18665950  0.68700379  0.18858685  1
  Zn  Zn131  1  0.19027376  0.69077514  0.68787137  1
  Zn  Zn132  1  0.68730830  0.18730229  0.18754921  1
  Zn  Zn133  1  0.68651109  0.18636974  0.68641940  1
  Zn  Zn134  1  0.68768709  0.68678314  0.18586912  1
  Zn  Zn135  1  0.68748448  0.68744634  0.68702100  1
  Zn  Zn136  1  0.31068623  0.31210063  0.31266258  1
  Zn  Zn137  1  0.31288234  0.31316533  0.81261461  1
  Zn  Zn138  1  0.31340999  0.81100651  0.31364924  1
  Zn  Zn139  1  0.31289264  0.81084185  0.81211187  1
  Zn  Zn140  1  0.81260080  0.31380684  0.31410209  1
  Zn  Zn141  1  0.81302370  0.31500578  0.81203243  1
  Zn  Zn142  1  0.81146412  0.81379350  0.31140744  1
  Zn  Zn143  1  0.81142134  0.81223561  0.81299421  1
  Zn  Zn144  1  0.18780127  0.43732432  0.43831162  1
  Zn  Zn145  1  0.18691932  0.43849959  0.93648060  1
  Zn  Zn146  1  0.18668193  0.93784798  0.43869016  1
  Zn  Zn147  1  0.18938270  0.93805209  0.93805922  1
  Zn  Zn148  1  0.68782863  0.43562321  0.43817334  1
  Zn  Zn149  1  0.68542976  0.43859209  0.93669246  1
  Zn  Zn150  1  0.68870991  0.93509598  0.43559903  1
  Zn  Zn151  1  0.68678697  0.93785454  0.93626574  1
  Zn  Zn152  1  0.31165401  0.06193775  0.06275162  1
  Zn  Zn153  1  0.31297470  0.06161711  0.56231842  1
  Zn  Zn154  1  0.31111152  0.56193776  0.06156965  1
  Zn  Zn155  1  0.31294876  0.56082279  0.56228755  1
  Zn  Zn156  1  0.81146233  0.06335456  0.06194673  1
  Zn  Zn157  1  0.81386417  0.06460494  0.56200249  1
  Zn  Zn158  1  0.81224389  0.56390892  0.06634813  1
  Zn  Zn159  1  0.81384742  0.56329767  0.56286946  1
  Zn  Zn160  1  0.43647578  0.43663004  0.18694874  1
  Zn  Zn161  1  0.43732043  0.43802025  0.68826834  1
  Zn  Zn162  1  0.43838814  0.93579599  0.18759865  1
  Zn  Zn163  1  0.43886603  0.93982975  0.68634136  1
  Zn  Zn164  1  0.93539950  0.43735799  0.18768429  1
  Zn  Zn165  1  0.93719614  0.43642920  0.68655226  1
  Zn  Zn166  1  0.93623400  0.93748779  0.18874807  1
  Zn  Zn167  1  0.93914570  0.93770782  0.68997428  1
  Zn  Zn168  1  0.06286102  0.06354373  0.31220161  1
  Zn  Zn169  1  0.06324510  0.06150357  0.81185531  1
  Zn  Zn170  1  0.06319031  0.56475223  0.31443934  1
  Zn  Zn171  1  0.06375196  0.56105737  0.81281597  1
  Zn  Zn172  1  0.56116941  0.05929656  0.31252700  1
  Zn  Zn173  1  0.56173888  0.06373673  0.81104385  1
  Zn  Zn174  1  0.56290559  0.56140663  0.31334380  1
  Zn  Zn175  1  0.56204178  0.56393353  0.81361429  1
  Zn  Zn176  1  0.43633546  0.18520160  0.43753468  1
  Zn  Zn177  1  0.43631049  0.18939699  0.93737341  1
  Zn  Zn178  1  0.43888286  0.68626905  0.43594989  1
  Zn  Zn179  1  0.43799404  0.68897125  0.93605853  1
  Zn  Zn180  1  0.93783540  0.18764590  0.43968774  1
  Zn  Zn181  1  0.93643465  0.18876749  0.93847781  1
  Zn  Zn182  1  0.93712550  0.68589192  0.43687226  1
  Zn  Zn183  1  0.93895530  0.68830866  0.93726199  1
  Zn  Zn184  1  0.06158109  0.31424499  0.06273403  1
  Zn  Zn185  1  0.06309426  0.31153249  0.56249074  1
  Zn  Zn186  1  0.06296103  0.81232168  0.06247139  1
  Zn  Zn187  1  0.06425206  0.81125258  0.56056713  1
  Zn  Zn188  1  0.56146189  0.31365818  0.06173138  1
  Zn  Zn189  1  0.56243028  0.31275227  0.56223181  1
  Zn  Zn190  1  0.56124512  0.81129047  0.06266091  1
  Zn  Zn191  1  0.56401333  0.81268129  0.56441253  1
  O  O192  1  0.11877015  0.11982721  0.12042326  1
  O  O193  1  0.11380985  0.12424758  0.62851573  1
  O  O194  1  0.12192333  0.61826207  0.11873915  1
  O  O195  1  0.11172529  0.62506326  0.62784566  1
  O  O196  1  0.61872521  0.12061271  0.11907972  1
  O  O197  1  0.62410509  0.11754972  0.61685812  1
  O  O198  1  0.61845264  0.62345865  0.11390444  1
  O  O199  1  0.62129684  0.61680914  0.62011964  1
  O  O200  1  0.38037072  0.37816124  0.37909052  1
  O  O201  1  0.38095400  0.38157302  0.87699485  1
  O  O202  1  0.37743858  0.88096908  0.38482763  1
  O  O203  1  0.38006220  0.88121307  0.88003014  1
  O  O204  1  0.88222819  0.38137547  0.37737415  1
  O  O205  1  0.88306923  0.37822812  0.87794199  1
  O  O206  1  0.88282208  0.88504176  0.37301930  1
  O  O207  1  0.88089226  0.88088629  0.88001642  1
  O  O208  1  0.25688750  -0.00040494  0.36733704  1
  O  O209  1  0.25709849  0.00802644  0.87528628  1
  O  O210  1  0.25754562  0.49780520  0.36729758  1
  O  O211  1  0.25627294  0.50699044  0.87347849  1
  O  O212  1  0.75998232  0.00552733  0.37266602  1
  O  O213  1  0.75557676  0.00685795  0.87026429  1
  O  O214  1  0.75510499  0.50358884  0.37070137  1
  O  O215  1  0.75106153  0.50367275  0.86372004  1
  O  O216  1  0.24354931  0.49379579  0.13035420  1
  O  O217  1  0.24772535  0.48965857  0.62741040  1
  O  O218  1  0.24417481  0.99439251  0.13025542  1
  O  O219  1  0.24913961  0.98797809  0.62838497  1
  O  O220  1  0.74827874  0.49265841  0.13238772  1
  O  O221  1  0.74187266  0.50181491  0.63283149  1
  O  O222  1  0.74278521  0.99441657  0.12432830  1
  O  O223  1  0.74623579  0.99934956  0.63109744  1
  O  O224  1  0.00476592  0.36988678  0.25566593  1
  O  O225  1  0.00471324  0.36923729  0.75553106  1
  O  O226  1  0.00360415  0.86868441  0.25635568  1
  O  O227  1  0.00985024  0.87329769  0.75658732  1
  O  O228  1  0.50450287  0.36737736  0.25463182  1
  O  O229  1  0.50177065  0.36872318  0.75681470  1
  O  O230  1  0.50705065  0.86705209  0.24874134  1
  O  O231  1  0.50562515  0.87165286  0.75454728  1
  O  O232  1  0.49421204  0.12924658  0.24374634  1
  O  O233  1  0.49309755  0.13310211  0.74915913  1
  O  O234  1  0.49503387  0.62820582  0.24345910  1
  O  O235  1  0.49618310  0.63156636  0.74587517  1
  O  O236  1  0.99408940  0.13141355  0.24383514  1
  O  O237  1  0.99485146  0.13022311  0.74489656  1
  O  O238  1  0.99748527  0.63847960  0.24917926  1
  O  O239  1  0.99106206  0.62431465  0.74189025  1
  O  O240  1  0.36687964  0.25058670  0.00738027  1
  O  O241  1  0.37005257  0.25484192  0.50478487  1
  O  O242  1  0.37463898  0.75692715  0.00679976  1
  O  O243  1  0.37754826  0.76348808  0.50176982  1
  O  O244  1  0.86748948  0.25095579  0.00696750  1
  O  O245  1  0.86780776  0.24952327  0.50667136  1
  O  O246  1  0.87048628  0.75663216  0.00438457  1
  O  O247  1  0.86726814  0.74784664  0.50917164  1
  O  O248  1  0.13159703  0.24879726  0.49341069  1
  O  O249  1  0.12841336  0.24407923  0.99568689  1
  O  O250  1  0.12724323  0.74703653  0.49477514  1
  O  O251  1  0.12611249  0.74379563  0.99429165  1
  O  O252  1  0.62959173  0.24331796  0.49402985  1
  O  O253  1  0.62942401  0.24430993  0.99424003  1
  O  O254  1  0.63735344  0.74429323  0.50140645  1
  O  O255  1  0.62960597  0.74111844  0.99992122  1
  O  O256  1  0.49410182  0.24404516  0.12999564  1
  O  O257  1  0.49378371  0.24900796  0.63119169  1
  O  O258  1  0.49343536  0.74290658  0.12986766  1
  O  O259  1  0.49998621  0.74321419  0.63215954  1
  O  O260  1  0.99478849  0.24535420  0.13056266  1
  O  O261  1  0.99489830  0.24208068  0.63188618  1
  O  O262  1  0.99357443  0.75274826  0.13435001  1
  O  O263  1  0.99059606  0.74098179  0.62542177  1
  O  O264  1  0.00398546  0.25543901  0.36972803  1
  O  O265  1  0.00491453  0.25450104  0.87081568  1
  O  O266  1  -0.00534573  0.76068591  0.36508510  1
  O  O267  1  0.00707739  0.75747932  0.87316600  1
  O  O268  1  0.50501019  0.25327769  0.36880994  1
  O  O269  1  0.50465559  0.25540421  0.87029383  1
  O  O270  1  0.50444375  0.75080576  0.36537302  1
  O  O271  1  0.50193096  0.75862593  0.86786933  1
  O  O272  1  0.24879850  0.13316407  0.49844211  1
  O  O273  1  0.24321309  0.13048999  0.99606671  1
  O  O274  1  0.24903634  0.62886567  0.49986577  1
  O  O275  1  0.24253131  0.62603573  0.99330025  1
  O  O276  1  0.74434084  0.13003276  0.49291607  1
  O  O277  1  0.74382066  0.13122462  0.99413617  1
  O  O278  1  0.74659512  0.63243859  0.49541458  1
  O  O279  1  0.74079836  0.63007615  1.00106203  1
  O  O280  1  0.24879615  0.36816487  0.00701668  1
  O  O281  1  0.25584697  0.36826057  0.50582255  1
  O  O282  1  0.25710642  0.87445489  0.00733297  1
  O  O283  1  0.26044149  0.87652177  0.50832794  1
  O  O284  1  0.74957174  0.36941075  0.00611984  1
  O  O285  1  0.75211423  0.36584915  0.50250504  1
  O  O286  1  0.75523964  0.87103946  0.00416080  1
  O  O287  1  0.75447210  0.86310651  0.50158848  1
  O  O288  1  0.12809993  0.49407446  0.24460868  1
  O  O289  1  0.12670339  0.49053278  0.74750594  1
  O  O290  1  0.12934167  0.99505958  0.24361026  1
  O  O291  1  0.12787728  0.98688662  0.75007058  1
  O  O292  1  0.63132460  0.49165827  0.24908371  1
  O  O293  1  0.63389610  0.50319857  0.74151485  1
  O  O294  1  0.62534211  0.99347875  0.24141455  1
  O  O295  1  0.63059793  0.99662197  0.74458430  1
  O  O296  1  0.37045077  0.00347499  0.25387126  1
  O  O297  1  0.37518723  0.00747790  0.75728394  1
  O  O298  1  0.36921444  0.50353255  0.25440260  1
  O  O299  1  0.37460646  0.50777640  0.75741141  1
  O  O300  1  0.87351630  0.00700858  0.25881898  1
  O  O301  1  0.87002990  0.00537742  0.75672648  1
  O  O302  1  0.86808961  0.50078481  0.25717902  1
  O  O303  1  0.86686172  0.50891788  0.74808643  1
  O  O304  1  0.11839740  0.36963885  0.36913260  1
  O  O305  1  0.11900027  0.36845906  0.87025852  1
  O  O306  1  0.11258619  0.87666678  0.36748717  1
  O  O307  1  0.12210245  0.87112727  0.86902142  1
  O  O308  1  0.61937022  0.36735147  0.36972369  1
  O  O309  1  0.61772830  0.36873704  0.87251924  1
  O  O310  1  0.62450704  0.87122629  0.36490803  1
  O  O311  1  0.61751442  0.87573541  0.86824729  1
  O  O312  1  0.37992616  0.12944513  0.13027029  1
  O  O313  1  0.37629538  0.13179622  0.63182430  1
  O  O314  1  0.37954079  0.62937751  0.12994049  1
  O  O315  1  0.38355459  0.62479387  0.63197539  1
  O  O316  1  0.87986217  0.13059322  0.12959112  1
  O  O317  1  0.88339450  0.13029479  0.63188651  1
  O  O318  1  0.87824121  0.63536152  0.12832435  1
  O  O319  1  0.88290505  0.63190802  0.63281717  1
  O  O320  1  0.25304565  0.25450495  0.12080154  1
  O  O321  1  0.25660868  0.25560534  0.61973973  1
  O  O322  1  0.25650629  0.75696472  0.12479867  1
  O  O323  1  0.25421807  0.76469671  0.62387088  1
  O  O324  1  0.75414812  0.25461955  0.11966598  1
  O  O325  1  0.75618758  0.24867323  0.61927331  1
  O  O326  1  0.75538966  0.75704092  0.11830398  1
  O  O327  1  0.76006597  0.74829329  0.61639933  1
  O  O328  1  0.24311411  0.24927330  0.38107122  1
  O  O329  1  0.24358931  0.24483725  0.88149141  1
  O  O330  1  0.24748504  0.74713047  0.37689560  1
  O  O331  1  0.24402852  0.74342153  0.87782514  1
  O  O332  1  0.74432900  0.24379095  0.37972077  1
  O  O333  1  0.74461533  0.24543942  0.87941773  1
  O  O334  1  0.75198802  0.74384017  0.38466389  1
  O  O335  1  0.74749305  0.74716268  0.88340675  1
  O  O336  1  0.00491614  0.12014327  0.00561138  1
  O  O337  1  0.00176827  0.12534699  0.51338844  1
  O  O338  1  0.00614623  0.61566020  0.00034599  1
  O  O339  1  -0.00184079  0.61624955  0.50945646  1
  O  O340  1  0.50455974  0.12052835  0.00483576  1
  O  O341  1  0.50724859  0.11752245  0.50014070  1
  O  O342  1  0.50685734  0.62092308  0.00445957  1
  O  O343  1  0.50780075  0.62321507  0.50703807  1
  O  O344  1  0.49365837  0.37496992  0.49237792  1
  O  O345  1  0.49804239  0.38159949  0.99325632  1
  O  O346  1  0.49238800  0.88049348  0.50055655  1
  O  O347  1  0.49455932  0.88124712  0.99489687  1
  O  O348  1  0.99842965  0.38392066  0.49509953  1
  O  O349  1  0.99953475  0.38510004  0.99491165  1
  O  O350  1  0.99584756  0.87585177  0.48778128  1
  O  O351  1  0.99469878  0.88161879  0.99520558  1
  O  O352  1  0.49356561  0.49097220  0.37536571  1
  O  O353  1  0.49457845  0.49550887  0.87987076  1
  O  O354  1  0.49374421  0.99583195  0.38153912  1
  O  O355  1  0.49446461  0.99592396  0.88055326  1
  O  O356  1  0.99489315  0.49560608  0.38275319  1
  O  O357  1  0.99960601  0.49473118  0.88522692  1
  O  O358  1  0.99090373  0.99197554  0.37201029  1
  O  O359  1  0.99457952  0.99551828  0.88126563  1
  O  O360  1  0.00433429  0.00575462  0.12028633  1
  O  O361  1  -0.00057243  0.01164629  0.62567626  1
  O  O362  1  0.00502937  0.49986163  0.11625411  1
  O  O363  1  -0.00099936  0.50801807  0.61716455  1
  O  O364  1  0.50441848  0.00567652  0.11829335  1
  O  O365  1  0.50836619  0.00258298  0.61760092  1
  O  O366  1  0.50038823  0.50558609  0.11842261  1
  O  O367  1  0.51135786  0.50623330  0.62557791  1
  O  O368  1  0.24294166  0.37999556  0.24418753  1
  O  O369  1  0.24315499  0.37390853  0.74406028  1
  O  O370  1  0.24477788  0.88069756  0.24378298  1
  O  O371  1  0.24338593  0.87658529  0.74330041  1
  O  O372  1  0.74371352  0.37874580  0.24579347  1
  O  O373  1  0.74815936  0.38739878  0.74674178  1
  O  O374  1  0.74312653  0.87665794  0.24145303  1
  O  O375  1  0.74459394  0.88253324  0.74932013  1
  O  O376  1  0.25649224  0.11696788  0.25004687  1
  O  O377  1  0.25637038  0.12514768  0.75765447  1
  O  O378  1  0.25772813  0.61663038  0.24860590  1
  O  O379  1  0.25729525  0.62466486  0.75595515  1
  O  O380  1  0.75616152  0.12406588  0.25633594  1
  O  O381  1  0.75575399  0.11979997  0.75612241  1
  O  O382  1  0.75015495  0.61826327  0.25615764  1
  O  O383  1  0.75885809  0.61733167  0.74933548  1
  O  O384  1  0.37338543  0.11709925  0.36735972  1
  O  O385  1  0.36946840  0.12121063  0.87066775  1
  O  O386  1  0.37599750  0.61595715  0.36716839  1
  O  O387  1  0.37050323  0.62049570  0.86986757  1
  O  O388  1  0.87155119  0.11839356  0.36963117  1
  O  O389  1  0.86990401  0.12006823  0.87052179  1
  O  O390  1  0.86816407  0.61734516  0.37273715  1
  O  O391  1  0.87518289  0.62422248  0.86208029  1
  O  O392  1  0.12916789  0.38021676  0.13128793  1
  O  O393  1  0.13123505  0.37330854  0.63248394  1
  O  O394  1  0.12971719  0.88158958  0.12949336  1
  O  O395  1  0.13209976  0.87481930  0.63424140  1
  O  O396  1  0.63078498  0.37448522  0.13228462  1
  O  O397  1  0.62642882  0.38760178  0.62678748  1
  O  O398  1  0.62947610  0.88063811  0.12792840  1
  O  O399  1  0.62884615  0.88232561  0.63202461  1
  O  O400  1  0.11855340  0.25593603  0.25475810  1
  O  O401  1  0.11861162  0.25521210  0.75767034  1
  O  O402  1  0.11323044  0.75748061  0.24908070  1
  O  O403  1  0.12401565  0.76168770  0.75635019  1
  O  O404  1  0.61865550  0.25342173  0.25568988  1
  O  O405  1  0.61926275  0.25063791  0.75614719  1
  O  O406  1  0.61910363  0.75599775  0.24787095  1
  O  O407  1  0.61982366  0.75689252  0.75066837  1
  O  O408  1  0.37953941  0.24365112  0.24460629  1
  O  O409  1  0.38039620  0.24508988  0.74517198  1
  O  O410  1  0.38175635  0.74399003  0.24340988  1
  O  O411  1  0.38294728  0.74388091  0.74806211  1
  O  O412  1  0.88029395  0.24507545  0.24514208  1
  O  O413  1  0.88013865  0.24385303  0.74596705  1
  O  O414  1  0.88330530  0.75233829  0.24322559  1
  O  O415  1  0.87464586  0.74130096  0.74113285  1
  O  O416  1  0.37795361  0.49078587  0.49307864  1
  O  O417  1  0.38125491  0.49916931  0.99287865  1
  O  O418  1  0.38104471  0.99174942  0.49543860  1
  O  O419  1  0.38078773  0.99558890  0.99491121  1
  O  O420  1  0.88520248  0.49920859  0.49544292  1
  O  O421  1  0.88568045  0.50049450  0.99933944  1
  O  O422  1  0.87805615  1.00023829  0.48691572  1
  O  O423  1  0.88012842  0.99574837  0.99471357  1
  O  O424  1  0.11923132  0.00555940  0.00580424  1
  O  O425  1  0.12005234  0.00348594  0.50399034  1
  O  O426  1  0.11634847  0.50478138  0.00494878  1
  O  O427  1  0.11122165  0.50079336  0.50268237  1
  O  O428  1  0.61873519  0.00641178  0.00420816  1
  O  O429  1  0.62212344  0.00347288  0.50359268  1
  O  O430  1  0.61865106  0.51011685  0.00135783  1
  O  O431  1  0.62580865  0.50583434  0.51003956  1
  O  O432  1  0.36691570  0.36718992  0.12427190  1
  O  O433  1  0.37043662  0.36891315  0.61991799  1
  O  O434  1  0.37026397  0.86989429  0.11962355  1
  O  O435  1  0.36876254  0.87618839  0.61691713  1
  O  O436  1  0.86750733  0.36747860  0.12374132  1
  O  O437  1  0.87314864  0.36542582  0.62328311  1
  O  O438  1  0.86942678  0.87194274  0.11812577  1
  O  O439  1  0.87608135  0.86277389  0.62513655  1
  O  O440  1  0.12653804  0.13372845  0.37555280  1
  O  O441  1  0.12915178  0.12993179  0.88102851  1
  O  O442  1  0.12942730  0.62776082  0.37814492  1
  O  O443  1  0.12990783  0.63062261  0.87914854  1
  O  O444  1  0.63010050  0.12881503  0.37897643  1
  O  O445  1  0.63014519  0.13071948  0.88048576  1
  O  O446  1  0.63274345  0.62557963  0.38222292  1
  O  O447  1  0.62543513  0.62741798  0.88834831  1
