# generated using pymatgen
data_V3Zn3O8
_symmetry_space_group_name_H-M   'P 1'
_cell_length_a   17.08751528
_cell_length_b   17.08788317
_cell_length_c   17.08902184
_cell_angle_alpha   89.98475322
_cell_angle_beta   90.00536996
_cell_angle_gamma   89.98791334
_symmetry_Int_Tables_number   1
_chemical_formula_structural   V3Zn3O8
_chemical_formula_sum   'V96 Zn96 O256'
_cell_volume   4989.81402906
_cell_formula_units_Z   32
loop_
 _symmetry_equiv_pos_site_id
 _symmetry_equiv_pos_as_xyz
  1  'x, y, z'
loop_
 _atom_site_type_symbol
 _atom_site_label
 _atom_site_symmetry_multiplicity
 _atom_site_fract_x
 _atom_site_fract_y
 _atom_site_fract_z
 _atom_site_occupancy
  V  V0  1  0.49974984  -0.00110793  -0.00048009  1
  V  V1  1  0.74969861  0.87486859  0.62641081  1
  V  V2  1  -0.00187814  0.50032873  0.49998882  1
  V  V3  1  0.12535194  0.87577143  0.25162433  1
  V  V4  1  0.87591238  0.87460550  0.00077029  1
  V  V5  1  -0.00078574  0.00096487  0.00083610  1
  V  V6  1  0.75123183  0.62406516  0.87559908  1
  V  V7  1  0.00217270  0.62619721  0.12523659  1
  V  V8  1  0.74991778  0.74934086  0.49988159  1
  V  V9  1  0.00120705  0.75038654  0.75117661  1
  V  V10  1  0.12492084  0.37540550  0.74777405  1
  V  V11  1  0.74893270  0.24950933  0.49981843  1
  V  V12  1  0.87392258  0.62341025  0.25210832  1
  V  V13  1  -0.00195063  0.37632524  0.37553040  1
  V  V14  1  0.24935898  0.12445733  0.87478164  1
  V  V15  1  0.74921827  0.37545985  0.62568861  1
  V  V16  1  0.37640912  0.00019486  0.37552584  1
  V  V17  1  0.74942589  -0.00074405  0.24980907  1
  V  V18  1  0.37352394  0.24940711  0.12208079  1
  V  V19  1  0.25005742  0.50053811  0.24993206  1
  V  V20  1  -0.00039663  0.37543785  0.87553309  1
  V  V21  1  0.37526808  -0.00180386  0.87606524  1
  V  V22  1  0.87589634  0.75053062  0.12396247  1
  V  V23  1  0.62618888  0.00032644  0.12534899  1
  V  V24  1  -0.00036080  0.12527593  0.62562202  1
  V  V25  1  0.37535865  0.24925518  0.62412358  1
  V  V26  1  0.12517183  0.37615887  0.24954031  1
  V  V27  1  0.37486630  0.75072932  0.62594194  1
  V  V28  1  0.62482934  0.24922344  0.87474757  1
  V  V29  1  0.24956907  0.25009359  0.49900505  1
  V  V30  1  0.87568734  0.37536100  0.00082128  1
  V  V31  1  0.49922451  0.24998973  0.24854957  1
  V  V32  1  0.24858542  0.37508726  0.62421283  1
  V  V33  1  -0.00011604  0.12535282  0.12509603  1
  V  V34  1  0.75003133  -0.00061363  0.75080773  1
  V  V35  1  0.74939202  0.49996104  0.75019398  1
  V  V36  1  0.12705986  0.50104079  0.12588262  1
  V  V37  1  0.87509757  0.12493074  0.25085150  1
  V  V38  1  0.37441910  0.49972360  0.87306319  1
  V  V39  1  0.87428527  0.00063276  0.87548853  1
  V  V40  1  0.37363803  0.37410959  -0.00274929  1
  V  V41  1  0.50038591  0.50075505  0.00005986  1
  V  V42  1  -0.00036765  0.25042305  0.25076958  1
  V  V43  1  0.37488519  0.49867418  0.37471471  1
  V  V44  1  0.37497057  0.37448557  0.49800874  1
  V  V45  1  0.49993808  0.62488651  0.62429723  1
  V  V46  1  0.62572580  0.74978523  0.37492376  1
  V  V47  1  0.49948628  0.12426377  0.62485464  1
  V  V48  1  0.00119212  0.87424895  0.87481241  1
  V  V49  1  0.62492241  -0.00142810  0.62636458  1
  V  V50  1  0.00079860  0.87506757  0.37524888  1
  V  V51  1  0.87471305  0.62414273  0.75085597  1
  V  V52  1  0.87534551  0.87488117  0.50092391  1
  V  V53  1  0.62469653  0.74978934  0.87603181  1
  V  V54  1  0.62547930  0.12439096  0.49967078  1
  V  V55  1  0.62409428  0.37589508  0.24898420  1
  V  V56  1  0.50113466  0.75016383  0.75148748  1
  V  V57  1  0.24946262  0.00044905  0.75016546  1
  V  V58  1  0.12459003  0.12515228  0.49998920  1
  V  V59  1  0.24986195  0.25058643  -0.00115284  1
  V  V60  1  0.25001679  0.62587779  0.37589141  1
  V  V61  1  0.37664170  0.62546817  0.24953641  1
  V  V62  1  0.25243225  0.87387932  0.12502763  1
  V  V63  1  0.24960788  -0.00008801  0.25044557  1
  V  V64  1  -0.00060314  -0.00016828  0.50109142  1
  V  V65  1  0.24971087  0.12476189  0.37422191  1
  V  V66  1  0.25021382  0.74949615  0.49979531  1
  V  V67  1  0.87531975  0.74970225  0.62557735  1
  V  V68  1  0.12407307  0.25011102  0.37454669  1
  V  V69  1  0.87421440  0.25078092  0.62577961  1
  V  V70  1  0.62446359  0.37525665  0.74883575  1
  V  V71  1  0.12556242  -0.00013363  0.62632680  1
  V  V72  1  0.24948864  0.62689222  0.87491050  1
  V  V73  1  -0.00107639  0.25052173  0.75019043  1
  V  V74  1  0.12331238  0.12572111  0.00044880  1
  V  V75  1  0.25022831  0.87575787  0.62577656  1
  V  V76  1  0.37438174  0.62417112  0.74950686  1
  V  V77  1  0.75175451  0.74871234  0.00024411  1
  V  V78  1  0.50035371  -0.00084413  0.50021929  1
  V  V79  1  0.50116562  0.74902789  0.24799316  1
  V  V80  1  0.00142178  0.50021810  -0.00026718  1
  V  V81  1  0.49973538  0.12456620  0.12435879  1
  V  V82  1  0.49958525  0.25011483  0.74789837  1
  V  V83  1  0.12463386  0.25042712  0.87476153  1
  V  V84  1  0.62441951  0.62339203  0.50063278  1
  V  V85  1  0.62515977  0.12571755  -0.00088634  1
  V  V86  1  0.87419484  0.12442180  0.75129493  1
  V  V87  1  0.74893318  0.37598356  0.12498059  1
  V  V88  1  0.87506869  0.25116241  0.12555157  1
  V  V89  1  0.12735994  0.62644897  -0.00023296  1
  V  V90  1  0.50117763  0.87543812  0.37510499  1
  V  V91  1  0.00111239  0.75151356  0.25078382  1
  V  V92  1  0.00037297  0.62435757  0.62461768  1
  V  V93  1  0.37456878  0.12532103  0.24884087  1
  V  V94  1  0.49885839  0.37402292  0.37362823  1
  V  V95  1  0.87429622  0.00063000  0.37560170  1
  Zn  Zn96  1  0.74875655  0.50087079  0.25181988  1
  Zn  Zn97  1  0.75045297  0.12437715  0.87677271  1
  Zn  Zn98  1  0.24826866  0.50036917  0.74635739  1
  Zn  Zn99  1  0.62689338  0.87349670  0.24852103  1
  Zn  Zn100  1  0.62410315  0.50056618  0.12290089  1
  Zn  Zn101  1  0.37621378  0.87601611  0.50094181  1
  Zn  Zn102  1  0.75005744  0.24944666  -0.00101265  1
  Zn  Zn103  1  0.62504528  0.24855956  0.37446443  1
  Zn  Zn104  1  0.62608036  0.62303393  0.00341516  1
  Zn  Zn105  1  0.37485943  0.12528895  0.74929952  1
  Zn  Zn106  1  0.12396842  0.62488116  0.50015836  1
  Zn  Zn107  1  0.49983976  0.87364498  0.87675324  1
  Zn  Zn108  1  0.50022378  0.49832370  0.50041216  1
  Zn  Zn109  1  0.49866803  0.37577707  0.87217417  1
  Zn  Zn110  1  0.37740768  0.74840450  0.12202381  1
  Zn  Zn111  1  0.50199960  0.62357423  0.12493297  1
  Zn  Zn112  1  0.37708945  0.87204082  0.00230557  1
  Zn  Zn113  1  0.62357141  0.87531900  0.75119646  1
  Zn  Zn114  1  0.12507563  0.87405384  0.75207161  1
  Zn  Zn115  1  0.87496696  0.49939940  0.87578421  1
  Zn  Zn116  1  0.74972872  0.87383216  0.12478368  1
  Zn  Zn117  1  0.74877043  0.12548807  0.37527161  1
  Zn  Zn118  1  0.62327286  0.49942295  0.62507479  1
  Zn  Zn119  1  0.87166924  0.49835304  0.37429206  1
  Zn  Zn120  1  0.12584361  0.50145585  0.62476603  1
  Zn  Zn121  1  0.12626883  0.75237555  0.87593030  1
  Zn  Zn122  1  0.12479543  0.00048268  0.12540385  1
  Zn  Zn123  1  0.24947981  0.37546369  0.12376248  1
  Zn  Zn124  1  0.75004480  0.62230030  0.37476140  1
  Zn  Zn125  1  0.87237797  0.37608053  0.49796556  1
  Zn  Zn126  1  0.25273924  0.75178751  0.00089742  1
  Zn  Zn127  1  0.12497600  0.74918998  0.37651224  1
  Zn  Zn128  1  0.18695922  0.18824695  0.18608770  1
  Zn  Zn129  1  0.18789284  0.18774040  0.68802546  1
  Zn  Zn130  1  0.18858934  0.68970032  0.18964991  1
  Zn  Zn131  1  0.18465678  0.68745435  0.68776287  1
  Zn  Zn132  1  0.68776286  0.18804829  0.18686750  1
  Zn  Zn133  1  0.68730239  0.18577245  0.68798851  1
  Zn  Zn134  1  0.68687942  0.68522802  0.18420944  1
  Zn  Zn135  1  0.68723434  0.68706394  0.68807022  1
  Zn  Zn136  1  0.31136303  0.31261004  0.31055983  1
  Zn  Zn137  1  0.31202350  0.31315146  0.81027110  1
  Zn  Zn138  1  0.31519420  0.81330268  0.31285406  1
  Zn  Zn139  1  0.31222806  0.81312134  0.81110460  1
  Zn  Zn140  1  0.81146740  0.31267977  0.31380300  1
  Zn  Zn141  1  0.81131326  0.31356437  0.81319062  1
  Zn  Zn142  1  0.81314611  0.81159292  0.31340237  1
  Zn  Zn143  1  0.81326565  0.81285545  0.81324480  1
  Zn  Zn144  1  0.18521184  0.43909534  0.43749479  1
  Zn  Zn145  1  0.18788411  0.43924690  0.93577133  1
  Zn  Zn146  1  0.18786100  0.93641819  0.43868971  1
  Zn  Zn147  1  0.18638284  0.93790582  0.93934857  1
  Zn  Zn148  1  0.68804880  0.43823342  0.43440786  1
  Zn  Zn149  1  0.68723037  0.43585939  0.93583922  1
  Zn  Zn150  1  0.68710646  0.93652737  0.43730385  1
  Zn  Zn151  1  0.68870755  0.93594483  0.93853981  1
  Zn  Zn152  1  0.31101510  0.06083512  0.06167372  1
  Zn  Zn153  1  0.31332040  0.06256106  0.56185457  1
  Zn  Zn154  1  0.31530953  0.56342184  0.06285104  1
  Zn  Zn155  1  0.31309072  0.56141097  0.56207414  1
  Zn  Zn156  1  0.81158552  0.06413850  0.06248795  1
  Zn  Zn157  1  0.81181717  0.06267399  0.56462302  1
  Zn  Zn158  1  0.81414466  0.56185401  0.06352935  1
  Zn  Zn159  1  0.81214185  0.56163474  0.56383164  1
  Zn  Zn160  1  0.43523687  0.43638755  0.18448830  1
  Zn  Zn161  1  0.43735633  0.43803699  0.68554343  1
  Zn  Zn162  1  0.43860733  0.93665899  0.18890983  1
  Zn  Zn163  1  0.43725919  0.93548983  0.69047335  1
  Zn  Zn164  1  0.93892556  0.43910016  0.18656410  1
  Zn  Zn165  1  0.93544827  0.43796816  0.68660816  1
  Zn  Zn166  1  0.93709862  0.93755852  0.18680370  1
  Zn  Zn167  1  0.93727182  0.93660629  0.68908194  1
  Zn  Zn168  1  0.06253008  0.06159819  0.31240452  1
  Zn  Zn169  1  0.06192319  0.06173798  0.81320471  1
  Zn  Zn170  1  0.06291962  0.56363905  0.31499868  1
  Zn  Zn171  1  0.06359729  0.56144485  0.81163266  1
  Zn  Zn172  1  0.56393899  0.06362446  0.31338464  1
  Zn  Zn173  1  0.56180927  0.06327732  0.81161442  1
  Zn  Zn174  1  0.56200182  0.56129100  0.31435302  1
  Zn  Zn175  1  0.56287782  0.56326447  0.81387468  1
  Zn  Zn176  1  0.43873154  0.18751501  0.43659224  1
  Zn  Zn177  1  0.43831538  0.18552629  0.93577191  1
  Zn  Zn178  1  0.43749994  0.68780003  0.43641122  1
  Zn  Zn179  1  0.43573710  0.68707520  0.93932734  1
  Zn  Zn180  1  0.93570234  0.18761334  0.43766829  1
  Zn  Zn181  1  0.93647689  0.18882545  0.93815489  1
  Zn  Zn182  1  0.93781241  0.68783585  0.43690193  1
  Zn  Zn183  1  0.93868958  0.68700539  0.93637035  1
  Zn  Zn184  1  0.06310592  0.31354980  0.06336799  1
  Zn  Zn185  1  0.06125495  0.31416246  0.56189155  1
  Zn  Zn186  1  0.06634791  0.81266300  0.06266944  1
  Zn  Zn187  1  0.06461328  0.81247645  0.56419866  1
  Zn  Zn188  1  0.56001639  0.31417921  0.05998730  1
  Zn  Zn189  1  0.56257172  0.31275870  0.56204242  1
  Zn  Zn190  1  0.56547612  0.81529758  0.06211068  1
  Zn  Zn191  1  0.56268324  0.81222001  0.56266587  1
  O  O192  1  0.11736216  0.12511406  0.11860422  1
  O  O193  1  0.11918983  0.12071557  0.61913075  1
  O  O194  1  0.12127094  0.62053819  0.12099530  1
  O  O195  1  0.11546335  0.62247874  0.62188402  1
  O  O196  1  0.61870018  0.12084433  0.11959301  1
  O  O197  1  0.61914685  0.11820220  0.61959181  1
  O  O198  1  0.62073993  0.61779288  0.12104959  1
  O  O199  1  0.61896297  0.62629218  0.61543637  1
  O  O200  1  0.37900819  0.37878668  0.37840780  1
  O  O201  1  0.37530459  0.38115727  0.87939258  1
  O  O202  1  0.38259207  0.88341647  0.37682098  1
  O  O203  1  0.37375980  0.88856831  0.87707070  1
  O  O204  1  0.88347823  0.37665298  0.37639326  1
  O  O205  1  0.88179833  0.37508328  0.88221641  1
  O  O206  1  0.88096784  0.88091306  0.38156994  1
  O  O207  1  0.88120097  0.88097356  0.88140540  1
  O  O208  1  0.25560893  0.00594272  0.37096986  1
  O  O209  1  0.25630847  0.00525989  0.87112237  1
  O  O210  1  0.25493912  0.50526937  0.36976760  1
  O  O211  1  0.25595818  0.51080760  0.87236541  1
  O  O212  1  0.75591737  0.00152293  0.36711534  1
  O  O213  1  0.75693228  0.00069485  0.86913677  1
  O  O214  1  0.75432823  0.50419103  0.36940996  1
  O  O215  1  0.75174640  0.50578663  0.86877547  1
  O  O216  1  0.24446568  0.49960002  0.13230633  1
  O  O217  1  0.24742592  0.49078892  0.62492630  1
  O  O218  1  0.24844107  0.99261172  0.13270008  1
  O  O219  1  0.24543878  0.99652269  0.62941967  1
  O  O220  1  0.74964989  0.48578962  0.12812988  1
  O  O221  1  0.74751317  0.49326139  0.63185890  1
  O  O222  1  0.74557193  1.00049549  0.13486032  1
  O  O223  1  0.74504995  0.99416463  0.63062313  1
  O  O224  1  0.00568101  0.36972185  0.25470416  1
  O  O225  1  0.00369147  0.36859616  0.75504357  1
  O  O226  1  0.00443840  0.87153365  0.25563382  1
  O  O227  1  -0.00036584  0.86864529  0.75673091  1
  O  O228  1  0.50566389  0.36896771  0.25222517  1
  O  O229  1  0.50614812  0.36764129  0.74939241  1
  O  O230  1  0.50256285  0.86592110  0.25683760  1
  O  O231  1  0.50284411  0.86556506  0.75498767  1
  O  O232  1  0.49418838  0.12980632  0.24370066  1
  O  O233  1  0.49863116  0.13176544  0.74148903  1
  O  O234  1  0.49497289  0.63418720  0.25237346  1
  O  O235  1  0.49453970  0.63088477  0.74447111  1
  O  O236  1  0.99506498  0.13081651  0.24554529  1
  O  O237  1  0.99455959  0.13077565  0.74483893  1
  O  O238  1  0.99445723  0.63131725  0.24469676  1
  O  O239  1  0.99401322  0.62965839  0.74505178  1
  O  O240  1  0.36972305  0.25336871  0.00230144  1
  O  O241  1  0.36865290  0.25452982  0.50346857  1
  O  O242  1  0.37156583  0.75435181  0.00442243  1
  O  O243  1  0.36539979  0.75101779  0.50629628  1
  O  O244  1  0.87442979  0.25732597  0.00795675  1
  O  O245  1  0.86512596  0.24994892  0.50723573  1
  O  O246  1  0.87194242  0.75471402  0.00492108  1
  O  O247  1  0.87012270  0.75551474  0.50591495  1
  O  O248  1  0.12926470  0.24434883  0.49392977  1
  O  O249  1  0.12913601  0.24562983  0.99398482  1
  O  O250  1  0.13858804  0.74924153  0.49951831  1
  O  O251  1  0.13009242  0.74118785  0.99736393  1
  O  O252  1  0.63458344  0.24360867  0.50078182  1
  O  O253  1  0.62304182  0.24515319  0.98989665  1
  O  O254  1  0.63004387  0.74216122  0.49557303  1
  O  O255  1  0.63168696  0.74804782  0.99147681  1
  O  O256  1  0.49328805  0.24385268  0.12854801  1
  O  O257  1  0.49463965  0.24405272  0.62823245  1
  O  O258  1  0.50180439  0.75054805  0.13853311  1
  O  O259  1  0.49455312  0.74495372  0.63068040  1
  O  O260  1  0.99480475  0.24575514  0.13171845  1
  O  O261  1  0.99457250  0.24442027  0.63018337  1
  O  O262  1  0.99603519  0.74508632  0.13061619  1
  O  O263  1  0.99374064  0.74529656  0.62966694  1
  O  O264  1  0.00507181  0.25462326  0.37027478  1
  O  O265  1  0.00535101  0.25541322  0.86965181  1
  O  O266  1  0.00107587  0.75842386  0.36963858  1
  O  O267  1  0.00020824  0.75670448  0.86849809  1
  O  O268  1  0.50002758  0.25602906  0.36597585  1
  O  O269  1  0.50948361  0.24971962  0.86775159  1
  O  O270  1  0.50550087  0.75512757  0.36765411  1
  O  O271  1  0.50964698  0.74814537  0.87058401  1
  O  O272  1  0.24399735  0.13028197  0.49384338  1
  O  O273  1  0.24330139  0.13037557  0.99424030  1
  O  O274  1  0.25049297  0.63472962  0.49546100  1
  O  O275  1  0.24582750  0.62437636  0.99037144  1
  O  O276  1  0.74446781  0.13377302  0.50157327  1
  O  O277  1  0.74141743  0.12945560  0.99809735  1
  O  O278  1  0.74082051  0.63152301  0.50120556  1
  O  O279  1  0.75138460  0.63075115  0.99350931  1
  O  O280  1  0.25500522  0.36787669  -0.00049858  1
  O  O281  1  0.25436097  0.36807941  0.50265458  1
  O  O282  1  0.25073105  0.87606094  0.01322791  1
  O  O283  1  0.25269405  0.86634112  0.50623523  1
  O  O284  1  0.75548533  0.37301339  0.00941813  1
  O  O285  1  0.74932460  0.36538097  0.50595050  1
  O  O286  1  0.75914321  0.86740773  0.00102161  1
  O  O287  1  0.75625260  0.86973963  0.50615052  1
  O  O288  1  0.12997716  0.49578585  0.24539412  1
  O  O289  1  0.12621877  0.49001616  0.74641326  1
  O  O290  1  0.13184347  0.99436306  0.24942730  1
  O  O291  1  0.13108394  0.99998452  0.74332952  1
  O  O292  1  0.62298644  0.48546297  0.24693056  1
  O  O293  1  0.63113959  0.49353914  0.74955243  1
  O  O294  1  0.63444128  1.00131229  0.24458696  1
  O  O295  1  0.63121206  0.99850529  0.74406902  1
  O  O296  1  0.37036867  0.00722266  0.25607997  1
  O  O297  1  0.36887956  0.00247318  0.75945776  1
  O  O298  1  0.36969021  0.50430742  0.25524768  1
  O  O299  1  0.37347128  0.50682166  0.75523470  1
  O  O300  1  0.86843366  0.00531640  0.25497505  1
  O  O301  1  0.87050847  0.00557800  0.75546811  1
  O  O302  1  0.87687228  0.51329568  0.24902687  1
  O  O303  1  0.86789120  0.50643122  0.75200452  1
  O  O304  1  0.11882871  0.36888495  0.36915569  1
  O  O305  1  0.11947272  0.36887824  0.86946099  1
  O  O306  1  0.11822127  0.87480807  0.36969438  1
  O  O307  1  0.11682625  0.87413231  0.87361485  1
  O  O308  1  0.61844113  0.37220678  0.36462220  1
  O  O309  1  0.62292917  0.36430929  0.86769102  1
  O  O310  1  0.61897504  0.86787615  0.37347950  1
  O  O311  1  0.62551528  0.86083799  0.87385270  1
  O  O312  1  0.37973754  0.12937079  0.12935794  1
  O  O313  1  0.38137068  0.13180404  0.62466124  1
  O  O314  1  0.37944210  0.62721381  0.13551198  1
  O  O315  1  0.37983778  0.63103369  0.63004792  1
  O  O316  1  0.88058999  0.13140633  0.13092032  1
  O  O317  1  0.88106925  0.12986625  0.63129918  1
  O  O318  1  0.88267418  0.63081509  0.13217147  1
  O  O319  1  0.87991700  0.63128021  0.63113825  1
  O  O320  1  0.25579777  0.25036480  0.11668016  1
  O  O321  1  0.25492657  0.25378186  0.61765705  1
  O  O322  1  0.25313879  0.76266662  0.12772454  1
  O  O323  1  0.25537655  0.75461446  0.61857161  1
  O  O324  1  0.75614425  0.26075778  0.12488612  1
  O  O325  1  0.75423092  0.25439942  0.61837822  1
  O  O326  1  0.75797274  0.75114716  0.11792671  1
  O  O327  1  0.75599692  0.75509604  0.62009726  1
  O  O328  1  0.24389613  0.24411367  0.37906939  1
  O  O329  1  0.24403206  0.24425376  0.87929874  1
  O  O330  1  0.25206306  0.74560839  0.38509343  1
  O  O331  1  0.25012032  0.73729898  0.87509265  1
  O  O332  1  0.74849304  0.24771151  0.38738709  1
  O  O333  1  0.73667892  0.24813647  0.87532286  1
  O  O334  1  0.74429136  0.74833643  0.38250241  1
  O  O335  1  0.74394664  0.74420677  0.87956383  1
  O  O336  1  0.00386725  0.12110050  0.00556536  1
  O  O337  1  0.00474491  0.11979411  0.50583184  1
  O  O338  1  0.00646069  0.62013288  0.00562746  1
  O  O339  1  -0.00093489  0.61742576  0.50564165  1
  O  O340  1  0.50546002  0.11900331  0.00579517  1
  O  O341  1  0.50559553  0.11936115  0.50520876  1
  O  O342  1  0.49964564  0.61165073  0.00071738  1
  O  O343  1  0.50935267  0.62655452  0.50513289  1
  O  O344  1  0.49298815  0.37387078  0.49221649  1
  O  O345  1  0.49170875  0.38279967  0.99554232  1
  O  O346  1  0.49897019  0.88147030  0.49400221  1
  O  O347  1  0.49795285  0.88444757  0.99747297  1
  O  O348  1  0.99731836  0.38301959  0.49431277  1
  O  O349  1  0.99612407  0.38034333  0.99559035  1
  O  O350  1  0.99466757  0.88057083  0.49651430  1
  O  O351  1  0.99530892  0.88094071  0.99572256  1
  O  O352  1  0.49206006  0.49153592  0.37629433  1
  O  O353  1  0.49240043  0.49899966  0.88227118  1
  O  O354  1  0.49593008  0.99570644  0.37996228  1
  O  O355  1  0.49074477  1.00040515  0.87994493  1
  O  O356  1  0.99839658  0.49472606  0.38361890  1
  O  O357  1  0.99952622  0.49292840  0.88221432  1
  O  O358  1  0.99422148  0.99530678  0.38177097  1
  O  O359  1  0.99327572  0.99540271  0.88091781  1
  O  O360  1  0.00023206  0.00775924  0.11889804  1
  O  O361  1  0.00441698  0.00573142  0.62024867  1
  O  O362  1  0.00777065  0.50660526  0.11948821  1
  O  O363  1  -0.00104906  0.50558503  0.61586686  1
  O  O364  1  0.50545502  0.00618551  0.12087992  1
  O  O365  1  0.50488898  0.00405450  0.62039288  1
  O  O366  1  0.49949236  0.49822420  0.11169815  1
  O  O367  1  0.50238130  0.50892996  0.62074934  1
  O  O368  1  0.24270766  0.38199199  0.24876414  1
  O  O369  1  0.24261764  0.37438664  0.74191806  1
  O  O370  1  0.24578270  0.88093409  0.24559433  1
  O  O371  1  0.24802582  0.88239477  0.74336432  1
  O  O372  1  0.74072050  0.37333467  0.24191584  1
  O  O373  1  0.74438304  0.37965976  0.74485558  1
  O  O374  1  0.75094074  0.88786593  0.24882662  1
  O  O375  1  0.75008165  0.88137006  0.74327124  1
  O  O376  1  0.25470771  0.12083500  0.25509854  1
  O  O377  1  0.25094542  0.11912853  0.75714009  1
  O  O378  1  0.25629828  0.62030795  0.25639740  1
  O  O379  1  0.25560064  0.62416800  0.75785328  1
  O  O380  1  0.75616258  0.11630749  0.25102354  1
  O  O381  1  0.75726345  0.11746441  0.75074904  1
  O  O382  1  0.76254721  0.62437466  0.24937644  1
  O  O383  1  0.75539627  0.62001473  0.75501287  1
  O  O384  1  0.36933670  0.12070680  0.36851666  1
  O  O385  1  0.36832985  0.11462901  0.87396714  1
  O  O386  1  0.37005036  0.61852328  0.36955888  1
  O  O387  1  0.36697059  0.61988459  0.86913616  1
  O  O388  1  0.87417234  0.11787740  0.36858877  1
  O  O389  1  0.87430574  0.11928082  0.86899867  1
  O  O390  1  0.87492722  0.62575594  0.36226143  1
  O  O391  1  0.86889993  0.62346665  0.86808080  1
  O  O392  1  0.12623838  0.38234343  0.13187831  1
  O  O393  1  0.13097736  0.37348052  0.63059055  1
  O  O394  1  0.13438311  0.87792526  0.13295568  1
  O  O395  1  0.13182421  0.88342045  0.62656756  1
  O  O396  1  0.63255441  0.37362641  0.13173078  1
  O  O397  1  0.63143808  0.37548756  0.63144361  1
  O  O398  1  0.62995939  0.88491576  0.12852702  1
  O  O399  1  0.63222369  0.88072361  0.62630644  1
  O  O400  1  0.11920882  0.25494868  0.25546777  1
  O  O401  1  0.11801617  0.25424217  0.75557134  1
  O  O402  1  0.11814481  0.75765450  0.25312936  1
  O  O403  1  0.11583016  0.75296843  0.75316180  1
  O  O404  1  0.61829609  0.25935786  0.24934628  1
  O  O405  1  0.61988379  0.25401756  0.75610902  1
  O  O406  1  0.61742691  0.74946637  0.25648250  1
  O  O407  1  0.62012107  0.74947392  0.75985489  1
  O  O408  1  0.37878193  0.24427282  0.24274950  1
  O  O409  1  0.38115797  0.24817805  0.74225116  1
  O  O410  1  0.38706481  0.74399015  0.25193019  1
  O  O411  1  0.38069672  0.74384449  0.74543389  1
  O  O412  1  0.88047377  0.24483579  0.24550938  1
  O  O413  1  0.87964798  0.24482149  0.74550657  1
  O  O414  1  0.88122655  0.74355690  0.24435898  1
  O  O415  1  0.88020119  0.74419655  0.74414555  1
  O  O416  1  0.37566082  0.49200286  0.49199064  1
  O  O417  1  0.38079699  0.49406027  0.99309614  1
  O  O418  1  0.38240169  1.00006889  0.49304629  1
  O  O419  1  0.38096437  1.00065340  0.99075085  1
  O  O420  1  0.88585826  0.49851689  0.49829307  1
  O  O421  1  0.88393485  0.49306322  1.00010045  1
  O  O422  1  0.87997138  0.99483328  0.49651415  1
  O  O423  1  0.87994508  0.99556980  0.99543003  1
  O  O424  1  0.11684301  0.00876421  0.00165586  1
  O  O425  1  0.11937795  0.00618889  0.50559356  1
  O  O426  1  0.12079181  0.50599581  0.00608038  1
  O  O427  1  0.11099297  0.50154604  0.50161968  1
  O  O428  1  0.62019226  0.00586116  0.00450840  1
  O  O429  1  0.62025233  0.00481109  0.50633470  1
  O  O430  1  0.61274532  0.49834829  -0.00162379  1
  O  O431  1  0.62328174  0.51208577  0.50080421  1
  O  O432  1  0.37153445  0.36632344  0.11645867  1
  O  O433  1  0.36948035  0.36817104  0.61766048  1
  O  O434  1  0.36375312  0.87495362  0.12669864  1
  O  O435  1  0.36824669  0.86843004  0.62404906  1
  O  O436  1  0.86836712  0.37042476  0.12202812  1
  O  O437  1  0.86714690  0.36705620  0.62413762  1
  O  O438  1  0.87521517  0.86798751  0.11821696  1
  O  O439  1  0.87012205  0.86967970  0.61947553  1
  O  O440  1  0.12961356  0.13020514  0.38032752  1
  O  O441  1  0.12858048  0.13132405  0.88072363  1
  O  O442  1  0.13438146  0.62865604  0.37824854  1
  O  O443  1  0.13487648  0.62435967  0.88062810  1
  O  O444  1  0.62736817  0.12826189  0.38374445  1
  O  O445  1  0.62540834  0.13389086  0.87992483  1
  O  O446  1  0.62509465  0.63105243  0.38497970  1
  O  O447  1  0.63220860  0.63552602  0.87705557  1
