# generated using pymatgen
data_V3Zn3O8
_symmetry_space_group_name_H-M   'P 1'
_cell_length_a   17.08641055
_cell_length_b   17.08793371
_cell_length_c   17.08669023
_cell_angle_alpha   90.00182661
_cell_angle_beta   89.99756459
_cell_angle_gamma   90.01321407
_symmetry_Int_Tables_number   1
_chemical_formula_structural   V3Zn3O8
_chemical_formula_sum   'V96 Zn96 O256'
_cell_volume   4988.82559554
_cell_formula_units_Z   32
loop_
 _symmetry_equiv_pos_site_id
 _symmetry_equiv_pos_as_xyz
  1  'x, y, z'
loop_
 _atom_site_type_symbol
 _atom_site_label
 _atom_site_symmetry_multiplicity
 _atom_site_fract_x
 _atom_site_fract_y
 _atom_site_fract_z
 _atom_site_occupancy
  V  V0  1  -0.00008410  0.24830997  0.74928473  1
  V  V1  1  0.00112174  0.12551299  0.12487003  1
  V  V2  1  0.87494684  0.12459167  0.75161533  1
  V  V3  1  0.12520067  0.12473839  0.00001171  1
  V  V4  1  0.62547053  -0.00062074  0.12560305  1
  V  V5  1  0.62518720  0.37599363  0.75057841  1
  V  V6  1  0.12382220  0.37523910  0.24958357  1
  V  V7  1  -0.00191362  0.37603703  0.87730910  1
  V  V8  1  0.12467283  0.37442485  0.74826793  1
  V  V9  1  0.62500649  0.12558628  -0.00034489  1
  V  V10  1  0.49893488  0.24970560  0.25001810  1
  V  V11  1  0.37682880  0.87462867  0.50049980  1
  V  V12  1  0.37633658  0.00055824  0.87568067  1
  V  V13  1  0.25050896  0.12571141  0.87406463  1
  V  V14  1  -0.00121937  0.75027896  0.24916515  1
  V  V15  1  0.24937782  0.50078163  0.74844266  1
  V  V16  1  0.87688062  0.87528700  0.49993619  1
  V  V17  1  -0.00001931  0.62504277  0.62542680  1
  V  V18  1  0.50171842  0.87356816  0.37546701  1
  V  V19  1  0.25140732  0.25146687  -0.00020186  1
  V  V20  1  0.74942609  0.50067212  0.25119851  1
  V  V21  1  0.37334251  0.62526521  0.24838792  1
  V  V22  1  0.75104806  0.24976244  0.50072481  1
  V  V23  1  0.12521590  0.87510002  0.75111417  1
  V  V24  1  0.12658521  0.12468507  0.49922080  1
  V  V25  1  0.50085663  0.00044184  0.00042206  1
  V  V26  1  0.62337204  0.49969292  0.12486836  1
  V  V27  1  0.62419845  0.37468567  0.25043389  1
  V  V28  1  0.12405863  0.50003808  0.62348176  1
  V  V29  1  0.87482207  0.62397728  0.75126201  1
  V  V30  1  0.25148875  0.87518574  0.62549973  1
  V  V31  1  0.12449239  0.62544592  0.49934895  1
  V  V32  1  0.75072024  0.74960577  0.49993804  1
  V  V33  1  0.62521075  0.49939949  0.62620173  1
  V  V34  1  0.00111492  0.75061618  0.75049634  1
  V  V35  1  0.00014858  0.87551264  0.87456067  1
  V  V36  1  0.74958248  0.37442159  0.12537364  1
  V  V37  1  0.74965611  0.62452717  0.37487318  1
  V  V38  1  0.37663230  0.12562647  0.74942522  1
  V  V39  1  0.24735313  0.50033485  0.24807375  1
  V  V40  1  0.62380354  0.62479585  0.00096340  1
  V  V41  1  0.62534544  0.24973069  0.37571319  1
  V  V42  1  0.62475898  0.25014622  0.87625412  1
  V  V43  1  0.74998906  0.12582725  0.87558634  1
  V  V44  1  0.25072210  0.74983594  0.49958513  1
  V  V45  1  0.87435824  0.00086928  0.87483223  1
  V  V46  1  0.87473394  0.24949089  0.62392892  1
  V  V47  1  0.24970667  0.25030151  0.49870261  1
  V  V48  1  0.49958140  0.62458527  0.62461410  1
  V  V49  1  -0.00242798  0.62460271  0.12497201  1
  V  V50  1  0.00208867  -0.00086833  0.49936224  1
  V  V51  1  0.50252000  0.00008589  0.50176593  1
  V  V52  1  0.00111750  0.24962441  0.25025057  1
  V  V53  1  0.37521828  0.87427807  -0.00001929  1
  V  V54  1  0.50000458  0.24984322  0.74971871  1
  V  V55  1  0.37556729  0.74980577  0.62511583  1
  V  V56  1  0.12508762  0.00085639  0.12469623  1
  V  V57  1  0.37480630  0.25067747  0.12508951  1
  V  V58  1  0.49933720  0.49907191  0.49959170  1
  V  V59  1  0.62451888  0.74959774  0.37523594  1
  V  V60  1  0.50181629  0.12501858  0.62591995  1
  V  V61  1  0.49902515  0.62495706  0.12526294  1
  V  V62  1  0.62564640  0.12415484  0.50182574  1
  V  V63  1  0.37339946  0.62526799  0.74974157  1
  V  V64  1  0.49833069  0.37615895  0.87492949  1
  V  V65  1  0.37432164  0.37503528  0.49938343  1
  V  V66  1  0.62455831  0.74976747  0.87501605  1
  V  V67  1  0.75086388  0.12420859  0.37510918  1
  V  V68  1  0.24920670  0.62576339  0.37286793  1
  V  V69  1  0.12524196  0.75111906  0.37423826  1
  V  V70  1  0.74978648  0.75029997  0.00102655  1
  V  V71  1  0.37369346  0.50040048  0.87542871  1
  V  V72  1  0.50047671  0.75019954  0.75016812  1
  V  V73  1  0.75042373  -0.00031163  0.25095337  1
  V  V74  1  0.75009234  0.62393257  0.87545975  1
  V  V75  1  0.00104538  0.87536187  0.37498557  1
  V  V76  1  0.12611344  0.00053775  0.62421561  1
  V  V77  1  0.49963611  0.37503449  0.37636598  1
  V  V78  1  0.49965197  0.74879142  0.25066679  1
  V  V79  1  0.24933659  0.37494084  0.62230069  1
  V  V80  1  0.12607100  0.24962450  0.87378006  1
  V  V81  1  0.62659965  0.87417617  0.75006762  1
  V  V82  1  0.87598261  0.74998055  0.62532527  1
  V  V83  1  0.75063238  0.87485022  0.62620749  1
  V  V84  1  0.74926583  0.50040418  0.75097125  1
  V  V85  1  0.87389811  0.25050248  0.12516757  1
  V  V86  1  0.12607713  0.87618291  0.24863704  1
  V  V87  1  0.87416244  0.49997140  0.37618281  1
  V  V88  1  0.12385664  0.62601833  -0.00178980  1
  V  V89  1  0.25098698  0.00036391  0.74977038  1
  V  V90  1  0.37570034  0.00198954  0.37344402  1
  V  V91  1  0.12523962  0.24884771  0.37486939  1
  V  V92  1  0.87431973  0.87481221  0.00132337  1
  V  V93  1  -0.00193870  0.49959264  0.49889744  1
  V  V94  1  0.62479859  0.62416885  0.50061651  1
  V  V95  1  0.25042264  0.87520287  0.12432255  1
  Zn  Zn96  1  0.87208079  0.75030288  0.12722178  1
  Zn  Zn97  1  0.87269848  0.37720447  -0.00008130  1
  Zn  Zn98  1  0.12202984  0.49820121  0.12192903  1
  Zn  Zn99  1  0.24938294  0.74920770  -0.00322907  1
  Zn  Zn100  1  0.25201833  0.12513888  0.37293604  1
  Zn  Zn101  1  0.24738744  0.62711878  0.87525576  1
  Zn  Zn102  1  0.49968095  0.12551661  0.12685311  1
  Zn  Zn103  1  0.62581448  0.87317534  0.24980330  1
  Zn  Zn104  1  0.00055232  0.12344588  0.62455140  1
  Zn  Zn105  1  0.37451897  0.49993211  0.37403472  1
  Zn  Zn106  1  0.37461108  0.74931676  0.12374178  1
  Zn  Zn107  1  0.37515352  0.12509338  0.24997080  1
  Zn  Zn108  1  0.75075923  0.87327832  0.12736804  1
  Zn  Zn109  1  0.12707578  0.75042309  0.87496784  1
  Zn  Zn110  1  -0.00254856  0.49983948  0.00065470  1
  Zn  Zn111  1  0.87356528  0.62696022  0.24908461  1
  Zn  Zn112  1  0.87686273  0.12362578  0.25103057  1
  Zn  Zn113  1  0.50119621  0.87473841  0.87470159  1
  Zn  Zn114  1  0.37303593  0.37681139  0.00027231  1
  Zn  Zn115  1  0.24842986  0.37582327  0.12214769  1
  Zn  Zn116  1  0.87439243  0.37446356  0.49987025  1
  Zn  Zn117  1  0.75055359  0.37588868  0.62508529  1
  Zn  Zn118  1  0.87639455  0.00072377  0.37434444  1
  Zn  Zn119  1  0.25185258  0.00238116  0.25075495  1
  Zn  Zn120  1  0.74925770  -0.00015963  0.74906270  1
  Zn  Zn121  1  0.49728554  0.49979036  0.00082291  1
  Zn  Zn122  1  0.62795616  -0.00020265  0.62729126  1
  Zn  Zn123  1  -0.00322092  0.37361058  0.37681090  1
  Zn  Zn124  1  0.87416361  0.49882320  0.87716780  1
  Zn  Zn125  1  0.74923457  0.25185090  0.00054740  1
  Zn  Zn126  1  -0.00054843  0.00057064  0.00031167  1
  Zn  Zn127  1  0.37517577  0.25003157  0.62403681  1
  Zn  Zn128  1  0.19169212  0.18546655  0.18931985  1
  Zn  Zn129  1  0.18830263  0.18742750  0.68501059  1
  Zn  Zn130  1  0.18476056  0.68912955  0.18362935  1
  Zn  Zn131  1  0.18746528  0.68801562  0.68752234  1
  Zn  Zn132  1  0.68741644  0.18581295  0.18840830  1
  Zn  Zn133  1  0.68866577  0.18751608  0.68928469  1
  Zn  Zn134  1  0.68679564  0.68690425  0.18735140  1
  Zn  Zn135  1  0.68825119  0.68771154  0.68780674  1
  Zn  Zn136  1  0.31180545  0.31354107  0.31262585  1
  Zn  Zn137  1  0.31271461  0.31351702  0.81018712  1
  Zn  Zn138  1  0.31412912  0.81376975  0.31108741  1
  Zn  Zn139  1  0.31114692  0.81141766  0.81498860  1
  Zn  Zn140  1  0.81306082  0.31336713  0.31228739  1
  Zn  Zn141  1  0.81144341  0.31154985  0.81152199  1
  Zn  Zn142  1  0.81364328  0.81373612  0.31317754  1
  Zn  Zn143  1  0.81242135  0.81163442  0.81378697  1
  Zn  Zn144  1  0.18585030  0.43729073  0.43444558  1
  Zn  Zn145  1  0.18579209  0.43924571  0.93774754  1
  Zn  Zn146  1  0.18954941  0.93736879  0.43755462  1
  Zn  Zn147  1  0.18730697  0.93929208  0.93788543  1
  Zn  Zn148  1  0.68866869  0.43537584  0.43949676  1
  Zn  Zn149  1  0.68683995  0.43759086  0.93933734  1
  Zn  Zn150  1  0.68798934  0.93690560  0.43815662  1
  Zn  Zn151  1  0.68899561  0.93783092  0.93612487  1
  Zn  Zn152  1  0.31270757  0.06381050  0.06304534  1
  Zn  Zn153  1  0.31423581  0.06404666  0.56132801  1
  Zn  Zn154  1  0.30990401  0.56342472  0.06241621  1
  Zn  Zn155  1  0.31252741  0.56164530  0.56131808  1
  Zn  Zn156  1  0.81195048  0.06387725  0.06221918  1
  Zn  Zn157  1  0.81367156  0.06119338  0.56292214  1
  Zn  Zn158  1  0.81395397  0.56005624  0.06111844  1
  Zn  Zn159  1  0.81231948  0.56250701  0.56363748  1
  Zn  Zn160  1  0.43548830  0.43657941  0.18796864  1
  Zn  Zn161  1  0.43661967  0.43667250  0.68702769  1
  Zn  Zn162  1  0.44028783  0.93591649  0.18830530  1
  Zn  Zn163  1  0.44039624  0.93791052  0.68811246  1
  Zn  Zn164  1  0.93652493  0.43853229  0.18899500  1
  Zn  Zn165  1  0.93643597  0.43654377  0.68877697  1
  Zn  Zn166  1  0.93809345  0.93842882  0.18669019  1
  Zn  Zn167  1  0.93797287  0.93871062  0.68738624  1
  Zn  Zn168  1  0.06461346  0.06263859  0.31207328  1
  Zn  Zn169  1  0.06113628  0.06159543  0.81257542  1
  Zn  Zn170  1  0.06002670  0.56281696  0.31205604  1
  Zn  Zn171  1  0.06213829  0.56134990  0.81294307  1
  Zn  Zn172  1  0.56194673  0.06404428  0.31228726  1
  Zn  Zn173  1  0.56360593  0.06049844  0.81287496  1
  Zn  Zn174  1  0.56173144  0.56205179  0.31241374  1
  Zn  Zn175  1  0.56135177  0.56322537  0.81303742  1
  Zn  Zn176  1  0.43837539  0.18779426  0.43960780  1
  Zn  Zn177  1  0.43881390  0.18772723  0.93902130  1
  Zn  Zn178  1  0.43629799  0.68544022  0.43573051  1
  Zn  Zn179  1  0.43793695  0.68742710  0.93720741  1
  Zn  Zn180  1  0.93866033  0.18433261  0.43649465  1
  Zn  Zn181  1  0.93772604  0.18911214  0.93950943  1
  Zn  Zn182  1  0.93709850  0.68694878  0.43626144  1
  Zn  Zn183  1  0.93773129  0.68909681  0.93703251  1
  Zn  Zn184  1  0.06328477  0.31037965  0.06243341  1
  Zn  Zn185  1  0.06029209  0.31247243  0.56044412  1
  Zn  Zn186  1  0.06100472  0.81057190  0.06151097  1
  Zn  Zn187  1  0.06374396  0.81311781  0.56351102  1
  Zn  Zn188  1  0.55933041  0.31445983  0.06060026  1
  Zn  Zn189  1  0.56319865  0.31212425  0.56374375  1
  Zn  Zn190  1  0.56209391  0.81256900  0.06387465  1
  Zn  Zn191  1  0.56403284  0.81258470  0.56359570  1
  O  O192  1  0.12134948  0.12109568  0.11941012  1
  O  O193  1  0.12446739  0.11761406  0.61833501  1
  O  O194  1  0.11416176  0.62491580  0.11677992  1
  O  O195  1  0.11957354  0.61990008  0.61879961  1
  O  O196  1  0.62423746  0.11471694  0.11922733  1
  O  O197  1  0.61992794  0.12394312  0.61957058  1
  O  O198  1  0.61868561  0.61869614  0.12049437  1
  O  O199  1  0.61899846  0.62008027  0.61996659  1
  O  O200  1  0.38191696  0.37721550  0.38134653  1
  O  O201  1  0.37927132  0.38585841  0.87181383  1
  O  O202  1  0.38185082  0.88113485  0.38154780  1
  O  O203  1  0.37523584  0.88190804  0.88494905  1
  O  O204  1  0.87601031  0.38468265  0.37751534  1
  O  O205  1  0.88693130  0.37212637  0.87508128  1
  O  O206  1  0.88333922  0.87611998  0.38293098  1
  O  O207  1  0.87942893  0.88019425  0.88213695  1
  O  O208  1  0.26464916  -0.00170340  0.37557866  1
  O  O209  1  0.25576766  0.00665220  0.86892271  1
  O  O210  1  0.24845359  0.50732029  0.36374593  1
  O  O211  1  0.25815422  0.50123335  0.86639447  1
  O  O212  1  0.74909168  0.00499850  0.36615403  1
  O  O213  1  0.75712745  0.00778804  0.87304637  1
  O  O214  1  0.75352825  0.50530793  0.37140359  1
  O  O215  1  0.74902903  0.50693610  0.86832822  1
  O  O216  1  0.24554223  0.49908387  0.13766781  1
  O  O217  1  0.24292733  0.49493168  0.62805601  1
  O  O218  1  0.24499378  0.98984366  0.12530991  1
  O  O219  1  0.24678141  0.99428574  0.62994454  1
  O  O220  1  0.74330785  0.49493310  0.13164279  1
  O  O221  1  0.74255664  0.50006814  0.63236650  1
  O  O222  1  0.74150441  1.00049715  0.13352681  1
  O  O223  1  0.74939137  0.99043619  0.62760187  1
  O  O224  1  0.00957528  0.36953536  0.25150313  1
  O  O225  1  0.00590392  0.36821252  0.75661352  1
  O  O226  1  0.00646723  0.87044826  0.25466733  1
  O  O227  1  0.00562250  0.87021765  0.75429121  1
  O  O228  1  0.50549214  0.37011090  0.25676695  1
  O  O229  1  0.50543421  0.37002010  0.75486175  1
  O  O230  1  0.50276106  0.86703389  0.25768711  1
  O  O231  1  0.50688407  0.86686721  0.75070419  1
  O  O232  1  0.49729934  0.13475261  0.24818487  1
  O  O233  1  0.49579776  0.13002692  0.74600356  1
  O  O234  1  0.49348159  0.62903484  0.24555493  1
  O  O235  1  0.49394428  0.63048964  0.74317970  1
  O  O236  1  1.00038226  0.13198643  0.24264780  1
  O  O237  1  0.99354373  0.13138542  0.74893132  1
  O  O238  1  1.00014656  0.63205175  0.24122606  1
  O  O239  1  0.99534705  0.62989944  0.74402731  1
  O  O240  1  0.36978409  0.25140774  0.00761190  1
  O  O241  1  0.36849543  0.25733003  0.50133952  1
  O  O242  1  0.37428581  0.76256886  0.00140803  1
  O  O243  1  0.37035558  0.75440256  0.50520941  1
  O  O244  1  0.87404545  0.25323117  0.01441524  1
  O  O245  1  0.87080607  0.24810758  0.50921279  1
  O  O246  1  0.86838753  0.76039177  -0.00067868  1
  O  O247  1  0.87076914  0.75475080  0.50575811  1
  O  O248  1  0.12950553  0.24520453  0.49460373  1
  O  O249  1  0.13167294  0.24378944  0.99356870  1
  O  O250  1  0.13119773  0.74526197  0.49502742  1
  O  O251  1  0.12508064  0.73949123  0.99740128  1
  O  O252  1  0.63040811  0.24410875  0.49503658  1
  O  O253  1  0.62370347  0.24340997  0.99351676  1
  O  O254  1  0.63064570  0.74320608  0.49555644  1
  O  O255  1  0.62944871  0.74479797  0.99485762  1
  O  O256  1  0.49113542  0.25086784  0.13099084  1
  O  O257  1  0.49915898  0.24332705  0.63216009  1
  O  O258  1  0.49950925  0.74312900  0.13266432  1
  O  O259  1  0.49450880  0.74363828  0.62943656  1
  O  O260  1  0.99303157  0.24552973  0.13066720  1
  O  O261  1  0.99121121  0.24801320  0.63029974  1
  O  O262  1  0.99814724  0.74149415  0.13158937  1
  O  O263  1  0.99542446  0.74473618  0.62990718  1
  O  O264  1  0.00674385  0.25057278  0.36798871  1
  O  O265  1  0.00664768  0.25634185  0.86919183  1
  O  O266  1  0.00673127  0.75518498  0.37026680  1
  O  O267  1  0.00131525  0.75798167  0.86652751  1
  O  O268  1  0.50622556  0.25575839  0.37131461  1
  O  O269  1  0.50479556  0.25558993  0.86884268  1
  O  O270  1  0.50501158  0.75349874  0.37117206  1
  O  O271  1  0.50652391  0.75075052  0.86764558  1
  O  O272  1  0.24447709  0.13205008  0.49844758  1
  O  O273  1  0.24498512  0.13067541  0.99269140  1
  O  O274  1  0.24441379  0.63054911  0.49421036  1
  O  O275  1  0.23712461  0.62700221  1.00050137  1
  O  O276  1  0.74506716  0.12959657  0.49493093  1
  O  O277  1  0.74266081  0.12818733  0.99363861  1
  O  O278  1  0.74384012  0.63051213  0.49567826  1
  O  O279  1  0.74354198  0.63019591  0.99522618  1
  O  O280  1  0.25042403  0.36728643  0.00136372  1
  O  O281  1  0.25364771  0.37120496  0.50343390  1
  O  O282  1  0.25926684  0.87725993  0.00769515  1
  O  O283  1  0.25665401  0.86862181  0.50605138  1
  O  O284  1  0.75034636  0.37143203  0.00977350  1
  O  O285  1  0.75221398  0.36536925  0.50462139  1
  O  O286  1  0.75979832  0.86935496  -0.00068962  1
  O  O287  1  0.75650965  0.86810280  0.50488973  1
  O  O288  1  0.13121203  0.49219543  0.25048616  1
  O  O289  1  0.12941434  0.49466600  0.74243135  1
  O  O290  1  0.12763873  0.99255276  0.24292845  1
  O  O291  1  0.13165421  0.99523244  0.74453795  1
  O  O292  1  0.62953912  0.49416284  0.24524028  1
  O  O293  1  0.62907785  0.49629352  0.74510370  1
  O  O294  1  0.63215607  0.99958093  0.24230933  1
  O  O295  1  0.62773745  0.99008039  0.74854614  1
  O  O296  1  0.37774949  -0.00093987  0.26272851  1
  O  O297  1  0.37049448  0.00499939  0.75551550  1
  O  O298  1  0.36341256  0.50530665  0.25114342  1
  O  O299  1  0.36952811  0.50550659  0.75549253  1
  O  O300  1  0.86299595  0.00123656  0.25029248  1
  O  O301  1  0.87425977  0.00668945  0.75670608  1
  O  O302  1  0.86677535  0.50243218  0.25848548  1
  O  O303  1  0.86783600  0.50676972  0.75110688  1
  O  O304  1  0.12254219  0.36884245  0.36416807  1
  O  O305  1  0.11846849  0.36892099  0.86730595  1
  O  O306  1  0.12145107  0.86957154  0.36967461  1
  O  O307  1  0.11869264  0.87647349  0.86814106  1
  O  O308  1  0.61973198  0.36892038  0.37033767  1
  O  O309  1  0.61845299  0.37071909  0.86963537  1
  O  O310  1  0.61856729  0.86673925  0.37610369  1
  O  O311  1  0.62450886  0.86698985  0.86930594  1
  O  O312  1  0.37777798  0.13757940  0.12542880  1
  O  O313  1  0.38268668  0.12623973  0.63190148  1
  O  O314  1  0.38013907  0.62701271  0.13049139  1
  O  O315  1  0.37993708  0.63023604  0.62911851  1
  O  O316  1  0.88061626  0.13433684  0.12663741  1
  O  O317  1  0.87658822  0.13460506  0.63096396  1
  O  O318  1  0.88535468  0.62776388  0.12615742  1
  O  O319  1  0.88089189  0.63097142  0.63072479  1
  O  O320  1  0.25914971  0.25070470  0.11872084  1
  O  O321  1  0.25065071  0.25790907  0.61742590  1
  O  O322  1  0.25093216  0.76456365  0.12180400  1
  O  O323  1  0.25610707  0.75540971  0.61914616  1
  O  O324  1  0.75848202  0.25513927  0.12732450  1
  O  O325  1  0.75981041  0.24963908  0.62041386  1
  O  O326  1  0.75101827  0.75293559  0.11748164  1
  O  O327  1  0.75681717  0.75354275  0.61882306  1
  O  O328  1  0.24315742  0.24982858  0.38178566  1
  O  O329  1  0.24541283  0.24481156  0.87811676  1
  O  O330  1  0.24483556  0.74625599  0.37994115  1
  O  O331  1  0.24547436  0.74516027  0.87815469  1
  O  O332  1  0.74445238  0.24467036  0.37967396  1
  O  O333  1  0.74247440  0.24429882  0.87675683  1
  O  O334  1  0.74480409  0.74479984  0.38109794  1
  O  O335  1  0.74396677  0.74299633  0.88087118  1
  O  O336  1  0.00794151  0.12528038  0.00666774  1
  O  O337  1  0.00854713  0.11696665  0.50132507  1
  O  O338  1  0.00602195  0.62602787  0.00818172  1
  O  O339  1  0.00572351  0.62105814  0.50608643  1
  O  O340  1  0.50740286  0.11740908  0.00190659  1
  O  O341  1  0.50678485  0.12022739  0.50623669  1
  O  O342  1  0.50591559  0.62376186  0.00697438  1
  O  O343  1  0.50483284  0.61958033  0.50519062  1
  O  O344  1  0.49527660  0.37974895  0.49579168  1
  O  O345  1  0.49505539  0.37966766  0.99013879  1
  O  O346  1  0.49535853  0.87899410  0.49593746  1
  O  O347  1  0.48980584  0.88100884  1.00025229  1
  O  O348  1  0.99714853  0.38453329  0.49753340  1
  O  O349  1  1.00245991  0.37360970  0.98713313  1
  O  O350  1  0.99709280  0.87886157  0.49465974  1
  O  O351  1  0.98991127  0.87541156  0.99382519  1
  O  O352  1  0.49957339  0.49304037  0.38196647  1
  O  O353  1  0.48868803  0.49559272  0.87308474  1
  O  O354  1  0.49472975  0.99401502  0.38159955  1
  O  O355  1  0.49368161  0.99721768  0.88197028  1
  O  O356  1  0.99152051  0.50130462  0.38128511  1
  O  O357  1  0.99856024  0.48595228  0.87276515  1
  O  O358  1  1.00089265  0.99228020  0.38088539  1
  O  O359  1  0.99259725  0.99332017  0.87739601  1
  O  O360  1  0.00702327  0.00758740  0.12331000  1
  O  O361  1  0.00849907  -0.00024332  0.61786129  1
  O  O362  1  0.00097016  0.51184232  0.12560651  1
  O  O363  1  0.00481597  0.50588261  0.62044633  1
  O  O364  1  0.50991992  0.00153744  0.12043589  1
  O  O365  1  0.50264694  0.00655470  0.61874930  1
  O  O366  1  0.50529746  0.50620308  0.12522750  1
  O  O367  1  0.50509678  0.50568839  0.61990042  1
  O  O368  1  0.24033746  0.38416299  0.25038729  1
  O  O369  1  0.24365914  0.38048427  0.74254766  1
  O  O370  1  0.24534822  0.87672881  0.24025040  1
  O  O371  1  0.24641337  0.88117108  0.74436853  1
  O  O372  1  0.74247896  0.38072683  0.24552672  1
  O  O373  1  0.74235761  0.38203436  0.74940700  1
  O  O374  1  0.74686557  0.88591734  0.24930584  1
  O  O375  1  0.74454285  0.87311698  0.74366150  1
  O  O376  1  0.25699987  0.11959395  0.25526508  1
  O  O377  1  0.25594839  0.11980619  0.75442505  1
  O  O378  1  0.25141346  0.61942257  0.25285259  1
  O  O379  1  0.25598212  0.61796915  0.74828324  1
  O  O380  1  0.74945707  0.11491531  0.25665988  1
  O  O381  1  0.75721654  0.12408979  0.75810867  1
  O  O382  1  0.74931930  0.61810326  0.25733328  1
  O  O383  1  0.75496879  0.62064131  0.75567268  1
  O  O384  1  0.37672376  0.11227273  0.37694428  1
  O  O385  1  0.36995196  0.12011867  0.86952803  1
  O  O386  1  0.36652814  0.62285604  0.36741617  1
  O  O387  1  0.37423987  0.61587658  0.86808367  1
  O  O388  1  0.86665570  0.12137287  0.37164692  1
  O  O389  1  0.87061801  0.12165352  0.87169379  1
  O  O390  1  0.86705570  0.61807628  0.37418907  1
  O  O391  1  0.86835174  0.62477771  0.86799995  1
  O  O392  1  0.12610764  0.37550409  0.13770858  1
  O  O393  1  0.12900663  0.38087563  0.62889919  1
  O  O394  1  0.13188667  0.88011125  0.12778151  1
  O  O395  1  0.13255236  0.88050842  0.63031325  1
  O  O396  1  0.62864179  0.37976472  0.13152902  1
  O  O397  1  0.62539398  0.38196011  0.63274470  1
  O  O398  1  0.62749233  0.88823077  0.12543140  1
  O  O399  1  0.63304496  0.87378672  0.63169963  1
  O  O400  1  0.12183102  0.25751908  0.25422060  1
  O  O401  1  0.12079922  0.25460448  0.75409849  1
  O  O402  1  0.11966034  0.75677917  0.25528476  1
  O  O403  1  0.11847154  0.75769746  0.74844450  1
  O  O404  1  0.61996936  0.25546898  0.25600161  1
  O  O405  1  0.61936408  0.25575418  0.75660584  1
  O  O406  1  0.61841925  0.74992702  0.25818886  1
  O  O407  1  0.61979118  0.75361710  0.75515050  1
  O  O408  1  0.38035247  0.25163043  0.24154833  1
  O  O409  1  0.38170151  0.24330759  0.74848718  1
  O  O410  1  0.38127815  0.74330928  0.24822298  1
  O  O411  1  0.38000462  0.74550266  0.74392966  1
  O  O412  1  0.88120665  0.24912931  0.24031776  1
  O  O413  1  0.87969130  0.24409826  0.74225292  1
  O  O414  1  0.88301271  0.74861178  0.24833781  1
  O  O415  1  0.88095811  0.74426615  0.74420477  1
  O  O416  1  0.38137830  0.49399661  0.49753784  1
  O  O417  1  0.37337480  0.50002466  0.98734696  1
  O  O418  1  0.38225693  0.99365050  0.49359593  1
  O  O419  1  0.38012332  0.99349957  0.99573586  1
  O  O420  1  0.87992587  0.50001253  0.49447878  1
  O  O421  1  0.87970712  0.49445583  0.99471710  1
  O  O422  1  0.88341314  0.99253182  0.49906734  1
  O  O423  1  0.87510883  0.99113622  0.99421220  1
  O  O424  1  0.12350929  0.00748421  0.00641372  1
  O  O425  1  0.12215790  0.00365450  0.50518289  1
  O  O426  1  0.12003934  0.51055950  0.00207685  1
  O  O427  1  0.11960180  0.50651728  0.50395482  1
  O  O428  1  0.62139058  0.00443325  0.00689707  1
  O  O429  1  0.61951076  0.00639259  0.50156288  1
  O  O430  1  0.62226890  0.50737954  0.00719543  1
  O  O431  1  0.61957243  0.50506670  0.50593575  1
  O  O432  1  0.37157357  0.36399339  0.12306472  1
  O  O433  1  0.36731558  0.37450949  0.61788652  1
  O  O434  1  0.36761143  0.87666949  0.11634129  1
  O  O435  1  0.37089212  0.86953110  0.62019986  1
  O  O436  1  0.86909377  0.36579999  0.12683298  1
  O  O437  1  0.87378435  0.36123214  0.62523291  1
  O  O438  1  0.87394501  0.87469880  0.11212241  1
  O  O439  1  0.87149864  0.86811190  0.61984425  1
  O  O440  1  0.12811572  0.13096260  0.38183351  1
  O  O441  1  0.13100791  0.13014133  0.87869636  1
  O  O442  1  0.12954027  0.63195934  0.37986664  1
  O  O443  1  0.12383552  0.62582415  0.88484476  1
  O  O444  1  0.63018613  0.13115332  0.38190393  1
  O  O445  1  0.62984767  0.13041340  0.87968649  1
  O  O446  1  0.62964715  0.62961262  0.38184695  1
  O  O447  1  0.62964584  0.63039667  0.88050927  1
