# generated using pymatgen
data_V3Zn3O8
_symmetry_space_group_name_H-M   'P 1'
_cell_length_a   17.08943953
_cell_length_b   17.08946349
_cell_length_c   17.08994533
_cell_angle_alpha   89.98350767
_cell_angle_beta   90.01731497
_cell_angle_gamma   90.00494937
_symmetry_Int_Tables_number   1
_chemical_formula_structural   V3Zn3O8
_chemical_formula_sum   'V96 Zn96 O256'
_cell_volume   4991.10702149
_cell_formula_units_Z   32
loop_
 _symmetry_equiv_pos_site_id
 _symmetry_equiv_pos_as_xyz
  1  'x, y, z'
loop_
 _atom_site_type_symbol
 _atom_site_label
 _atom_site_symmetry_multiplicity
 _atom_site_fract_x
 _atom_site_fract_y
 _atom_site_fract_z
 _atom_site_occupancy
  V  V0  1  0.24945760  0.24918085  0.00030544  1
  V  V1  1  0.62610287  0.87493859  0.74929536  1
  V  V2  1  0.00023129  0.87433952  0.37474530  1
  V  V3  1  0.37548349  0.12364476  0.75120338  1
  V  V4  1  0.74982458  0.12578798  0.37599908  1
  V  V5  1  0.49853209  0.37477524  0.87555236  1
  V  V6  1  0.74887616  0.37515135  0.12605825  1
  V  V7  1  -0.00043522  0.37363317  0.37420433  1
  V  V8  1  0.37521277  0.62445537  0.75012088  1
  V  V9  1  0.50126203  0.74993183  0.74982602  1
  V  V10  1  0.37431495  0.49883643  0.87545445  1
  V  V11  1  0.50150776  0.12477017  0.62461287  1
  V  V12  1  0.00082660  0.24988762  0.25084208  1
  V  V13  1  0.00024624  0.87634484  0.87485442  1
  V  V14  1  0.50096740  0.00099376  0.50024806  1
  V  V15  1  0.37570174  0.74963291  0.62458184  1
  V  V16  1  0.87495806  0.24847927  0.62621611  1
  V  V17  1  0.87576493  0.12383879  0.24975099  1
  V  V18  1  0.00168182  0.12508578  0.62695302  1
  V  V19  1  0.87660504  -0.00049501  0.37399602  1
  V  V20  1  0.24966082  0.62505554  0.87484990  1
  V  V21  1  0.12635349  0.75009609  0.87492125  1
  V  V22  1  0.87608746  0.74977808  0.62492648  1
  V  V23  1  0.37424342  0.37491288  -0.00009372  1
  V  V24  1  0.37460773  0.00022948  0.37415344  1
  V  V25  1  0.25120351  0.87472723  0.62527807  1
  V  V26  1  0.87484694  0.24994143  0.12611482  1
  V  V27  1  0.37494011  0.12501090  0.25060982  1
  V  V28  1  0.37566885  0.87505332  -0.00023928  1
  V  V29  1  0.87478895  0.62569693  0.74980545  1
  V  V30  1  0.87607961  0.87641639  -0.00244299  1
  V  V31  1  0.49917823  0.25026854  0.25120265  1
  V  V32  1  0.25031383  0.74862782  0.49896959  1
  V  V33  1  0.87379738  0.62562195  0.24926298  1
  V  V34  1  0.74975173  0.62511810  0.87465098  1
  V  V35  1  0.00171060  -0.00140125  0.50068156  1
  V  V36  1  0.25052266  0.74999183  -0.00080505  1
  V  V37  1  0.37443952  0.25018573  0.12650267  1
  V  V38  1  0.62464170  0.25109843  0.87571703  1
  V  V39  1  0.62404769  0.62533079  0.00075955  1
  V  V40  1  0.87550835  0.75063201  0.12474103  1
  V  V41  1  0.62504741  0.49933225  0.62577961  1
  V  V42  1  0.62383227  0.37438100  0.25135644  1
  V  V43  1  0.50005592  0.62403721  0.62464048  1
  V  V44  1  0.62375081  0.50089666  0.12528253  1
  V  V45  1  0.12573077  0.87526037  0.24915912  1
  V  V46  1  0.24941004  0.24930167  0.49998509  1
  V  V47  1  0.49931189  0.62474915  0.12541012  1
  V  V48  1  -0.00084904  0.74992984  0.24920894  1
  V  V49  1  0.49946633  0.00025881  -0.00071005  1
  V  V50  1  0.74905686  0.74944848  0.49897401  1
  V  V51  1  0.62461048  0.87416988  0.24979740  1
  V  V52  1  0.00051366  0.37429963  0.87422783  1
  V  V53  1  0.74934221  0.50051055  0.75032465  1
  V  V54  1  0.62604959  -0.00015509  0.12372417  1
  V  V55  1  0.24979344  0.62393016  0.37488953  1
  V  V56  1  0.24884388  0.49870968  0.74965731  1
  V  V57  1  0.49974775  0.49917040  0.49966876  1
  V  V58  1  0.74870188  0.25127525  0.00121719  1
  V  V59  1  0.12514560  0.00052214  0.12530602  1
  V  V60  1  0.49931312  0.37494604  0.37544755  1
  V  V61  1  0.87348707  0.50027777  0.37404671  1
  V  V62  1  0.37629205  0.87472265  0.49939031  1
  V  V63  1  0.37486618  0.74844403  0.12487495  1
  V  V64  1  0.74964670  0.50061911  0.25080763  1
  V  V65  1  0.37432838  0.62476257  0.24961726  1
  V  V66  1  0.00020495  0.74926019  0.74917323  1
  V  V67  1  0.62573832  0.62571318  0.49918839  1
  V  V68  1  0.37408819  0.50009981  0.37504535  1
  V  V69  1  0.37467609  0.24921408  0.62517934  1
  V  V70  1  0.50111431  0.87516523  0.37392719  1
  V  V71  1  0.62617505  0.00058279  0.62465160  1
  V  V72  1  0.75016937  0.87568823  0.12387347  1
  V  V73  1  0.12459494  0.24936989  0.37578731  1
  V  V74  1  0.00122222  0.50234814  0.50194039  1
  V  V75  1  0.12452950  0.50017943  0.12636530  1
  V  V76  1  0.75043415  0.87638991  0.62463284  1
  V  V77  1  0.62522914  0.37596134  0.75009824  1
  V  V78  1  0.87372661  0.37660835  0.00093569  1
  V  V79  1  0.62425341  0.12542999  0.00122817  1
  V  V80  1  0.25040843  -0.00007359  0.25040024  1
  V  V81  1  0.62465955  0.75063908  0.87416000  1
  V  V82  1  0.12653503  -0.00134243  0.62485557  1
  V  V83  1  0.24765797  0.37540908  0.62709483  1
  V  V84  1  0.75243008  0.12418190  0.87325754  1
  V  V85  1  0.12691663  0.87417876  0.74926663  1
  V  V86  1  -0.00151865  0.50287794  0.00068017  1
  V  V87  1  0.74982470  0.75067107  -0.00077696  1
  V  V88  1  0.25064383  0.12360230  0.87443445  1
  V  V89  1  0.00074878  0.12512610  0.12386944  1
  V  V90  1  0.24872475  0.37527787  0.12524227  1
  V  V91  1  0.12536365  0.12494233  0.00010825  1
  V  V92  1  0.87533781  0.87373605  0.49974339  1
  V  V93  1  0.87314072  0.37351549  0.50131504  1
  V  V94  1  0.50025864  0.24956875  0.74969487  1
  V  V95  1  0.12542509  0.74832976  0.37467197  1
  Zn  Zn96  1  0.74900831  0.37298163  0.62603008  1
  Zn  Zn97  1  0.49895760  0.49965978  0.00021179  1
  Zn  Zn98  1  0.75132332  -0.00018903  0.24891716  1
  Zn  Zn99  1  0.50055893  0.12648930  0.12619696  1
  Zn  Zn100  1  0.12622606  0.12292417  0.50016132  1
  Zn  Zn101  1  0.74749753  0.62674133  0.37442871  1
  Zn  Zn102  1  0.37536697  0.37549138  0.49998710  1
  Zn  Zn103  1  0.00166491  0.25110531  0.75134796  1
  Zn  Zn104  1  0.25327025  -0.00126551  0.74963490  1
  Zn  Zn105  1  0.37655825  -0.00161279  0.87320522  1
  Zn  Zn106  1  0.62458452  0.24890538  0.37692172  1
  Zn  Zn107  1  0.12456302  0.62751462  0.00078207  1
  Zn  Zn108  1  0.12535649  0.37469792  0.25024363  1
  Zn  Zn109  1  0.75254793  0.00082096  0.74899229  1
  Zn  Zn110  1  0.12369915  0.24985836  0.87326233  1
  Zn  Zn111  1  0.87586065  0.12411183  0.75121182  1
  Zn  Zn112  1  0.24942213  0.87430273  0.12483572  1
  Zn  Zn113  1  0.24778813  0.49847164  0.25162828  1
  Zn  Zn114  1  0.12322750  0.50202260  0.62744015  1
  Zn  Zn115  1  0.50109145  0.87507784  0.87357209  1
  Zn  Zn116  1  0.24870133  0.12465164  0.37627173  1
  Zn  Zn117  1  0.87752983  0.00110970  0.87259416  1
  Zn  Zn118  1  0.49917677  0.74955023  0.25124888  1
  Zn  Zn119  1  0.12520323  0.62411702  0.50141935  1
  Zn  Zn120  1  0.74668705  0.24986174  0.50037679  1
  Zn  Zn121  1  0.00083143  0.62674702  0.12445813  1
  Zn  Zn122  1  0.87420049  0.50115825  0.87474613  1
  Zn  Zn123  1  0.62609551  0.12669752  0.49933110  1
  Zn  Zn124  1  0.62439296  0.74899065  0.37457828  1
  Zn  Zn125  1  -0.00043099  0.00137715  -0.00250879  1
  Zn  Zn126  1  0.12295732  0.37473615  0.75172062  1
  Zn  Zn127  1  0.00233427  0.62444803  0.62590555  1
  Zn  Zn128  1  0.18805658  0.18672400  0.18917642  1
  Zn  Zn129  1  0.18414081  0.18912285  0.69128813  1
  Zn  Zn130  1  0.18840857  0.68602902  0.18683812  1
  Zn  Zn131  1  0.18630167  0.68535604  0.68551925  1
  Zn  Zn132  1  0.68692475  0.18697683  0.18998387  1
  Zn  Zn133  1  0.68749167  0.18818182  0.68752142  1
  Zn  Zn134  1  0.68802563  0.68833105  0.18665362  1
  Zn  Zn135  1  0.68845387  0.68784703  0.68585764  1
  Zn  Zn136  1  0.31170527  0.31483227  0.31205862  1
  Zn  Zn137  1  0.31223735  0.31020290  0.81242462  1
  Zn  Zn138  1  0.31243376  0.81223435  0.31157083  1
  Zn  Zn139  1  0.31393756  0.81180928  0.81300368  1
  Zn  Zn140  1  0.81243043  0.31144735  0.31263711  1
  Zn  Zn141  1  0.81485305  0.31291193  0.81191009  1
  Zn  Zn142  1  0.81028930  0.81204690  0.31274338  1
  Zn  Zn143  1  0.81258944  0.81301959  0.81175185  1
  Zn  Zn144  1  0.18633877  0.43567048  0.43823084  1
  Zn  Zn145  1  0.18550594  0.43837543  0.93892243  1
  Zn  Zn146  1  0.18830285  0.93582325  0.43727975  1
  Zn  Zn147  1  0.18742962  0.93880103  0.93793694  1
  Zn  Zn148  1  0.68704292  0.43781387  0.43743684  1
  Zn  Zn149  1  0.68618349  0.43955453  0.93748559  1
  Zn  Zn150  1  0.68840717  0.93943270  0.43680252  1
  Zn  Zn151  1  0.68755442  0.93810773  0.93620524  1
  Zn  Zn152  1  0.31212586  0.06263734  0.06471899  1
  Zn  Zn153  1  0.31379018  0.06243293  0.56294153  1
  Zn  Zn154  1  0.31113525  0.56219517  0.06169801  1
  Zn  Zn155  1  0.31270338  0.56175889  0.56134479  1
  Zn  Zn156  1  0.81335963  0.06122198  0.05990206  1
  Zn  Zn157  1  0.81420517  0.06177460  0.56065371  1
  Zn  Zn158  1  0.81156945  0.56407245  0.06432559  1
  Zn  Zn159  1  0.81196238  0.56333994  0.56398772  1
  Zn  Zn160  1  0.43638513  0.43877402  0.18857692  1
  Zn  Zn161  1  0.43580430  0.43628754  0.68749014  1
  Zn  Zn162  1  0.43832542  0.93787141  0.18581258  1
  Zn  Zn163  1  0.43896952  0.93797543  0.68747892  1
  Zn  Zn164  1  0.93751133  0.43702590  0.18817461  1
  Zn  Zn165  1  0.93461204  0.43877804  0.68811613  1
  Zn  Zn166  1  0.93876087  0.93803323  0.18589992  1
  Zn  Zn167  1  0.93637876  0.93925940  0.69036652  1
  Zn  Zn168  1  0.06401650  0.06381122  0.31276970  1
  Zn  Zn169  1  0.06543767  0.06026268  0.81127288  1
  Zn  Zn170  1  0.06051842  0.56346577  0.31289900  1
  Zn  Zn171  1  0.06387284  0.56187740  0.81234008  1
  Zn  Zn172  1  0.56269628  0.06185746  0.31163146  1
  Zn  Zn173  1  0.56520112  0.06189997  0.81226481  1
  Zn  Zn174  1  0.56139905  0.56286468  0.31293079  1
  Zn  Zn175  1  0.56180424  0.56229983  0.81383055  1
  Zn  Zn176  1  0.43627612  0.18731372  0.43728686  1
  Zn  Zn177  1  0.43630573  0.18732780  0.93837105  1
  Zn  Zn178  1  0.43901801  0.68758944  0.43544332  1
  Zn  Zn179  1  0.43850348  0.68687853  0.93725679  1
  Zn  Zn180  1  0.93768369  0.18573120  0.43967883  1
  Zn  Zn181  1  0.93683558  0.18972559  0.94016977  1
  Zn  Zn182  1  0.93537254  0.68596278  0.43555556  1
  Zn  Zn183  1  0.93710655  0.68911926  0.93553940  1
  Zn  Zn184  1  0.06298891  0.31279945  0.06072717  1
  Zn  Zn185  1  0.06291893  0.31291467  0.56170718  1
  Zn  Zn186  1  0.06232653  0.81438530  0.06182269  1
  Zn  Zn187  1  0.06350057  0.81115969  0.56232679  1
  Zn  Zn188  1  0.56047120  0.31335015  0.06399604  1
  Zn  Zn189  1  0.56399537  0.31150021  0.56043645  1
  Zn  Zn190  1  0.56115780  0.81153148  0.06347790  1
  Zn  Zn191  1  0.56356480  0.81299955  0.56238649  1
  O  O192  1  0.12001406  0.12046140  0.12041618  1
  O  O193  1  0.11694614  0.11882105  0.62351990  1
  O  O194  1  0.12226758  0.61424812  0.12196936  1
  O  O195  1  0.12087816  0.62051144  0.61928936  1
  O  O196  1  0.62456389  0.11869365  0.11864495  1
  O  O197  1  0.61863012  0.11883579  0.62461194  1
  O  O198  1  0.61995832  0.62058032  0.12013419  1
  O  O199  1  0.61854041  0.61908250  0.62017889  1
  O  O200  1  0.38137057  0.38232691  0.37642550  1
  O  O201  1  0.37913288  0.37876823  0.87985519  1
  O  O202  1  0.38076015  0.88048625  0.37997029  1
  O  O203  1  0.37844016  0.87586187  0.88732016  1
  O  O204  1  0.87968588  0.37897989  0.38298399  1
  O  O205  1  0.88230840  0.37801465  0.88308272  1
  O  O206  1  0.88102174  0.87942838  0.37972702  1
  O  O207  1  0.88188899  0.87376430  0.88066584  1
  O  O208  1  0.25686838  0.00065322  0.36953111  1
  O  O209  1  0.25322385  0.01268196  0.87462512  1
  O  O210  1  0.25514353  0.50528475  0.37554394  1
  O  O211  1  0.25525440  0.50445738  0.87013287  1
  O  O212  1  0.75875832  0.00812712  0.37287878  1
  O  O213  1  0.74933998  0.01406136  0.87527965  1
  O  O214  1  0.75661806  0.50038229  0.36789955  1
  O  O215  1  0.75011991  0.50756932  0.86896203  1
  O  O216  1  0.23900799  0.49445522  0.12362074  1
  O  O217  1  0.25200953  0.48981903  0.62991977  1
  O  O218  1  0.24320747  0.99814298  0.13249677  1
  O  O219  1  0.24498083  0.99224652  0.62461934  1
  O  O220  1  0.74387373  0.49428205  0.13088933  1
  O  O221  1  0.74249346  0.49841027  0.63237231  1
  O  O222  1  0.74381801  0.99316876  0.12478283  1
  O  O223  1  0.74433156  0.99390521  0.62404846  1
  O  O224  1  -0.00044534  0.36714670  0.25696103  1
  O  O225  1  -0.00176807  0.37850673  0.76357628  1
  O  O226  1  0.00535173  0.86954323  0.25584683  1
  O  O227  1  0.00685798  0.86855590  0.75456426  1
  O  O228  1  0.50452570  0.37044124  0.25558892  1
  O  O229  1  0.50454232  0.36904431  0.75583767  1
  O  O230  1  0.50906237  0.87504656  0.25411416  1
  O  O231  1  0.50697326  0.86755832  0.75067927  1
  O  O232  1  0.49326780  0.13114308  0.24850136  1
  O  O233  1  0.49632906  0.13083750  0.74544620  1
  O  O234  1  0.49310855  0.62681778  0.24324888  1
  O  O235  1  0.49480476  0.62968511  0.74409032  1
  O  O236  1  0.99490267  0.13083630  0.24412010  1
  O  O237  1  0.99980531  0.12524301  0.73674384  1
  O  O238  1  0.99178406  0.63243698  0.24839962  1
  O  O239  1  0.99299915  0.63143749  0.75060623  1
  O  O240  1  0.36921543  0.25526869  0.00639687  1
  O  O241  1  0.36534264  0.25159731  0.50637987  1
  O  O242  1  0.37137738  0.75729704  0.00391132  1
  O  O243  1  0.37090604  0.75517564  0.50524716  1
  O  O244  1  0.86785068  0.25701051  0.00794950  1
  O  O245  1  0.87619319  0.25918645  0.50813567  1
  O  O246  1  0.86900824  0.75573156  0.00485016  1
  O  O247  1  0.87021831  0.75521163  0.50461292  1
  O  O248  1  0.13357877  0.24945468  0.49409514  1
  O  O249  1  0.13254119  0.24255948  0.99896877  1
  O  O250  1  0.13224021  0.75001229  0.49186499  1
  O  O251  1  0.13202676  0.75037591  0.99314180  1
  O  O252  1  0.62934913  0.24535993  0.49540821  1
  O  O253  1  0.62926541  0.24610700  0.99582549  1
  O  O254  1  0.63142252  0.74372460  0.50066929  1
  O  O255  1  0.63042100  0.74524277  0.99503955  1
  O  O256  1  0.49210397  0.24993565  0.13264966  1
  O  O257  1  0.49468949  0.24503980  0.63065642  1
  O  O258  1  0.49265232  0.74234966  0.12625939  1
  O  O259  1  0.49477535  0.74375720  0.62968743  1
  O  O260  1  0.99438866  0.24548883  0.12998280  1
  O  O261  1  0.99288661  0.24153703  0.62305783  1
  O  O262  1  0.99357751  0.74997397  0.13134386  1
  O  O263  1  0.99336622  0.75002433  0.63146334  1
  O  O264  1  0.00496012  0.25360268  0.37151818  1
  O  O265  1  -0.00076686  0.26252741  0.87645095  1
  O  O266  1  0.00449928  0.75537916  0.36933706  1
  O  O267  1  0.00684822  0.75588995  0.86876014  1
  O  O268  1  0.49933069  0.25684037  0.36846973  1
  O  O269  1  0.50498199  0.25474208  0.86979403  1
  O  O270  1  0.50322938  0.75959713  0.37208239  1
  O  O271  1  0.50722869  0.74987814  0.86750125  1
  O  O272  1  0.24883290  0.13804263  0.50074223  1
  O  O273  1  0.24641374  0.12958388  0.99326379  1
  O  O274  1  0.25032794  0.63180615  0.49286616  1
  O  O275  1  0.24991899  0.63222148  0.99168325  1
  O  O276  1  0.75180129  0.12563999  0.48727336  1
  O  O277  1  0.74431871  0.13218710  0.99330868  1
  O  O278  1  0.74353205  0.63119987  0.49985273  1
  O  O279  1  0.74409729  0.63129979  0.99541529  1
  O  O280  1  0.25517035  0.36895109  0.00457454  1
  O  O281  1  0.25155176  0.36551636  0.50914747  1
  O  O282  1  0.26044168  0.86984308  0.00041431  1
  O  O283  1  0.25737092  0.86826710  0.50495958  1
  O  O284  1  0.75316210  0.37080576  0.00616505  1
  O  O285  1  0.76310335  0.37457505  0.50186826  1
  O  O286  1  0.75465547  0.86910453  0.00403484  1
  O  O287  1  0.75631413  0.87032164  0.50490493  1
  O  O288  1  0.12284489  0.49765473  0.23809896  1
  O  O289  1  0.13376262  0.49551021  0.74821840  1
  O  O290  1  0.13013788  0.99502423  0.24572373  1
  O  O291  1  0.12948954  0.99138190  0.74195539  1
  O  O292  1  0.62992419  0.49449120  0.24436708  1
  O  O293  1  0.62902748  0.49535387  0.74539357  1
  O  O294  1  0.62561969  0.98914107  0.24244328  1
  O  O295  1  0.62742217  0.99290237  0.74290443  1
  O  O296  1  0.37072810  0.00418615  0.25428136  1
  O  O297  1  0.37424277  0.00700604  0.75312260  1
  O  O298  1  0.37222919  0.50721565  0.25698433  1
  O  O299  1  0.36955105  0.50542564  0.75576210  1
  O  O300  1  0.87563462  0.00603850  0.25609001  1
  O  O301  1  0.86991417  0.00570671  0.75432976  1
  O  O302  1  0.86947611  0.50465907  0.25390248  1
  O  O303  1  0.86694050  0.50763660  0.75182070  1
  O  O304  1  0.11736957  0.36625390  0.37406869  1
  O  O305  1  0.11251364  0.37374800  0.87773928  1
  O  O306  1  0.11937857  0.86870928  0.36888372  1
  O  O307  1  0.12174678  0.86952428  0.86898133  1
  O  O308  1  0.61788900  0.37498678  0.36800910  1
  O  O309  1  0.61890146  0.36999312  0.87046289  1
  O  O310  1  0.62029681  0.87696868  0.36463232  1
  O  O311  1  0.62472817  0.86767100  0.86821772  1
  O  O312  1  0.37620221  0.13256636  0.13221086  1
  O  O313  1  0.38129003  0.12995607  0.63137832  1
  O  O314  1  0.37938725  0.62856479  0.12938506  1
  O  O315  1  0.38039868  0.63000697  0.63063649  1
  O  O316  1  0.87973094  0.13071697  0.12905309  1
  O  O317  1  0.88428728  0.13276022  0.62325011  1
  O  O318  1  0.87604134  0.63315186  0.13135947  1
  O  O319  1  0.87670367  0.63262228  0.63214363  1
  O  O320  1  0.25486819  0.25520716  0.11999999  1
  O  O321  1  0.25372992  0.25642907  0.61925263  1
  O  O322  1  0.25686164  0.75117877  0.11722458  1
  O  O323  1  0.25700713  0.75482509  0.61940226  1
  O  O324  1  0.75472866  0.25566546  0.12097779  1
  O  O325  1  0.76241813  0.24999589  0.62256779  1
  O  O326  1  0.75548375  0.75634786  0.11811364  1
  O  O327  1  0.75634662  0.75656272  0.61884002  1
  O  O328  1  0.24383407  0.25184593  0.38495911  1
  O  O329  1  0.25067544  0.23882661  0.88168182  1
  O  O330  1  0.24542812  0.74459775  0.37996876  1
  O  O331  1  0.24589433  0.74441626  0.87929919  1
  O  O332  1  0.75096171  0.23784556  0.37572182  1
  O  O333  1  0.74426149  0.24486362  0.88137063  1
  O  O334  1  0.74643847  0.74855974  0.38378202  1
  O  O335  1  0.74371321  0.74457282  0.88011234  1
  O  O336  1  0.00687559  0.12549064  0.00667145  1
  O  O337  1  0.00135201  0.11757989  0.51094219  1
  O  O338  1  -0.00000277  0.61429726  0.00074586  1
  O  O339  1  -0.00171001  0.61284939  0.49980438  1
  O  O340  1  0.50528580  0.11697553  0.00161652  1
  O  O341  1  0.49957695  0.11811052  0.50694893  1
  O  O342  1  0.50651254  0.62298645  0.00633886  1
  O  O343  1  0.50491816  0.61931667  0.50601442  1
  O  O344  1  0.49826410  0.38189515  0.49422628  1
  O  O345  1  0.49256021  0.37561994  0.99303566  1
  O  O346  1  0.49487707  0.88093777  0.49520541  1
  O  O347  1  0.49281753  0.88269534  0.99905078  1
  O  O348  1  0.99069785  0.38170903  0.49505917  1
  O  O349  1  0.99372690  0.38362358  0.99463171  1
  O  O350  1  0.99479594  0.87864015  0.49400862  1
  O  O351  1  0.99379403  0.87553710  0.99208769  1
  O  O352  1  0.49400744  0.49475521  0.38059225  1
  O  O353  1  0.49235672  0.49283905  0.87571739  1
  O  O354  1  0.49401803  0.99459671  0.38036255  1
  O  O355  1  0.50016390  0.99861819  0.88814371  1
  O  O356  1  0.99302212  0.49394307  0.38186206  1
  O  O357  1  0.99842015  0.49353612  0.88608200  1
  O  O358  1  0.99650394  0.99399679  0.38026872  1
  O  O359  1  0.99995558  0.99153232  0.87642792  1
  O  O360  1  0.00725495  0.00802896  0.12355371  1
  O  O361  1  0.00561285  0.00593711  0.62013420  1
  O  O362  1  0.00665218  0.49898798  0.11627342  1
  O  O363  1  -0.00071115  0.49922769  0.61343994  1
  O  O364  1  0.50621791  0.00152046  0.11325603  1
  O  O365  1  0.50587566  0.00530964  0.61945858  1
  O  O366  1  0.50633238  0.50626317  0.12349685  1
  O  O367  1  0.50444473  0.50493505  0.62080568  1
  O  O368  1  0.24592857  0.37799222  0.24102220  1
  O  O369  1  0.25122876  0.37945779  0.74165403  1
  O  O370  1  0.24339950  0.88151642  0.24850966  1
  O  O371  1  0.24572866  0.87465107  0.74316657  1
  O  O372  1  0.74491716  0.38004671  0.24481083  1
  O  O373  1  0.74305952  0.38136814  0.74997196  1
  O  O374  1  0.74142564  0.87691174  0.24310171  1
  O  O375  1  0.74339183  0.87477969  0.74195562  1
  O  O376  1  0.25700091  0.11824365  0.25307577  1
  O  O377  1  0.25606094  0.12484883  0.75894021  1
  O  O378  1  0.25634206  0.62230786  0.25726896  1
  O  O379  1  0.25678504  0.61968296  0.75491030  1
  O  O380  1  0.75770098  0.12271205  0.25794189  1
  O  O381  1  0.74983166  0.12654181  0.76298371  1
  O  O382  1  0.75534667  0.61831097  0.25025276  1
  O  O383  1  0.75414637  0.62087230  0.75542644  1
  O  O384  1  0.37263148  0.11746038  0.36871173  1
  O  O385  1  0.36668047  0.12419255  0.87020128  1
  O  O386  1  0.37003952  0.61996680  0.36948155  1
  O  O387  1  0.37004698  0.61952979  0.86902915  1
  O  O388  1  0.87049779  0.11928763  0.36975977  1
  O  O389  1  0.86340427  0.12806832  0.87587649  1
  O  O390  1  0.87146503  0.61777057  0.36696520  1
  O  O391  1  0.86677680  0.62522042  0.86832967  1
  O  O392  1  0.12967153  0.38409486  0.12443730  1
  O  O393  1  0.13780588  0.37665842  0.62564823  1
  O  O394  1  0.12599729  0.88186599  0.13206716  1
  O  O395  1  0.13170019  0.87833117  0.62985223  1
  O  O396  1  0.62985718  0.38055783  0.13078467  1
  O  O397  1  0.62570903  0.38116211  0.63243655  1
  O  O398  1  0.62991153  0.87945486  0.13072838  1
  O  O399  1  0.63079014  0.88047024  0.62975280  1
  O  O400  1  0.11829652  0.25045919  0.25805547  1
  O  O401  1  0.11899907  0.25670159  0.75518760  1
  O  O402  1  0.11969132  0.75507467  0.25478163  1
  O  O403  1  0.12070808  0.75512572  0.75506531  1
  O  O404  1  0.61768375  0.25719035  0.25152562  1
  O  O405  1  0.61916337  0.25630415  0.75572706  1
  O  O406  1  0.62369360  0.76357625  0.24903903  1
  O  O407  1  0.62012552  0.75452880  0.75383455  1
  O  O408  1  0.37912208  0.24518956  0.24561582  1
  O  O409  1  0.38137472  0.24354218  0.74480065  1
  O  O410  1  0.37544496  0.74342444  0.24254885  1
  O  O411  1  0.38108277  0.74401694  0.74429355  1
  O  O412  1  0.88114582  0.24407894  0.24453296  1
  O  O413  1  0.87978219  0.24826781  0.73804501  1
  O  O414  1  0.87927821  0.74652458  0.24441934  1
  O  O415  1  0.88044029  0.74549904  0.74425864  1
  O  O416  1  0.38255220  0.49889300  0.49345453  1
  O  O417  1  0.37509848  0.49252746  0.99286483  1
  O  O418  1  0.38062240  0.99374964  0.49494024  1
  O  O419  1  0.38316560  0.99215955  1.00136162  1
  O  O420  1  0.88110403  0.49177400  0.49595009  1
  O  O421  1  0.88298649  0.49527637  1.00162320  1
  O  O422  1  0.88268640  0.99247525  0.49418775  1
  O  O423  1  0.87797809  0.99162981  0.99536752  1
  O  O424  1  0.12449814  0.00723006  0.00765454  1
  O  O425  1  0.11918750  -0.00108907  0.50646847  1
  O  O426  1  0.11493782  0.50177584  0.00905246  1
  O  O427  1  0.11138673  0.49910535  0.49999078  1
  O  O428  1  0.61729751  0.00434818  0.00423091  1
  O  O429  1  0.61796028  0.00126844  0.50663114  1
  O  O430  1  0.62336609  0.50725538  0.00738599  1
  O  O431  1  0.61952892  0.50492588  0.50641230  1
  O  O432  1  0.36885298  0.37050821  0.11967098  1
  O  O433  1  0.36458035  0.36780840  0.62447148  1
  O  O434  1  0.37496199  0.86889239  0.11394429  1
  O  O435  1  0.37154962  0.86887508  0.61910512  1
  O  O436  1  0.86823996  0.36947940  0.12112960  1
  O  O437  1  0.87542324  0.36567614  0.61704195  1
  O  O438  1  0.86989687  0.87004603  0.11899878  1
  O  O439  1  0.87056107  0.86987872  0.61884844  1
  O  O440  1  0.12707942  0.13457666  0.37947645  1
  O  O441  1  0.13482773  0.12558998  0.88055999  1
  O  O442  1  0.13109477  0.63136895  0.37640553  1
  O  O443  1  0.13234878  0.63231261  0.87638898  1
  O  O444  1  0.63764225  0.12379893  0.37413889  1
  O  O445  1  0.63217794  0.13224087  0.88121172  1
  O  O446  1  0.62634215  0.62705556  0.38318824  1
  O  O447  1  0.62995203  0.63081347  0.88048496  1
