# generated using pymatgen
data_V3Zn3O8
_symmetry_space_group_name_H-M   'P 1'
_cell_length_a   17.08725658
_cell_length_b   17.08412165
_cell_length_c   17.08713226
_cell_angle_alpha   90.01433304
_cell_angle_beta   90.00982103
_cell_angle_gamma   89.99678280
_symmetry_Int_Tables_number   1
_chemical_formula_structural   V3Zn3O8
_chemical_formula_sum   'V96 Zn96 O256'
_cell_volume   4988.08856924
_cell_formula_units_Z   32
loop_
 _symmetry_equiv_pos_site_id
 _symmetry_equiv_pos_as_xyz
  1  'x, y, z'
loop_
 _atom_site_type_symbol
 _atom_site_label
 _atom_site_symmetry_multiplicity
 _atom_site_fract_x
 _atom_site_fract_y
 _atom_site_fract_z
 _atom_site_occupancy
  V  V0  1  0.87486541  0.49991846  0.37465004  1
  V  V1  1  0.49748340  0.87451283  0.37763467  1
  V  V2  1  0.62475706  0.87486875  0.75310730  1
  V  V3  1  0.87538683  0.12428172  0.25026527  1
  V  V4  1  -0.00227133  0.62619680  0.12393766  1
  V  V5  1  0.87649520  0.00027962  0.87521928  1
  V  V6  1  0.87480989  0.37464037  -0.00128403  1
  V  V7  1  0.37613537  0.25032358  0.62385195  1
  V  V8  1  0.00099761  0.24998905  0.24881182  1
  V  V9  1  0.12431544  0.87454242  0.24915874  1
  V  V10  1  0.87669548  0.12472738  0.74881249  1
  V  V11  1  0.25043104  0.00030399  0.74960512  1
  V  V12  1  0.24793470  0.74857866  0.50003529  1
  V  V13  1  0.24972251  0.87588488  0.62574179  1
  V  V14  1  0.12527478  0.37638456  0.24849547  1
  V  V15  1  0.25095669  0.12560712  0.37360401  1
  V  V16  1  0.62621831  0.62584684  0.00037769  1
  V  V17  1  0.37517041  0.12439736  0.74997107  1
  V  V18  1  0.75052518  -0.00059363  0.74976600  1
  V  V19  1  0.24960659  -0.00106583  0.24857552  1
  V  V20  1  0.50097795  0.24910065  0.74985530  1
  V  V21  1  0.25083546  0.12491216  0.87387101  1
  V  V22  1  0.62359871  0.62437418  0.50255216  1
  V  V23  1  -0.00142961  0.75047220  0.24892130  1
  V  V24  1  0.75072982  0.25042811  -0.00042305  1
  V  V25  1  0.49999685  0.12526000  0.12502708  1
  V  V26  1  0.12378279  0.12204182  0.50080909  1
  V  V27  1  0.75084367  0.50067165  0.25059890  1
  V  V28  1  0.50056106  0.49951046  0.50104243  1
  V  V29  1  0.74774270  0.75022716  0.50177754  1
  V  V30  1  0.87500503  0.50058512  0.87328368  1
  V  V31  1  0.75089099  0.12428486  0.37345738  1
  V  V32  1  0.87326720  0.74971313  0.62381047  1
  V  V33  1  0.62575240  0.87650004  0.25031928  1
  V  V34  1  0.62559640  0.37507139  0.74945299  1
  V  V35  1  0.50094759  0.50006885  0.00090596  1
  V  V36  1  0.12630725  -0.00046020  0.12422733  1
  V  V37  1  0.12402336  0.87492186  0.75010847  1
  V  V38  1  0.87425429  0.62474924  0.74974634  1
  V  V39  1  0.12612584  0.37521326  0.74974876  1
  V  V40  1  0.00057024  0.37538339  0.37430107  1
  V  V41  1  0.75127255  0.12534963  0.87507829  1
  V  V42  1  0.87435281  0.62536720  0.24955237  1
  V  V43  1  0.37546112  0.12503028  0.24905264  1
  V  V44  1  0.75000088  0.87459096  0.62576243  1
  V  V45  1  0.62567486  0.50009371  0.12566071  1
  V  V46  1  0.50040641  -0.00121519  0.00039815  1
  V  V47  1  0.62490935  0.25044064  0.37283371  1
  V  V48  1  0.12553680  0.25103532  0.87416631  1
  V  V49  1  0.62416576  0.49832656  0.62490217  1
  V  V50  1  0.62488679  0.12394587  0.49947390  1
  V  V51  1  0.74904005  0.62732401  0.87592282  1
  V  V52  1  0.25081007  0.62372660  0.87377277  1
  V  V53  1  -0.00052633  0.50065788  -0.00144532  1
  V  V54  1  0.37568288  0.37507256  0.49918562  1
  V  V55  1  0.24960894  0.75064354  0.00137462  1
  V  V56  1  0.00084565  0.12592351  0.12515194  1
  V  V57  1  0.75072584  0.37511199  0.12364921  1
  V  V58  1  0.62545920  0.37521804  0.25012533  1
  V  V59  1  0.24949242  0.37655284  0.12455722  1
  V  V60  1  0.12522347  0.62530735  0.49897058  1
  V  V61  1  0.25053935  0.25016652  -0.00075862  1
  V  V62  1  0.25041166  0.37561348  0.62488678  1
  V  V63  1  0.50115362  0.37500342  0.37378523  1
  V  V64  1  0.87714484  0.24853896  0.62558375  1
  V  V65  1  -0.00088929  0.62437295  0.62453282  1
  V  V66  1  0.37428442  -0.00062395  0.37552340  1
  V  V67  1  0.12570793  0.49878871  0.62506364  1
  V  V68  1  0.37450635  0.74973392  0.62741092  1
  V  V69  1  0.49690215  0.74737695  0.25124531  1
  V  V70  1  0.12636379  0.25079631  0.37388145  1
  V  V71  1  0.12595718  0.12499508  -0.00088609  1
  V  V72  1  -0.00014243  0.49977261  0.50009657  1
  V  V73  1  0.37534174  0.50016197  0.87497744  1
  V  V74  1  0.49988194  0.62454874  0.12665294  1
  V  V75  1  0.62541339  0.12416227  0.00112812  1
  V  V76  1  0.00113521  0.37482657  0.87361956  1
  V  V77  1  0.87351082  0.87483468  0.00283486  1
  V  V78  1  0.62354541  0.74907490  0.37878894  1
  V  V79  1  0.37583226  0.37463808  0.00020262  1
  V  V80  1  0.37532081  0.24981076  0.12476447  1
  V  V81  1  0.50149130  0.12461445  0.62453381  1
  V  V82  1  0.12436480  0.49969557  0.12423862  1
  V  V83  1  0.00035896  0.00058500  -0.00115150  1
  V  V84  1  0.62574727  0.24969639  0.87476719  1
  V  V85  1  0.87540991  0.37432047  0.50032427  1
  V  V86  1  0.49877573  0.74995256  0.75199290  1
  V  V87  1  0.37516947  0.87458559  0.00122920  1
  V  V88  1  0.50089559  0.37457480  0.87572487  1
  V  V89  1  0.37357815  0.87521561  0.50095637  1
  V  V90  1  0.75044759  0.37512950  0.62510494  1
  V  V91  1  0.00025641  0.75041527  0.74943720  1
  V  V92  1  0.37261492  0.50291909  0.37331619  1
  V  V93  1  0.12352972  0.62581804  -0.00099576  1
  V  V94  1  -0.00142207  0.87585951  0.37716043  1
  V  V95  1  0.25104016  0.25033166  0.49868825  1
  Zn  Zn96  1  0.74875515  0.50039601  0.74923386  1
  Zn  Zn97  1  0.50061373  0.87382742  0.87781846  1
  Zn  Zn98  1  0.49759748  0.62239380  0.62826960  1
  Zn  Zn99  1  0.12299062  0.74995456  0.87470470  1
  Zn  Zn100  1  0.24674818  0.62611649  0.37172083  1
  Zn  Zn101  1  -0.00012343  0.87352057  0.87524323  1
  Zn  Zn102  1  0.74958661  0.62499651  0.37615830  1
  Zn  Zn103  1  0.00056299  0.12155890  0.62489572  1
  Zn  Zn104  1  0.49849173  -0.00086462  0.50242763  1
  Zn  Zn105  1  0.37566342  -0.00031734  0.87459559  1
  Zn  Zn106  1  0.87072188  0.75120647  0.12514524  1
  Zn  Zn107  1  0.87459236  -0.00095237  0.37735060  1
  Zn  Zn108  1  0.74963714  0.87613791  0.12731706  1
  Zn  Zn109  1  0.75152329  0.24980055  0.49910275  1
  Zn  Zn110  1  0.62313262  0.74998136  0.87852500  1
  Zn  Zn111  1  0.74972260  -0.00111167  0.24902733  1
  Zn  Zn112  1  -0.00429611  -0.00062918  0.50152926  1
  Zn  Zn113  1  0.62434644  0.00070646  0.62587217  1
  Zn  Zn114  1  0.12268677  0.00116199  0.62423609  1
  Zn  Zn115  1  0.37402898  0.74738131  0.12609653  1
  Zn  Zn116  1  0.36983830  0.62470760  0.24821501  1
  Zn  Zn117  1  0.24952064  0.87359725  0.12540892  1
  Zn  Zn118  1  0.25302166  0.50061968  0.74843610  1
  Zn  Zn119  1  0.50003595  0.25030541  0.24846113  1
  Zn  Zn120  1  0.24864440  0.50357736  0.24923268  1
  Zn  Zn121  1  0.87312528  0.87702073  0.49930560  1
  Zn  Zn122  1  0.12518925  0.74808640  0.37384516  1
  Zn  Zn123  1  0.00243475  0.24778125  0.74938033  1
  Zn  Zn124  1  0.62735054  0.00003126  0.12706900  1
  Zn  Zn125  1  0.37568970  0.62405662  0.74999476  1
  Zn  Zn126  1  0.87541507  0.25025331  0.12350902  1
  Zn  Zn127  1  0.74708902  0.75335415  0.00405450  1
  Zn  Zn128  1  0.18852518  0.18791356  0.18645777  1
  Zn  Zn129  1  0.18875996  0.18884110  0.68649874  1
  Zn  Zn130  1  0.18522598  0.68641430  0.18827286  1
  Zn  Zn131  1  0.18707244  0.68783611  0.68652606  1
  Zn  Zn132  1  0.68736402  0.18892754  0.18614978  1
  Zn  Zn133  1  0.69025639  0.18786910  0.68649934  1
  Zn  Zn134  1  0.68883267  0.69036929  0.18749597  1
  Zn  Zn135  1  0.68522108  0.68701121  0.68794638  1
  Zn  Zn136  1  0.31291411  0.31431827  0.31010668  1
  Zn  Zn137  1  0.31273267  0.31261441  0.81132446  1
  Zn  Zn138  1  0.30967722  0.81206688  0.31483264  1
  Zn  Zn139  1  0.31271441  0.81344313  0.81546519  1
  Zn  Zn140  1  0.81279607  0.31095480  0.31160494  1
  Zn  Zn141  1  0.81281199  0.31228082  0.81054450  1
  Zn  Zn142  1  0.81182587  0.80965905  0.31489119  1
  Zn  Zn143  1  0.81362045  0.81208468  0.81431921  1
  Zn  Zn144  1  0.18836480  0.43853170  0.43790875  1
  Zn  Zn145  1  0.18779771  0.43853449  0.93757580  1
  Zn  Zn146  1  0.18688152  0.93587879  0.43514144  1
  Zn  Zn147  1  0.18832086  0.93779288  0.93469131  1
  Zn  Zn148  1  0.68921876  0.43742155  0.43834575  1
  Zn  Zn149  1  0.68840272  0.43965966  0.93653453  1
  Zn  Zn150  1  0.68701800  0.93797374  0.43663733  1
  Zn  Zn151  1  0.68911255  0.93908104  0.93727199  1
  Zn  Zn152  1  0.31290150  0.06199714  0.06270953  1
  Zn  Zn153  1  0.31095527  0.06163244  0.56342587  1
  Zn  Zn154  1  0.31355107  0.56287621  0.06276922  1
  Zn  Zn155  1  0.31270691  0.56453330  0.56217879  1
  Zn  Zn156  1  0.81096813  0.05946411  0.06605580  1
  Zn  Zn157  1  0.81228628  0.05979915  0.56129149  1
  Zn  Zn158  1  0.81273726  0.56237950  0.06177479  1
  Zn  Zn159  1  0.81018892  0.56188485  0.56206458  1
  Zn  Zn160  1  0.43757149  0.43789113  0.18866989  1
  Zn  Zn161  1  0.43756569  0.43753694  0.68896834  1
  Zn  Zn162  1  0.43780928  0.93632154  0.18655414  1
  Zn  Zn163  1  0.43838202  0.93846984  0.68696632  1
  Zn  Zn164  1  0.93718816  0.43849633  0.18625106  1
  Zn  Zn165  1  0.93848932  0.43683766  0.68869176  1
  Zn  Zn166  1  0.93945163  0.93947880  0.18788357  1
  Zn  Zn167  1  0.93885501  0.93857033  0.68380052  1
  Zn  Zn168  1  0.06278452  0.06044801  0.31356091  1
  Zn  Zn169  1  0.06193882  0.06203669  0.81149491  1
  Zn  Zn170  1  0.06137422  0.56348010  0.31150424  1
  Zn  Zn171  1  0.06374214  0.56198226  0.81054241  1
  Zn  Zn172  1  0.55936349  0.06118599  0.31409807  1
  Zn  Zn173  1  0.56267593  0.06127596  0.81450309  1
  Zn  Zn174  1  0.56274594  0.56261311  0.31484520  1
  Zn  Zn175  1  0.56280003  0.56253728  0.81248960  1
  Zn  Zn176  1  0.43964100  0.18764771  0.43607729  1
  Zn  Zn177  1  0.43785262  0.18649203  0.93732421  1
  Zn  Zn178  1  0.43633012  0.68630513  0.44084339  1
  Zn  Zn179  1  0.43756778  0.68727702  0.93814996  1
  Zn  Zn180  1  0.93919737  0.18891907  0.43696607  1
  Zn  Zn181  1  0.93832417  0.18839853  0.93631526  1
  Zn  Zn182  1  0.93669387  0.68928825  0.43642675  1
  Zn  Zn183  1  0.93618884  0.69120672  0.93564290  1
  Zn  Zn184  1  0.06206070  0.31247833  0.06130143  1
  Zn  Zn185  1  0.06269901  0.31062825  0.56220182  1
  Zn  Zn186  1  0.06080288  0.81257594  0.06313237  1
  Zn  Zn187  1  0.06240450  0.81135247  0.56255480  1
  Zn  Zn188  1  0.56362702  0.31134567  0.06282835  1
  Zn  Zn189  1  0.56355884  0.31118482  0.56042858  1
  Zn  Zn190  1  0.56299147  0.81047335  0.06597792  1
  Zn  Zn191  1  0.56130601  0.81287484  0.56651341  1
  O  O192  1  0.12076055  0.12012811  0.11864151  1
  O  O193  1  0.12562150  0.12698006  0.61230119  1
  O  O194  1  0.11749817  0.61924395  0.11748700  1
  O  O195  1  0.11864131  0.61866545  0.61999270  1
  O  O196  1  0.61807755  0.12498506  0.11846981  1
  O  O197  1  0.62157869  0.12653622  0.61536569  1
  O  O198  1  0.62019066  0.61852730  0.12075060  1
  O  O199  1  0.62202372  0.61654481  0.62024883  1
  O  O200  1  0.38003812  0.38224264  0.37985822  1
  O  O201  1  0.38131527  0.37870274  0.88087675  1
  O  O202  1  0.37830358  0.88011902  0.38165360  1
  O  O203  1  0.37662692  0.87777902  0.88929600  1
  O  O204  1  0.88123047  0.37899160  0.37952864  1
  O  O205  1  0.88029557  0.38040453  0.87895375  1
  O  O206  1  0.88555364  0.87598603  0.37491666  1
  O  O207  1  0.87628896  0.88265823  0.88373013  1
  O  O208  1  0.25534784  0.00575103  0.36766887  1
  O  O209  1  0.25240858  0.00801521  0.86813672  1
  O  O210  1  0.26134770  0.49993673  0.37412089  1
  O  O211  1  0.25609687  0.50918972  0.87650148  1
  O  O212  1  0.74969014  0.01418017  0.37081535  1
  O  O213  1  0.75662772  0.00713208  0.86936061  1
  O  O214  1  0.75725850  0.50017989  0.36856087  1
  O  O215  1  0.75600880  0.51032706  0.87330110  1
  O  O216  1  0.24259113  0.49347476  0.12326695  1
  O  O217  1  0.24404470  0.49297532  0.62467120  1
  O  O218  1  0.24350217  0.99921457  0.13080974  1
  O  O219  1  0.24800866  0.99352792  0.63244857  1
  O  O220  1  0.74475616  0.49432777  0.13018296  1
  O  O221  1  0.74284082  0.49237219  0.62662735  1
  O  O222  1  0.74426992  0.99535723  0.13216810  1
  O  O223  1  0.74736076  0.99349160  0.63316279  1
  O  O224  1  0.00532029  0.37002755  0.25439958  1
  O  O225  1  0.00794283  0.37325488  0.75672973  1
  O  O226  1  0.00432921  0.87084060  0.25663493  1
  O  O227  1  0.00893493  0.86950040  0.74931348  1
  O  O228  1  0.50808305  0.37435181  0.25553284  1
  O  O229  1  0.50544316  0.36775961  0.75628841  1
  O  O230  1  0.50449852  0.86588436  0.25670937  1
  O  O231  1  0.50797181  0.86904006  0.75281877  1
  O  O232  1  0.49292622  0.12588362  0.24349272  1
  O  O233  1  0.49622574  0.13061282  0.74570822  1
  O  O234  1  0.50071537  0.63429737  0.24658442  1
  O  O235  1  0.49878468  0.63671479  0.75020545  1
  O  O236  1  0.99428228  0.13042716  0.24632083  1
  O  O237  1  0.99249394  0.12799519  0.74689999  1
  O  O238  1  0.99407822  0.62995304  0.24353820  1
  O  O239  1  0.99506226  0.62981120  0.74361370  1
  O  O240  1  0.36995287  0.25538205  0.00460026  1
  O  O241  1  0.37086064  0.25518126  0.50392021  1
  O  O242  1  0.36748219  0.75752484  0.00134291  1
  O  O243  1  0.36892418  0.75600495  0.50705390  1
  O  O244  1  0.86842636  0.25664248  -0.00031669  1
  O  O245  1  0.87502258  0.25581297  0.50848888  1
  O  O246  1  0.87426335  0.76333941  0.00078310  1
  O  O247  1  0.86626605  0.75048317  0.50691435  1
  O  O248  1  0.13147148  0.24356799  0.49310148  1
  O  O249  1  0.13152310  0.24498550  0.99443116  1
  O  O250  1  0.13104381  0.74228875  0.50049439  1
  O  O251  1  0.13316170  0.74545986  0.99790809  1
  O  O252  1  0.62694240  0.23926047  0.49291104  1
  O  O253  1  0.63063538  0.24455939  0.99345253  1
  O  O254  1  0.62754121  0.74465878  0.49814209  1
  O  O255  1  0.62577965  0.74194172  0.99762467  1
  O  O256  1  0.49282303  0.24370431  0.12453685  1
  O  O257  1  0.49519155  0.24540427  0.63034519  1
  O  O258  1  0.49943518  0.74308206  0.13694079  1
  O  O259  1  0.49328137  0.75031469  0.63724724  1
  O  O260  1  0.99980747  0.24367845  0.13085541  1
  O  O261  1  0.98755489  0.24889722  0.62598523  1
  O  O262  1  0.99657659  0.74295907  0.13076414  1
  O  O263  1  0.99331520  0.74309917  0.62964349  1
  O  O264  1  0.00691806  0.25648040  0.36851242  1
  O  O265  1  0.00818304  0.25726756  0.87454885  1
  O  O266  1  0.00126488  0.75914797  0.36785179  1
  O  O267  1  0.00283711  0.75226724  0.86500980  1
  O  O268  1  0.50627621  0.25743029  0.37173281  1
  O  O269  1  0.50616687  0.25471333  0.87020154  1
  O  O270  1  0.50309114  0.75437758  0.36955727  1
  O  O271  1  0.50123457  0.75247439  0.86523268  1
  O  O272  1  0.24450717  0.13158871  0.49331503  1
  O  O273  1  0.24550564  0.13069387  0.99462373  1
  O  O274  1  0.24220724  0.63133681  0.49954191  1
  O  O275  1  0.24528278  0.63158847  0.99271456  1
  O  O276  1  0.74179811  0.12685726  0.49041707  1
  O  O277  1  0.74562931  0.12985926  0.99455329  1
  O  O278  1  0.74134688  0.63144660  0.49986902  1
  O  O279  1  0.74492394  0.62433814  0.99091711  1
  O  O280  1  0.25597008  0.36969702  0.00451378  1
  O  O281  1  0.25568332  0.36905774  0.50492821  1
  O  O282  1  0.25650931  0.86673328  -0.00070690  1
  O  O283  1  0.25363806  0.86943704  0.50600818  1
  O  O284  1  0.75499513  0.37066036  0.00349317  1
  O  O285  1  0.75749713  0.37223022  0.50623607  1
  O  O286  1  0.76145170  0.87636957  0.00054489  1
  O  O287  1  0.74692133  0.86815866  0.50761652  1
  O  O288  1  0.12346221  0.49312357  0.24197637  1
  O  O289  1  0.12786918  0.49343081  0.74218733  1
  O  O290  1  0.13058146  0.99574958  0.24381506  1
  O  O291  1  0.13131324  0.99127877  0.74862130  1
  O  O292  1  0.63064123  0.49480908  0.24518768  1
  O  O293  1  0.62402399  0.49185716  0.74330029  1
  O  O294  1  0.62171205  0.98697744  0.25196524  1
  O  O295  1  0.63124175  0.99121285  0.75145850  1
  O  O296  1  0.36966714  0.00468997  0.25476099  1
  O  O297  1  0.36936061  0.00639374  0.75201867  1
  O  O298  1  0.37399071  0.50039419  0.26156892  1
  O  O299  1  0.37378564  0.50225639  0.75926077  1
  O  O300  1  0.87568144  0.01498244  0.25355499  1
  O  O301  1  0.86966843  0.00455221  0.75514411  1
  O  O302  1  0.87060572  0.50455927  0.25537293  1
  O  O303  1  0.87407775  0.50702921  0.75592210  1
  O  O304  1  0.12011370  0.37045988  0.36970179  1
  O  O305  1  0.12125522  0.37088320  0.87042365  1
  O  O306  1  0.11586658  0.87320545  0.36717408  1
  O  O307  1  0.12461647  0.87287248  0.86172316  1
  O  O308  1  0.62111635  0.37074986  0.36993512  1
  O  O309  1  0.62008839  0.36959848  0.87074879  1
  O  O310  1  0.61715374  0.86907218  0.37017524  1
  O  O311  1  0.62582453  0.87251737  0.86379076  1
  O  O312  1  0.37958791  0.13061009  0.12948761  1
  O  O313  1  0.38035560  0.13148970  0.62965860  1
  O  O314  1  0.38481314  0.62590460  0.12724998  1
  O  O315  1  0.37656455  0.63352567  0.62917338  1
  O  O316  1  0.88158321  0.12690830  0.13401954  1
  O  O317  1  0.87356728  0.13461431  0.62931940  1
  O  O318  1  0.88147462  0.62396727  0.13100063  1
  O  O319  1  0.87967085  0.62893750  0.63010193  1
  O  O320  1  0.25527510  0.25581617  0.11816276  1
  O  O321  1  0.25753269  0.25588270  0.61811519  1
  O  O322  1  0.25119768  0.74939550  0.11128607  1
  O  O323  1  0.25537698  0.75608231  0.62049403  1
  O  O324  1  0.75120601  0.25745221  0.11690254  1
  O  O325  1  0.76147699  0.25594467  0.62344450  1
  O  O326  1  0.75347560  0.75715791  0.12218758  1
  O  O327  1  0.75358852  0.75471637  0.62128465  1
  O  O328  1  0.24575955  0.24597293  0.37905367  1
  O  O329  1  0.24535692  0.24553808  0.88055577  1
  O  O330  1  0.24667218  0.74764897  0.38500391  1
  O  O331  1  0.24985918  0.74053062  0.88527697  1
  O  O332  1  0.74436848  0.24001047  0.37547982  1
  O  O333  1  0.74481900  0.24499034  0.87970534  1
  O  O334  1  0.74107178  0.74786111  0.38379938  1
  O  O335  1  0.74919778  0.73637430  0.87728096  1
  O  O336  1  0.00636675  0.12091906  0.00470249  1
  O  O337  1  0.01381947  0.12553136  0.49769449  1
  O  O338  1  0.00372406  0.62022418  0.00279558  1
  O  O339  1  0.00404088  0.61914369  0.50599038  1
  O  O340  1  0.50456252  0.11753445  0.00460204  1
  O  O341  1  0.50920031  0.12494358  0.50453049  1
  O  O342  1  0.50583800  0.61883723  0.00557101  1
  O  O343  1  0.50598382  0.61742603  0.50394559  1
  O  O344  1  0.49508114  0.37954125  0.49362214  1
  O  O345  1  0.49576624  0.37980401  0.99490347  1
  O  O346  1  0.49244711  0.87522264  0.49568456  1
  O  O347  1  0.49359620  0.88184092  1.00148283  1
  O  O348  1  0.99565502  0.38013083  0.49383358  1
  O  O349  1  0.99510997  0.38078855  0.99362518  1
  O  O350  1  0.99996945  0.87367253  0.48834124  1
  O  O351  1  0.99235335  0.88273340  0.99816247  1
  O  O352  1  0.49273879  0.49393676  0.38097646  1
  O  O353  1  0.49608139  0.49387009  0.88170046  1
  O  O354  1  0.49088609  0.99277021  0.37796993  1
  O  O355  1  0.49801676  0.99913167  0.88892040  1
  O  O356  1  0.99438189  0.49366677  0.38051518  1
  O  O357  1  0.99522821  0.49525422  0.87959618  1
  O  O358  1  0.99973787  0.98811835  0.37648985  1
  O  O359  1  0.99373716  0.99963295  0.88191628  1
  O  O360  1  0.00730690  0.00773972  0.11909134  1
  O  O361  1  0.00528210  0.00387193  0.61859928  1
  O  O362  1  0.00474437  0.50543180  0.11753416  1
  O  O363  1  0.00510079  0.50437517  0.61909343  1
  O  O364  1  0.50089201  0.00592208  0.11459187  1
  O  O365  1  0.50362248  0.00881267  0.62263939  1
  O  O366  1  0.50632572  0.50398638  0.12009883  1
  O  O367  1  0.50594093  0.49784950  0.61830593  1
  O  O368  1  0.24251846  0.37692150  0.24173421  1
  O  O369  1  0.24481983  0.37645760  0.74280651  1
  O  O370  1  0.24365175  0.88083764  0.24810628  1
  O  O371  1  0.24342521  0.87892079  0.74592068  1
  O  O372  1  0.74582763  0.38048906  0.24403124  1
  O  O373  1  0.74264375  0.37665169  0.74413898  1
  O  O374  1  0.73647922  0.87530849  0.25484259  1
  O  O375  1  0.74296327  0.87866737  0.74642751  1
  O  O376  1  0.25530594  0.11976027  0.25458976  1
  O  O377  1  0.25575410  0.12094441  0.75417601  1
  O  O378  1  0.25227246  0.62159609  0.25336021  1
  O  O379  1  0.25095305  0.62508706  0.76287829  1
  O  O380  1  0.75853811  0.12762922  0.25735639  1
  O  O381  1  0.75563177  0.11975614  0.75602787  1
  O  O382  1  0.75536379  0.61777626  0.25193901  1
  O  O383  1  0.75495914  0.62371280  0.75883738  1
  O  O384  1  0.36992418  0.12041023  0.36944576  1
  O  O385  1  0.36860428  0.12567877  0.86765886  1
  O  O386  1  0.37457184  0.61210773  0.37556239  1
  O  O387  1  0.36529566  0.61888861  0.87701265  1
  O  O388  1  0.86719177  0.12793869  0.36706113  1
  O  O389  1  0.87004219  0.12057338  0.86967210  1
  O  O390  1  0.87414431  0.61719205  0.36829823  1
  O  O391  1  0.86777665  0.61998166  0.87016198  1
  O  O392  1  0.12959847  0.38003017  0.12834375  1
  O  O393  1  0.13059573  0.37878492  0.62882509  1
  O  O394  1  0.12549364  0.88256185  0.13071507  1
  O  O395  1  0.13110270  0.87530215  0.63530970  1
  O  O396  1  0.63095382  0.38081115  0.12922394  1
  O  O397  1  0.63025321  0.37766381  0.62941342  1
  O  O398  1  0.62266744  0.87571668  0.13992990  1
  O  O399  1  0.63038705  0.87654437  0.63777166  1
  O  O400  1  0.12079076  0.25567835  0.25460712  1
  O  O401  1  0.12555682  0.25691384  0.75653760  1
  O  O402  1  0.11648094  0.75677623  0.24976524  1
  O  O403  1  0.11979754  0.75881008  0.74978523  1
  O  O404  1  0.62368597  0.25762876  0.25518859  1
  O  O405  1  0.62048202  0.25429023  0.75526008  1
  O  O406  1  0.61485064  0.75634289  0.25792659  1
  O  O407  1  0.61606904  0.75888093  0.75134893  1
  O  O408  1  0.37557992  0.24361185  0.24244579  1
  O  O409  1  0.38151067  0.24501993  0.74367442  1
  O  O410  1  0.38661523  0.74952952  0.25062076  1
  O  O411  1  0.38369252  0.75221598  0.74659737  1
  O  O412  1  0.88209312  0.24047717  0.24835174  1
  O  O413  1  0.87613187  0.24423393  0.74090268  1
  O  O414  1  0.88079284  0.74264442  0.24880813  1
  O  O415  1  0.88009718  0.74386059  0.74407064  1
  O  O416  1  0.38014094  0.49394036  0.49303504  1
  O  O417  1  0.38203098  0.49334556  0.99545191  1
  O  O418  1  0.37369048  0.99335900  0.49341659  1
  O  O419  1  0.38297853  0.99235001  1.00038020  1
  O  O420  1  0.88087554  0.49418027  0.49525851  1
  O  O421  1  0.88050301  0.49420070  0.99276912  1
  O  O422  1  0.87700142  0.99550737  0.49438086  1
  O  O423  1  0.88058153  0.99499015  0.99509575  1
  O  O424  1  0.12116321  0.00587292  0.00359981  1
  O  O425  1  0.12844775  0.01353954  0.49934383  1
  O  O426  1  0.11809554  0.50515260  0.00454245  1
  O  O427  1  0.11856125  0.50364076  0.50577154  1
  O  O428  1  0.61572157  0.00550510  0.00073312  1
  O  O429  1  0.62286932  0.01364853  0.50038447  1
  O  O430  1  0.61965957  0.50466641  0.00633725  1
  O  O431  1  0.61955335  0.50345446  0.50511265  1
  O  O432  1  0.37038494  0.37045219  0.11903569  1
  O  O433  1  0.37119126  0.36940135  0.61886309  1
  O  O434  1  0.37198898  0.87167026  0.11290516  1
  O  O435  1  0.36873446  0.87012817  0.62052201  1
  O  O436  1  0.86897976  0.37431263  0.11727236  1
  O  O437  1  0.87113701  0.36805362  0.62075922  1
  O  O438  1  0.87541185  0.87738774  0.11403771  1
  O  O439  1  0.86722225  0.86636388  0.62509100  1
  O  O440  1  0.13175522  0.13136423  0.37997084  1
  O  O441  1  0.13126994  0.13084114  0.87983189  1
  O  O442  1  0.12431889  0.62558622  0.38447410  1
  O  O443  1  0.13496390  0.62482636  0.88064703  1
  O  O444  1  0.63113500  0.12989239  0.37971377  1
  O  O445  1  0.63135393  0.13087686  0.88038953  1
  O  O446  1  0.62536799  0.63100620  0.38415231  1
  O  O447  1  0.63426445  0.62369193  0.88128388  1
