# generated using pymatgen
data_V3Zn3O8
_symmetry_space_group_name_H-M   'P 1'
_cell_length_a   17.08810481
_cell_length_b   17.08788679
_cell_length_c   17.08824968
_cell_angle_alpha   89.98579469
_cell_angle_beta   89.97546614
_cell_angle_gamma   90.01114642
_symmetry_Int_Tables_number   1
_chemical_formula_structural   V3Zn3O8
_chemical_formula_sum   'V96 Zn96 O256'
_cell_volume   4989.76137428
_cell_formula_units_Z   32
loop_
 _symmetry_equiv_pos_site_id
 _symmetry_equiv_pos_as_xyz
  1  'x, y, z'
loop_
 _atom_site_type_symbol
 _atom_site_label
 _atom_site_symmetry_multiplicity
 _atom_site_fract_x
 _atom_site_fract_y
 _atom_site_fract_z
 _atom_site_occupancy
  V  V0  1  0.37427632  0.62471399  0.74879204  1
  V  V1  1  0.87475031  0.75313579  0.12335399  1
  V  V2  1  0.75058578  0.12388196  0.37379181  1
  V  V3  1  0.49814375  0.87583767  0.87410121  1
  V  V4  1  0.50010060  0.50013853  0.49978099  1
  V  V5  1  0.37578372  0.12566092  0.74996434  1
  V  V6  1  0.12369614  0.37488595  0.75005778  1
  V  V7  1  -0.00021032  0.62503924  0.62506467  1
  V  V8  1  -0.00152152  0.12585907  0.62681884  1
  V  V9  1  0.37478825  0.49939338  0.37429633  1
  V  V10  1  0.37451562  0.25065020  0.62472455  1
  V  V11  1  0.12481035  0.87544817  0.74941077  1
  V  V12  1  0.62487797  0.50080621  0.12474200  1
  V  V13  1  0.87483887  0.62523936  0.75008399  1
  V  V14  1  0.49896979  0.25042133  0.25015607  1
  V  V15  1  0.12456402  0.00029991  0.62502325  1
  V  V16  1  0.37522206  0.00004595  0.37503820  1
  V  V17  1  0.74957699  0.25122356  0.00105092  1
  V  V18  1  0.12534958  0.12551253  0.49985889  1
  V  V19  1  -0.00081083  0.37504565  0.87584855  1
  V  V20  1  0.62589741  0.25057997  0.87622531  1
  V  V21  1  0.37456088  0.37433046  0.50067184  1
  V  V22  1  0.50269790  0.75193983  0.25073133  1
  V  V23  1  0.25155556  0.74974126  0.00008949  1
  V  V24  1  0.75024205  0.74979923  0.49929679  1
  V  V25  1  0.12523861  0.62488605  0.50017026  1
  V  V26  1  0.87625109  0.62573599  0.25022618  1
  V  V27  1  0.12616728  0.74958336  0.37533454  1
  V  V28  1  0.24911840  0.12485519  0.87467999  1
  V  V29  1  -0.00045052  0.37502724  0.37440944  1
  V  V30  1  0.87427540  0.37617949  0.00102870  1
  V  V31  1  0.00190097  0.62453936  0.12505161  1
  V  V32  1  0.12430895  0.49954741  0.62459907  1
  V  V33  1  0.37363603  0.25045461  0.12445209  1
  V  V34  1  0.24880062  0.49900259  0.74930964  1
  V  V35  1  0.12459398  0.37430215  0.24926433  1
  V  V36  1  0.87491286  0.24943109  0.62718350  1
  V  V37  1  0.37516977  0.49973056  0.87462457  1
  V  V38  1  0.49894475  0.00088884  -0.00127521  1
  V  V39  1  0.50034024  0.37504274  0.37525087  1
  V  V40  1  0.37434405  0.12451007  0.25127620  1
  V  V41  1  0.62611277  0.62579270  0.49895877  1
  V  V42  1  0.75008236  0.50167253  0.75083042  1
  V  V43  1  0.62423191  0.12384518  0.50205444  1
  V  V44  1  0.62479976  0.37566485  0.75008811  1
  V  V45  1  0.49973581  0.62512211  0.62403650  1
  V  V46  1  0.12544903  0.49908065  0.12511907  1
  V  V47  1  0.62524818  0.75043622  0.87506121  1
  V  V48  1  0.75043910  0.50051312  0.25016614  1
  V  V49  1  0.62593775  -0.00224257  0.12727368  1
  V  V50  1  0.25044611  0.49877575  0.24946912  1
  V  V51  1  0.87492874  0.87555915  0.50038035  1
  V  V52  1  0.00021393  -0.00214188  -0.00028387  1
  V  V53  1  0.37433085  0.75031210  0.62341934  1
  V  V54  1  0.62530828  0.37567850  0.25056576  1
  V  V55  1  0.37497445  0.62349947  0.25005483  1
  V  V56  1  0.24938317  0.62459453  0.87392752  1
  V  V57  1  0.25061619  0.24998247  0.00032973  1
  V  V58  1  0.12530798  0.62337865  -0.00003311  1
  V  V59  1  0.49925285  0.75076499  0.74935916  1
  V  V60  1  0.25051894  0.74984161  0.49953811  1
  V  V61  1  0.12538071  0.74955702  0.87378695  1
  V  V62  1  0.49917735  0.49994764  -0.00070045  1
  V  V63  1  0.49970022  0.12548013  0.12540025  1
  V  V64  1  0.87526759  0.00057165  0.37433506  1
  V  V65  1  0.12698654  -0.00149158  0.12592012  1
  V  V66  1  -0.00054923  0.00014299  0.50120666  1
  V  V67  1  0.62569695  0.12663258  0.00015311  1
  V  V68  1  0.87468403  0.37566623  0.49965262  1
  V  V69  1  0.75016861  0.37519877  0.62467205  1
  V  V70  1  0.75091188  0.62621133  0.37546036  1
  V  V71  1  0.37517849  0.00029933  0.87466787  1
  V  V72  1  0.37535624  0.87471196  0.49969445  1
  V  V73  1  0.74934976  0.87599635  0.62578733  1
  V  V74  1  0.50029405  0.24989524  0.75099343  1
  V  V75  1  0.75061033  0.00097270  0.75241443  1
  V  V76  1  0.87588668  0.49921126  0.37505109  1
  V  V77  1  0.12497196  0.12389337  -0.00051927  1
  V  V78  1  0.49945916  0.37622299  0.87540995  1
  V  V79  1  0.50021559  -0.00095708  0.50057930  1
  V  V80  1  0.12483673  0.24893895  0.37506829  1
  V  V81  1  0.12380640  0.25017379  0.87431864  1
  V  V82  1  0.49995516  0.62463589  0.12455533  1
  V  V83  1  -0.00217456  0.87508264  0.87632878  1
  V  V84  1  0.75085557  0.37526299  0.12530399  1
  V  V85  1  -0.00158424  0.12567695  0.12662230  1
  V  V86  1  0.24929328  0.00025299  0.74905094  1
  V  V87  1  0.25129751  -0.00046406  0.25043674  1
  V  V88  1  0.87465635  0.50104465  0.87558403  1
  V  V89  1  0.62529850  0.24989604  0.37550500  1
  V  V90  1  0.87535932  0.74917632  0.62528803  1
  V  V91  1  0.62495955  0.50010333  0.62496650  1
  V  V92  1  0.12763380  0.87409564  0.25072460  1
  V  V93  1  0.62496025  0.62654055  -0.00100966  1
  V  V94  1  0.37426305  0.74986546  0.12363067  1
  V  V95  1  0.00250568  0.75043713  0.25123702  1
  Zn  Zn96  1  0.74906104  0.25015901  0.50065950  1
  Zn  Zn97  1  0.24902369  0.87552454  0.62429220  1
  Zn  Zn98  1  0.24987606  0.37413527  0.12314632  1
  Zn  Zn99  1  0.75044493  0.75199203  0.00000524  1
  Zn  Zn100  1  0.00108405  0.87530494  0.37597468  1
  Zn  Zn101  1  0.37325708  0.37530785  0.00071172  1
  Zn  Zn102  1  0.87457184  0.12577874  0.24843448  1
  Zn  Zn103  1  0.50125918  0.12390528  0.62726635  1
  Zn  Zn104  1  -0.00031636  0.49983384  0.00070536  1
  Zn  Zn105  1  0.24717111  0.37465220  0.62336251  1
  Zn  Zn106  1  0.24980015  0.25010166  0.50031772  1
  Zn  Zn107  1  0.87546924  0.12505152  0.75492301  1
  Zn  Zn108  1  -0.00029744  0.75029104  0.75017952  1
  Zn  Zn109  1  0.87475871  0.24994250  0.12711584  1
  Zn  Zn110  1  0.62459180  -0.00117836  0.62731265  1
  Zn  Zn111  1  0.62829952  0.87548620  0.25228168  1
  Zn  Zn112  1  0.62664298  0.75272725  0.37361962  1
  Zn  Zn113  1  0.25181755  0.87469109  0.12351171  1
  Zn  Zn114  1  -0.00252580  0.24913434  0.24900278  1
  Zn  Zn115  1  0.87360189  0.00275464  0.87768772  1
  Zn  Zn116  1  0.25046410  0.12533212  0.37675264  1
  Zn  Zn117  1  0.50311017  0.87387238  0.37433467  1
  Zn  Zn118  1  0.00098227  0.50006000  0.49960182  1
  Zn  Zn119  1  0.87089637  0.87601350  0.00006812  1
  Zn  Zn120  1  0.62405912  0.87678514  0.74875414  1
  Zn  Zn121  1  0.37292190  0.87588045  0.00027701  1
  Zn  Zn122  1  0.74941238  0.87513817  0.12461802  1
  Zn  Zn123  1  -0.00070574  0.24855303  0.75182055  1
  Zn  Zn124  1  0.75106550  -0.00322033  0.24815647  1
  Zn  Zn125  1  0.25012621  0.62395341  0.37511871  1
  Zn  Zn126  1  0.75146668  0.62718635  0.87653458  1
  Zn  Zn127  1  0.75250363  0.12487716  0.87576795  1
  Zn  Zn128  1  0.18750503  0.18642450  0.18822308  1
  Zn  Zn129  1  0.18733147  0.18794799  0.68759257  1
  Zn  Zn130  1  0.18953278  0.68614126  0.18751403  1
  Zn  Zn131  1  0.18688324  0.68803777  0.68642738  1
  Zn  Zn132  1  0.68725925  0.18699681  0.18771474  1
  Zn  Zn133  1  0.68935215  0.18694532  0.68881377  1
  Zn  Zn134  1  0.68883529  0.68709552  0.18662787  1
  Zn  Zn135  1  0.68796297  0.68818328  0.68792514  1
  Zn  Zn136  1  0.31021818  0.31283739  0.31210732  1
  Zn  Zn137  1  0.31100494  0.31349710  0.81267000  1
  Zn  Zn138  1  0.31401191  0.81306532  0.31333002  1
  Zn  Zn139  1  0.31178968  0.81379023  0.81179437  1
  Zn  Zn140  1  0.81401939  0.30945949  0.31093714  1
  Zn  Zn141  1  0.81180610  0.31410764  0.81358360  1
  Zn  Zn142  1  0.81119021  0.81516887  0.30946895  1
  Zn  Zn143  1  0.81175012  0.81342907  0.81059172  1
  Zn  Zn144  1  0.18870356  0.43652650  0.43773582  1
  Zn  Zn145  1  0.18744335  0.43626722  0.93799220  1
  Zn  Zn146  1  0.18910416  0.93680763  0.43702097  1
  Zn  Zn147  1  0.18731922  0.93558337  0.93736307  1
  Zn  Zn148  1  0.68915926  0.43809309  0.43793294  1
  Zn  Zn149  1  0.68808315  0.43870557  0.93740042  1
  Zn  Zn150  1  0.68675458  0.93541999  0.43620272  1
  Zn  Zn151  1  0.68804347  0.93488172  0.93983086  1
  Zn  Zn152  1  0.31250336  0.06319826  0.06298676  1
  Zn  Zn153  1  0.31110287  0.06430936  0.56226637  1
  Zn  Zn154  1  0.31170915  0.56225584  0.06260317  1
  Zn  Zn155  1  0.31061663  0.56206637  0.56210730  1
  Zn  Zn156  1  0.81313252  0.06172114  0.05947822  1
  Zn  Zn157  1  0.81160514  0.06228130  0.56389985  1
  Zn  Zn158  1  0.81175711  0.56555461  0.06126889  1
  Zn  Zn159  1  0.81350993  0.56188569  0.56232066  1
  Zn  Zn160  1  0.43637659  0.43595556  0.18623808  1
  Zn  Zn161  1  0.43714772  0.43683607  0.68769181  1
  Zn  Zn162  1  0.43709139  0.93535551  0.18586489  1
  Zn  Zn163  1  0.43664800  0.93690295  0.68620533  1
  Zn  Zn164  1  0.93897969  0.43743344  0.18780159  1
  Zn  Zn165  1  0.93858302  0.43785187  0.68845882  1
  Zn  Zn166  1  0.94093805  0.93728836  0.18988644  1
  Zn  Zn167  1  0.93592323  0.93794454  0.68960945  1
  Zn  Zn168  1  0.06311921  0.06169480  0.31204493  1
  Zn  Zn169  1  0.06062548  0.06224976  0.81140124  1
  Zn  Zn170  1  0.06343166  0.56207987  0.31298900  1
  Zn  Zn171  1  0.06025330  0.56156576  0.81184282  1
  Zn  Zn172  1  0.56148978  0.06264127  0.31324991  1
  Zn  Zn173  1  0.56509050  0.06323232  0.81322787  1
  Zn  Zn174  1  0.56292822  0.56434947  0.31290091  1
  Zn  Zn175  1  0.56203317  0.56405490  0.81204373  1
  Zn  Zn176  1  0.43804173  0.18661048  0.43759447  1
  Zn  Zn177  1  0.43750077  0.18782491  0.93785903  1
  Zn  Zn178  1  0.43726076  0.68686374  0.43547363  1
  Zn  Zn179  1  0.43740206  0.68722073  0.93706608  1
  Zn  Zn180  1  0.93838445  0.18874416  0.44048297  1
  Zn  Zn181  1  0.93535928  0.18787575  0.93919521  1
  Zn  Zn182  1  0.93922167  0.68777021  0.43790651  1
  Zn  Zn183  1  0.93924382  0.68723258  0.93811967  1
  Zn  Zn184  1  0.06241337  0.31215666  0.06115690  1
  Zn  Zn185  1  0.05998972  0.31301364  0.56159259  1
  Zn  Zn186  1  0.06457218  0.81160146  0.06278881  1
  Zn  Zn187  1  0.06178135  0.81265351  0.56234913  1
  Zn  Zn188  1  0.56164705  0.31398464  0.06278181  1
  Zn  Zn189  1  0.56145677  0.31151759  0.56290145  1
  Zn  Zn190  1  0.55928181  0.81472661  0.06069016  1
  Zn  Zn191  1  0.56428715  0.81294162  0.56231097  1
  O  O192  1  0.11810773  0.11853400  0.11921720  1
  O  O193  1  0.11883098  0.12043744  0.62011771  1
  O  O194  1  0.12071989  0.61941573  0.12010307  1
  O  O195  1  0.11940984  0.61978244  0.62024666  1
  O  O196  1  0.61817433  0.11893956  0.12040621  1
  O  O197  1  0.62408224  0.12495920  0.61238025  1
  O  O198  1  0.61939134  0.61923334  0.11950661  1
  O  O199  1  0.61952954  0.61938260  0.61929418  1
  O  O200  1  0.38188274  0.37914315  0.37979456  1
  O  O201  1  0.38199496  0.38207175  0.87506455  1
  O  O202  1  0.37939073  0.88210422  0.38231510  1
  O  O203  1  0.38051914  0.88293436  0.87507770  1
  O  O204  1  0.87880813  0.37949449  0.37927904  1
  O  O205  1  0.87919685  0.38107519  0.88085990  1
  O  O206  1  0.87511032  0.88597761  0.38141143  1
  O  O207  1  0.88870240  0.87344876  0.87608632  1
  O  O208  1  0.25763217  0.00188313  0.36849619  1
  O  O209  1  0.25443430  0.00610966  0.86918672  1
  O  O210  1  0.25769845  0.50027500  0.36773044  1
  O  O211  1  0.25493435  0.50578025  0.86913826  1
  O  O212  1  0.75897035  0.00840166  0.37663503  1
  O  O213  1  0.75010118  -0.00083414  0.86533903  1
  O  O214  1  0.75577512  0.50563858  0.36902522  1
  O  O215  1  0.75582229  0.50203463  0.86768521  1
  O  O216  1  0.24359206  0.49831209  0.13148795  1
  O  O217  1  0.24319396  0.49860964  0.63241897  1
  O  O218  1  0.24422027  0.99976838  0.13187054  1
  O  O219  1  0.24282451  0.99985724  0.63170233  1
  O  O220  1  0.74406217  0.49606815  0.13114268  1
  O  O221  1  0.74407280  0.49507661  0.63055726  1
  O  O222  1  0.73695244  1.00285663  0.12543248  1
  O  O223  1  0.74948915  0.99361630  0.63330705  1
  O  O224  1  0.00699629  0.37284452  0.25661971  1
  O  O225  1  0.00625709  0.37327404  0.75793092  1
  O  O226  1  0.00947504  0.86840818  0.25378201  1
  O  O227  1  0.00626688  0.87476610  0.75976613  1
  O  O228  1  0.50607501  0.37034196  0.25584402  1
  O  O229  1  0.50606499  0.37038785  0.75560750  1
  O  O230  1  0.50058238  0.86176326  0.24985528  1
  O  O231  1  0.50049159  0.86850218  0.75553640  1
  O  O232  1  0.49450170  0.13188358  0.24547770  1
  O  O233  1  0.49419254  0.13197349  0.74963855  1
  O  O234  1  0.49521881  0.63093429  0.24358028  1
  O  O235  1  0.49352005  0.62999595  0.74323768  1
  O  O236  1  1.00083533  0.12399899  0.23715826  1
  O  O237  1  0.99670924  0.12750748  0.74157782  1
  O  O238  1  0.99549387  0.63056945  0.24493730  1
  O  O239  1  0.99273128  0.62692156  0.74311998  1
  O  O240  1  0.36857827  0.24937962  0.00625036  1
  O  O241  1  0.37715067  0.25482700  0.50928298  1
  O  O242  1  0.36905069  0.74853450  0.00570884  1
  O  O243  1  0.37134571  0.75406640  0.50428104  1
  O  O244  1  0.86708721  0.25868619  0.00375679  1
  O  O245  1  0.87273062  0.25641399  0.51104893  1
  O  O246  1  0.87665228  0.75034031  0.01242291  1
  O  O247  1  0.86955549  0.75509266  0.50520870  1
  O  O248  1  0.12432249  0.24495426  0.49111913  1
  O  O249  1  0.13076319  0.24321811  0.99347780  1
  O  O250  1  0.13062018  0.74534409  0.49553645  1
  O  O251  1  0.13156664  0.74265160  0.99397947  1
  O  O252  1  0.62381197  0.24046807  0.49391935  1
  O  O253  1  0.62921259  0.24685823  0.99584054  1
  O  O254  1  0.63238561  0.74216051  0.49917359  1
  O  O255  1  0.62073801  0.74439146  0.98982754  1
  O  O256  1  0.49535238  0.24512821  0.13110623  1
  O  O257  1  0.49025425  0.24923445  0.63207038  1
  O  O258  1  0.49475151  0.74347027  0.13106174  1
  O  O259  1  0.49452744  0.74391467  0.62911655  1
  O  O260  1  1.00063067  0.23645810  0.12404641  1
  O  O261  1  0.98982255  0.24494078  0.62605647  1
  O  O262  1  0.99510633  0.74382231  0.13141775  1
  O  O263  1  0.99278991  0.74354758  0.62632761  1
  O  O264  1  0.00984250  0.25507568  0.37458715  1
  O  O265  1  0.00653051  0.25666374  0.87502032  1
  O  O266  1  0.00709605  0.75152819  0.36863634  1
  O  O267  1  0.00742245  0.75868125  0.87408470  1
  O  O268  1  0.50525297  0.25576341  0.36945273  1
  O  O269  1  0.50552829  0.25631377  0.87018599  1
  O  O270  1  0.50166821  0.74846175  0.36236591  1
  O  O271  1  0.50542921  0.75448939  0.86882814  1
  O  O272  1  0.24110474  0.12863106  0.49728317  1
  O  O273  1  0.24406378  0.12936375  0.99351860  1
  O  O274  1  0.24345909  0.63181035  0.49850471  1
  O  O275  1  0.24480759  0.62947362  0.99258014  1
  O  O276  1  0.74033710  0.12462912  0.49095872  1
  O  O277  1  0.74233046  0.13329406  0.99996198  1
  O  O278  1  0.74582210  0.62980636  0.49531253  1
  O  O279  1  0.74022477  0.63014249  0.99709369  1
  O  O280  1  0.25238544  0.36555514  0.00124054  1
  O  O281  1  0.25935128  0.37149773  0.50299758  1
  O  O282  1  0.25199405  0.86557829  0.00128018  1
  O  O283  1  0.25758081  0.86839097  0.50212295  1
  O  O284  1  0.75361307  0.37137546  0.00663187  1
  O  O285  1  0.75541739  0.37338293  0.50686134  1
  O  O286  1  0.75341984  0.86943953  0.00669143  1
  O  O287  1  0.75602809  0.86981883  0.50582100  1
  O  O288  1  0.13083372  0.49457365  0.24517153  1
  O  O289  1  0.12998493  0.49501577  0.74495885  1
  O  O290  1  0.13139034  0.99418504  0.24611826  1
  O  O291  1  0.13036893  0.99578315  0.74432489  1
  O  O292  1  0.63016236  0.49553762  0.24490741  1
  O  O293  1  0.62879839  0.49555978  0.74397478  1
  O  O294  1  0.62267018  1.00111963  0.23797451  1
  O  O295  1  0.63479036  0.99841410  0.74755385  1
  O  O296  1  0.37218777  0.00512288  0.25470167  1
  O  O297  1  0.36981042  0.00619269  0.75438352  1
  O  O298  1  0.37142263  0.50368008  0.25471783  1
  O  O299  1  0.37005446  0.50567576  0.75457374  1
  O  O300  1  0.87530311  0.00322891  0.26298344  1
  O  O301  1  0.86320882  0.00106718  0.75283950  1
  O  O302  1  0.86933202  0.50595502  0.25503857  1
  O  O303  1  0.86889109  0.50506144  0.75516904  1
  O  O304  1  0.11953505  0.36743914  0.37055986  1
  O  O305  1  0.11909416  0.36999323  0.87015266  1
  O  O306  1  0.12411468  0.86788621  0.36907337  1
  O  O307  1  0.11743553  0.86960242  0.86927363  1
  O  O308  1  0.62029459  0.37068269  0.37026795  1
  O  O309  1  0.61903089  0.37121199  0.86903720  1
  O  O310  1  0.62075227  0.87075470  0.37085092  1
  O  O311  1  0.61657419  0.86478389  0.87395110  1
  O  O312  1  0.38133535  0.13038743  0.13145641  1
  O  O313  1  0.37703980  0.13490932  0.63105488  1
  O  O314  1  0.38144154  0.62911470  0.13037922  1
  O  O315  1  0.38089476  0.62968471  0.62932647  1
  O  O316  1  0.88726640  0.12360242  0.12489408  1
  O  O317  1  0.87934748  0.13541758  0.62382465  1
  O  O318  1  0.88146087  0.63205234  0.13109583  1
  O  O319  1  0.87969194  0.62949896  0.62975125  1
  O  O320  1  0.25571698  0.24872042  0.11815118  1
  O  O321  1  0.26347699  0.25209681  0.62503100  1
  O  O322  1  0.25712972  0.74850418  0.11782671  1
  O  O323  1  0.25719856  0.75105757  0.61811490  1
  O  O324  1  0.74868973  0.25784318  0.11939840  1
  O  O325  1  0.75779859  0.25658113  0.62356663  1
  O  O326  1  0.76412488  0.74882250  0.12565423  1
  O  O327  1  0.75593142  0.75506103  0.61916220  1
  O  O328  1  0.23667829  0.24860365  0.37662793  1
  O  O329  1  0.24446389  0.24331711  0.87954478  1
  O  O330  1  0.24471091  0.74735345  0.38162801  1
  O  O331  1  0.24533062  0.74319805  0.87886121  1
  O  O332  1  0.74404770  0.24041912  0.37751703  1
  O  O333  1  0.74189207  0.25251476  0.88280441  1
  O  O334  1  0.75157776  0.74294674  0.38132174  1
  O  O335  1  0.73630472  0.74973635  0.87461099  1
  O  O336  1  0.00646664  0.11816804  0.00718881  1
  O  O337  1  0.00543951  0.11919065  0.50722157  1
  O  O338  1  0.00840732  0.62316759  0.00687061  1
  O  O339  1  0.00685394  0.62344653  0.50717274  1
  O  O340  1  0.50574133  0.12097659  0.00568926  1
  O  O341  1  0.50874493  0.11648158  0.49982795  1
  O  O342  1  0.50493443  0.61896392  0.00533073  1
  O  O343  1  0.50528210  0.61920915  0.50496070  1
  O  O344  1  0.49580568  0.38106043  0.49444402  1
  O  O345  1  0.49898403  0.38263129  0.99309179  1
  O  O346  1  0.49481352  0.88414720  0.49971329  1
  O  O347  1  0.49576276  0.88338223  0.99155855  1
  O  O348  1  0.99215667  0.37764325  0.49233185  1
  O  O349  1  0.99283207  0.37715351  0.99388353  1
  O  O350  1  0.99271752  0.88238581  0.49868227  1
  O  O351  1  1.00357153  0.87972897  0.99010804  1
  O  O352  1  0.49566177  0.49427212  0.38015869  1
  O  O353  1  0.49485421  0.49601197  0.87907175  1
  O  O354  1  0.49431491  1.00007209  0.38623910  1
  O  O355  1  0.49471961  0.99621651  0.87901650  1
  O  O356  1  0.99278886  0.49332493  0.37542846  1
  O  O357  1  0.99238670  0.49326187  0.87709936  1
  O  O358  1  0.99002642  1.00138222  0.38228600  1
  O  O359  1  1.00200471  0.98959694  0.88109168  1
  O  O360  1  0.00737624  0.00614257  0.11997811  1
  O  O361  1  0.00434737  0.00567447  0.62026346  1
  O  O362  1  0.00744879  0.50744990  0.12456100  1
  O  O363  1  0.00644531  0.50695431  0.62351006  1
  O  O364  1  0.50537986  0.00673085  0.11929404  1
  O  O365  1  0.50126968  0.00271859  0.61291883  1
  O  O366  1  0.50560151  0.50483698  0.12013922  1
  O  O367  1  0.50528379  0.50515677  0.61968727  1
  O  O368  1  0.24250558  0.38122637  0.24761826  1
  O  O369  1  0.24214958  0.38218078  0.74928226  1
  O  O370  1  0.24519942  0.88150163  0.24789459  1
  O  O371  1  0.24300441  0.88277605  0.74858584  1
  O  O372  1  0.74410846  0.38108129  0.24598822  1
  O  O373  1  0.74351184  0.38177613  0.74417495  1
  O  O374  1  0.74604365  0.87962134  0.24244781  1
  O  O375  1  0.74832023  0.88333283  0.74339952  1
  O  O376  1  0.25706425  0.11761895  0.25223452  1
  O  O377  1  0.25533614  0.11986066  0.75589222  1
  O  O378  1  0.25795692  0.61702161  0.25156934  1
  O  O379  1  0.25505626  0.61929873  0.75483539  1
  O  O380  1  0.74902307  0.12151779  0.26384756  1
  O  O381  1  0.75136998  0.11447385  0.75201745  1
  O  O382  1  0.75629370  0.61933960  0.25529410  1
  O  O383  1  0.75640313  0.61842398  0.75085823  1
  O  O384  1  0.37450333  0.11891772  0.36858899  1
  O  O385  1  0.36929376  0.12045491  0.86880950  1
  O  O386  1  0.37484642  0.61602037  0.36807322  1
  O  O387  1  0.36962533  0.61959771  0.86785943  1
  O  O388  1  0.86645663  0.11725154  0.37926469  1
  O  O389  1  0.87100132  0.12207643  0.87301277  1
  O  O390  1  0.87063186  0.61967196  0.36966566  1
  O  O391  1  0.87445266  0.61986593  0.86862852  1
  O  O392  1  0.12526628  0.38076385  0.13126172  1
  O  O393  1  0.12449491  0.38081308  0.63127584  1
  O  O394  1  0.12729328  0.88092430  0.13253919  1
  O  O395  1  0.12503410  0.88264974  0.63107276  1
  O  O396  1  0.62976276  0.38163558  0.13148543  1
  O  O397  1  0.62916627  0.38034762  0.63006776  1
  O  O398  1  0.62174592  0.88844738  0.12492305  1
  O  O399  1  0.63443484  0.87677576  0.62689639  1
  O  O400  1  0.12319153  0.25455886  0.25963340  1
  O  O401  1  0.12416027  0.25639184  0.75701564  1
  O  O402  1  0.12195905  0.75373046  0.25515627  1
  O  O403  1  0.12416086  0.75652440  0.75619080  1
  O  O404  1  0.61893656  0.25588156  0.25578561  1
  O  O405  1  0.62029234  0.25626205  0.75506964  1
  O  O406  1  0.61311714  0.74819697  0.24847197  1
  O  O407  1  0.61737746  0.74963895  0.75868178  1
  O  O408  1  0.38019131  0.24495225  0.24581914  1
  O  O409  1  0.38018507  0.24605074  0.74374093  1
  O  O410  1  0.38285236  0.74338392  0.24453245  1
  O  O411  1  0.37924724  0.74384074  0.74411039  1
  O  O412  1  0.87918681  0.24366888  0.24547027  1
  O  O413  1  0.87476950  0.25090832  0.73732595  1
  O  O414  1  0.88232126  0.74454854  0.24369308  1
  O  O415  1  0.87562125  0.74343828  0.74253199  1
  O  O416  1  0.38133674  0.49501189  0.49523508  1
  O  O417  1  0.38142298  0.50031233  0.99236476  1
  O  O418  1  0.38249444  0.99654521  0.49623369  1
  O  O419  1  0.38110249  1.00199457  0.99205931  1
  O  O420  1  0.87570939  0.49350847  0.49258597  1
  O  O421  1  0.87491616  0.49454774  0.99380591  1
  O  O422  1  0.87927521  0.99564041  0.49330455  1
  O  O423  1  0.88526167  0.99510646  0.99832174  1
  O  O424  1  0.12091675  0.00510327  0.00541813  1
  O  O425  1  0.11941693  0.00487552  0.50487080  1
  O  O426  1  0.12496072  0.50657339  0.00644070  1
  O  O427  1  0.12445830  0.50628575  0.50622797  1
  O  O428  1  0.61831108  0.00671819  0.00736966  1
  O  O429  1  0.61684473  0.00840238  0.49952029  1
  O  O430  1  0.61898190  0.50571006  0.00520269  1
  O  O431  1  0.61984672  0.50519102  0.50561544  1
  O  O432  1  0.37272809  0.36603146  0.12213690  1
  O  O433  1  0.37557170  0.36573597  0.62004122  1
  O  O434  1  0.37266484  0.86560945  0.12098626  1
  O  O435  1  0.37318909  0.86761027  0.61797135  1
  O  O436  1  0.86777314  0.37606839  0.11941215  1
  O  O437  1  0.87017081  0.36876019  0.62060122  1
  O  O438  1  0.87965257  0.86252881  0.12565272  1
  O  O439  1  0.86948214  0.86927085  0.61960318  1
  O  O440  1  0.12342464  0.13382965  0.38082587  1
  O  O441  1  0.12969437  0.12952792  0.87983141  1
  O  O442  1  0.12657001  0.63142432  0.38188084  1
  O  O443  1  0.13017984  0.62919956  0.87886006  1
  O  O444  1  0.63141044  0.12886609  0.38284268  1
  O  O445  1  0.62611653  0.13378874  0.88315048  1
  O  O446  1  0.63320834  0.62546205  0.38170101  1
  O  O447  1  0.62321198  0.63523027  0.88008046  1
