# generated using pymatgen
data_V3Zn3O8
_symmetry_space_group_name_H-M   'P 1'
_cell_length_a   17.08980803
_cell_length_b   17.08887200
_cell_length_c   17.08900586
_cell_angle_alpha   90.00370198
_cell_angle_beta   89.99285279
_cell_angle_gamma   89.99734549
_symmetry_Int_Tables_number   1
_chemical_formula_structural   V3Zn3O8
_chemical_formula_sum   'V96 Zn96 O256'
_cell_volume   4990.76792312
_cell_formula_units_Z   32
loop_
 _symmetry_equiv_pos_site_id
 _symmetry_equiv_pos_as_xyz
  1  'x, y, z'
loop_
 _atom_site_type_symbol
 _atom_site_label
 _atom_site_symmetry_multiplicity
 _atom_site_fract_x
 _atom_site_fract_y
 _atom_site_fract_z
 _atom_site_occupancy
  V  V0  1  0.25112574  0.37412819  0.62543031  1
  V  V1  1  0.37642058  0.87524197  0.00021969  1
  V  V2  1  0.87419919  0.25034542  0.12524690  1
  V  V3  1  0.12526376  0.62456012  0.00033061  1
  V  V4  1  0.62476387  0.74897712  0.37511962  1
  V  V5  1  0.12450514  0.50028223  0.62423386  1
  V  V6  1  0.25062641  0.87569917  0.62465400  1
  V  V7  1  0.87418248  -0.00046681  0.37417633  1
  V  V8  1  0.87434151  0.25063679  0.62546436  1
  V  V9  1  0.62499038  0.37599898  0.74972206  1
  V  V10  1  0.87379942  0.49991298  0.37523364  1
  V  V11  1  0.12551652  0.12568934  -0.00047020  1
  V  V12  1  0.00051927  0.75007247  0.74885889  1
  V  V13  1  0.62508946  0.87408831  0.75039398  1
  V  V14  1  0.74922300  0.37444294  0.62583052  1
  V  V15  1  0.25090111  0.75015564  -0.00005388  1
  V  V16  1  0.12404779  0.75013449  0.37529219  1
  V  V17  1  0.00117645  0.87523338  0.87468871  1
  V  V18  1  0.50118053  0.12468593  0.62621463  1
  V  V19  1  0.12350704  0.37516064  0.24926863  1
  V  V20  1  0.62510772  0.87496670  0.24991434  1
  V  V21  1  0.50111406  0.75057547  0.74972482  1
  V  V22  1  0.62528280  0.62587261  -0.00005939  1
  V  V23  1  0.25227965  0.00055565  0.74956347  1
  V  V24  1  -0.00069654  0.12561255  0.12563424  1
  V  V25  1  0.37436987  0.74992395  0.12569643  1
  V  V26  1  0.00019798  0.00026589  0.00004972  1
  V  V27  1  0.37425536  0.87486653  0.49852077  1
  V  V28  1  0.50005045  -0.00151028  -0.00118491  1
  V  V29  1  0.75039450  0.24970905  0.50104902  1
  V  V30  1  0.12621220  0.75014100  0.87448471  1
  V  V31  1  0.25085553  0.12590140  0.87588590  1
  V  V32  1  0.49893913  0.87548088  0.37496875  1
  V  V33  1  0.50002238  0.37593050  0.87540924  1
  V  V34  1  0.24908650  0.24947081  0.50061311  1
  V  V35  1  0.87584381  0.49999585  0.87556423  1
  V  V36  1  0.49961120  0.62414931  0.62435905  1
  V  V37  1  0.62620464  -0.00047090  0.12588001  1
  V  V38  1  0.12523296  0.37471180  0.75100603  1
  V  V39  1  0.87495973  0.87463110  0.00026202  1
  V  V40  1  0.62539370  0.12507469  0.00006027  1
  V  V41  1  -0.00126918  0.25011072  0.25039067  1
  V  V42  1  -0.00117650  0.87535016  0.37497344  1
  V  V43  1  0.62519707  0.50091030  0.12496152  1
  V  V44  1  0.87575455  0.74984327  0.12471440  1
  V  V45  1  0.62557025  -0.00002106  0.62464036  1
  V  V46  1  0.74974751  0.74867834  0.49989205  1
  V  V47  1  0.75055109  0.75042995  0.00039448  1
  V  V48  1  0.12713668  0.87486798  0.74973567  1
  V  V49  1  0.00003094  0.37372525  0.37471337  1
  V  V50  1  0.49921293  0.75031095  0.24995138  1
  V  V51  1  0.74959579  -0.00035575  0.25053967  1
  V  V52  1  0.75077285  0.87359664  0.62469604  1
  V  V53  1  0.37296729  0.62434218  0.24962196  1
  V  V54  1  0.00051710  0.49981922  0.50149809  1
  V  V55  1  0.00030182  0.37548428  0.87464076  1
  V  V56  1  0.74913867  0.50034594  0.25032256  1
  V  V57  1  0.75081012  -0.00056153  0.74978465  1
  V  V58  1  0.37392731  0.49828490  0.37534657  1
  V  V59  1  0.74997352  0.62577665  0.87507496  1
  V  V60  1  0.50000169  0.62498996  0.12397442  1
  V  V61  1  0.62242579  0.25122537  0.37361070  1
  V  V62  1  0.87592600  0.12497134  0.75044783  1
  V  V63  1  0.24843692  0.49916129  0.24959600  1
  V  V64  1  0.00007577  0.00026409  0.50072751  1
  V  V65  1  0.37550597  0.62524526  0.74891258  1
  V  V66  1  0.24915962  0.87571589  0.12568759  1
  V  V67  1  0.00051403  0.12467435  0.62528995  1
  V  V68  1  0.24839093  0.74956274  0.49858922  1
  V  V69  1  0.74987292  0.12406684  0.37499429  1
  V  V70  1  0.87603451  0.00021770  0.87503720  1
  V  V71  1  0.24891714  0.12573869  0.37421775  1
  V  V72  1  0.37559515  0.49970645  0.87499048  1
  V  V73  1  0.75091600  0.12567339  0.87522193  1
  V  V74  1  -0.00111882  0.74968903  0.24995410  1
  V  V75  1  0.62516024  0.12388111  0.50135961  1
  V  V76  1  0.37566590  0.24907161  0.62656519  1
  V  V77  1  0.74960528  0.37524419  0.12396798  1
  V  V78  1  0.75073412  0.25114929  0.00064293  1
  V  V79  1  0.49799459  0.12939592  0.12708640  1
  V  V80  1  0.87552650  0.62604627  0.75015031  1
  V  V81  1  0.25004380  0.50016573  0.74887751  1
  V  V82  1  0.25069395  0.62558601  0.87411780  1
  V  V83  1  0.62450858  0.62477954  0.49892361  1
  V  V84  1  0.87523499  0.74905916  0.62494594  1
  V  V85  1  0.12429146  0.49968371  0.12558035  1
  V  V86  1  0.62574775  0.25107791  0.87497172  1
  V  V87  1  0.12457688  -0.00024991  0.12536770  1
  V  V88  1  0.00101954  0.25017765  0.75058913  1
  V  V89  1  0.37341884  0.37323432  0.00232596  1
  V  V90  1  0.12463405  0.87561566  0.24913197  1
  V  V91  1  0.37484591  0.00167481  0.37320019  1
  V  V92  1  0.50037778  0.24916787  0.74981856  1
  V  V93  1  0.00055488  0.62530001  0.12472020  1
  V  V94  1  0.62497353  0.49902810  0.62431135  1
  V  V95  1  0.49862991  0.49918627  0.49830293  1
  Zn  Zn96  1  0.62565191  0.75107589  0.87639673  1
  Zn  Zn97  1  0.37465158  0.75022278  0.62305770  1
  Zn  Zn98  1  0.24905308  0.00266624  0.24901538  1
  Zn  Zn99  1  0.62195444  0.37435008  0.24902262  1
  Zn  Zn100  1  0.49962777  0.37417240  0.37337333  1
  Zn  Zn101  1  0.87490269  0.62564796  0.24907018  1
  Zn  Zn102  1  0.37688755  0.12387745  0.75232415  1
  Zn  Zn103  1  0.00118948  0.49839406  0.00097023  1
  Zn  Zn104  1  0.12531301  0.25155845  0.87695625  1
  Zn  Zn105  1  0.37710756  -0.00120668  0.87471796  1
  Zn  Zn106  1  0.74942213  0.62504792  0.37423944  1
  Zn  Zn107  1  0.87701649  0.37562043  -0.00005168  1
  Zn  Zn108  1  0.37399478  0.12937715  0.24898896  1
  Zn  Zn109  1  0.24869161  0.24967040  0.00248851  1
  Zn  Zn110  1  0.87472941  0.87207402  0.49971597  1
  Zn  Zn111  1  0.87453235  0.12490710  0.25008703  1
  Zn  Zn112  1  0.50011250  0.50083036  0.00042531  1
  Zn  Zn113  1  0.49698263  0.25346908  0.25080613  1
  Zn  Zn114  1  0.24837876  0.37142728  0.12453362  1
  Zn  Zn115  1  0.12449390  0.12505083  0.50161063  1
  Zn  Zn116  1  0.74932086  0.50124708  0.74926838  1
  Zn  Zn117  1  0.50071442  -0.00080869  0.50084104  1
  Zn  Zn118  1  0.37149988  0.25149167  0.12898645  1
  Zn  Zn119  1  0.50081189  0.87434115  0.87465301  1
  Zn  Zn120  1  0.12286328  0.24884504  0.37539734  1
  Zn  Zn121  1  0.12569747  0.00173545  0.62415871  1
  Zn  Zn122  1  0.37629815  0.37478045  0.49981410  1
  Zn  Zn123  1  0.24612734  0.62409743  0.37500143  1
  Zn  Zn124  1  0.75045265  0.87491541  0.12502002  1
  Zn  Zn125  1  0.87439374  0.37434942  0.50181025  1
  Zn  Zn126  1  0.00114237  0.62564122  0.62496255  1
  Zn  Zn127  1  0.12447364  0.62546335  0.50008991  1
  Zn  Zn128  1  0.18702743  0.19039637  0.18727054  1
  Zn  Zn129  1  0.18585499  0.18656731  0.68820002  1
  Zn  Zn130  1  0.18675913  0.68693878  0.18824053  1
  Zn  Zn131  1  0.18700618  0.68688064  0.68451806  1
  Zn  Zn132  1  0.68702684  0.18650941  0.18870904  1
  Zn  Zn133  1  0.68756867  0.18777802  0.68825730  1
  Zn  Zn134  1  0.68858302  0.68697752  0.18671322  1
  Zn  Zn135  1  0.68764016  0.68601250  0.68686985  1
  Zn  Zn136  1  0.31238499  0.31239820  0.30975847  1
  Zn  Zn137  1  0.31344953  0.31129534  0.81339167  1
  Zn  Zn138  1  0.31068823  0.81383915  0.31232815  1
  Zn  Zn139  1  0.31627318  0.81367887  0.81362453  1
  Zn  Zn140  1  0.81111454  0.31338333  0.31188456  1
  Zn  Zn141  1  0.81283525  0.31396120  0.81162368  1
  Zn  Zn142  1  0.81216090  0.81319513  0.31245387  1
  Zn  Zn143  1  0.81282095  0.81191288  0.81317274  1
  Zn  Zn144  1  0.18696278  0.43510827  0.43657357  1
  Zn  Zn145  1  0.18797570  0.43847293  0.93780842  1
  Zn  Zn146  1  0.18613239  0.93766442  0.43690537  1
  Zn  Zn147  1  0.18875044  0.93868923  0.93748562  1
  Zn  Zn148  1  0.68722361  0.43525873  0.43913559  1
  Zn  Zn149  1  0.68889717  0.43913592  0.93848749  1
  Zn  Zn150  1  0.68751778  0.93569288  0.43809351  1
  Zn  Zn151  1  0.68733077  0.93591841  0.93669489  1
  Zn  Zn152  1  0.31329429  0.06207304  0.06234995  1
  Zn  Zn153  1  0.31543816  0.06346541  0.56232359  1
  Zn  Zn154  1  0.31166201  0.55967189  0.06295492  1
  Zn  Zn155  1  0.31232226  0.56411204  0.56204023  1
  Zn  Zn156  1  0.81274939  0.06305100  0.06356598  1
  Zn  Zn157  1  0.81374504  0.06251964  0.56191757  1
  Zn  Zn158  1  0.81310119  0.56382385  0.06170377  1
  Zn  Zn159  1  0.81202238  0.56311099  0.56293360  1
  Zn  Zn160  1  0.43965099  0.43653005  0.18902231  1
  Zn  Zn161  1  0.43753112  0.43625592  0.68680757  1
  Zn  Zn162  1  0.43721829  0.93952669  0.18744125  1
  Zn  Zn163  1  0.43711013  0.93684772  0.68521875  1
  Zn  Zn164  1  0.93672289  0.43700907  0.18699799  1
  Zn  Zn165  1  0.93649506  0.43697369  0.68873128  1
  Zn  Zn166  1  0.93661908  0.93733377  0.18794539  1
  Zn  Zn167  1  0.93728650  0.93595560  0.68654805  1
  Zn  Zn168  1  0.06305344  0.06367547  0.31241049  1
  Zn  Zn169  1  0.06565070  0.06264170  0.81205509  1
  Zn  Zn170  1  0.06191750  0.56394278  0.31281268  1
  Zn  Zn171  1  0.06226364  0.56278672  0.81186414  1
  Zn  Zn172  1  0.56223890  0.06370897  0.31233994  1
  Zn  Zn173  1  0.56460442  0.06239158  0.81241477  1
  Zn  Zn174  1  0.56070786  0.56276107  0.31166864  1
  Zn  Zn175  1  0.56310432  0.56266795  0.81329352  1
  Zn  Zn176  1  0.43732720  0.18598463  0.44098129  1
  Zn  Zn177  1  0.43642739  0.18795730  0.93802968  1
  Zn  Zn178  1  0.43564396  0.68607776  0.43610517  1
  Zn  Zn179  1  0.43872127  0.68797039  0.93658868  1
  Zn  Zn180  1  0.93530378  0.18629894  0.43786794  1
  Zn  Zn181  1  0.93806658  0.18930486  0.93839813  1
  Zn  Zn182  1  0.93669395  0.68555316  0.43751962  1
  Zn  Zn183  1  0.93846890  0.68696192  0.93769833  1
  Zn  Zn184  1  0.06207623  0.31217629  0.06142322  1
  Zn  Zn185  1  0.06310667  0.31321333  0.56344109  1
  Zn  Zn186  1  0.06245405  0.81175803  0.06244402  1
  Zn  Zn187  1  0.06333978  0.81502981  0.56351061  1
  Zn  Zn188  1  0.56257066  0.31482184  0.06130904  1
  Zn  Zn189  1  0.56149686  0.31321911  0.56019321  1
  Zn  Zn190  1  0.56370995  0.81195524  0.06383541  1
  Zn  Zn191  1  0.56238498  0.81282289  0.56219643  1
  O  O192  1  0.11883486  0.11876889  0.11958708  1
  O  O193  1  0.11612992  0.12166734  0.62299975  1
  O  O194  1  0.12012907  0.62055106  0.11953751  1
  O  O195  1  0.12151594  0.61611737  0.62168829  1
  O  O196  1  0.61799939  0.11955446  0.11872660  1
  O  O197  1  0.62149512  0.11947030  0.62101318  1
  O  O198  1  0.61966497  0.62089713  0.11974820  1
  O  O199  1  0.61919918  0.61865437  0.61884929  1
  O  O200  1  0.37455242  0.38883947  0.37639140  1
  O  O201  1  0.38031471  0.38020844  0.88108792  1
  O  O202  1  0.37863778  0.88342236  0.37834067  1
  O  O203  1  0.37980884  0.87788890  0.88469436  1
  O  O204  1  0.87984456  0.38565754  0.37689834  1
  O  O205  1  0.88049691  0.38503269  0.87347673  1
  O  O206  1  0.88180836  0.88137578  0.37680089  1
  O  O207  1  0.88166117  0.88107349  0.87960223  1
  O  O208  1  0.25756809  0.00829686  0.37595494  1
  O  O209  1  0.25103039  0.00756752  0.86644302  1
  O  O210  1  0.25736789  0.50158056  0.36980463  1
  O  O211  1  0.25525357  0.50680445  0.86755502  1
  O  O212  1  0.75391858  0.00407831  0.37072953  1
  O  O213  1  0.75609348  0.00601672  0.86982183  1
  O  O214  1  0.75715570  0.49846340  0.36802469  1
  O  O215  1  0.75981848  0.50618410  0.87313342  1
  O  O216  1  0.24196910  0.49810483  0.13238363  1
  O  O217  1  0.24534321  0.49444725  0.62963725  1
  O  O218  1  0.24295844  0.99377933  0.12599443  1
  O  O219  1  0.24993779  0.99574855  0.63385962  1
  O  O220  1  0.74659354  0.49633935  0.13233588  1
  O  O221  1  0.74272463  0.49335865  0.62602052  1
  O  O222  1  0.74342833  0.99946404  0.13131069  1
  O  O223  1  0.74615684  0.99478312  0.63116385  1
  O  O224  1  0.00399259  0.36998054  0.25546053  1
  O  O225  1  0.00572802  0.36969771  0.75467520  1
  O  O226  1  0.00532936  0.86949436  0.25517408  1
  O  O227  1  0.00617998  0.87035269  0.75585595  1
  O  O228  1  0.50553775  0.37178228  0.25525320  1
  O  O229  1  0.50566900  0.36887747  0.75534022  1
  O  O230  1  0.50454915  0.86962391  0.25493545  1
  O  O231  1  0.50533534  0.86597276  0.74864652  1
  O  O232  1  0.50001471  0.12546256  0.23724665  1
  O  O233  1  0.50087786  0.13130498  0.74476487  1
  O  O234  1  0.49315278  0.63146841  0.24380886  1
  O  O235  1  0.49575595  0.63194069  0.74421860  1
  O  O236  1  0.99840721  0.13145727  0.24340188  1
  O  O237  1  0.99477794  0.12925007  0.74599246  1
  O  O238  1  0.99878242  0.63264047  0.24297249  1
  O  O239  1  0.99405549  0.63319345  0.74946182  1
  O  O240  1  0.37428934  0.26262031  0.00049590  1
  O  O241  1  0.36455693  0.25092271  0.50685310  1
  O  O242  1  0.37016371  0.75445548  0.00611717  1
  O  O243  1  0.36461287  0.75607767  0.49793371  1
  O  O244  1  0.86763237  0.25084575  0.00670639  1
  O  O245  1  0.86824740  0.25116151  0.50779229  1
  O  O246  1  0.87106157  0.75571257  0.00444016  1
  O  O247  1  0.86835684  0.74938526  0.50624576  1
  O  O248  1  0.13756329  0.24867692  0.49920963  1
  O  O249  1  0.12641351  0.24071124  0.99660511  1
  O  O250  1  0.13329496  0.75218008  0.49441958  1
  O  O251  1  0.13168618  0.74532119  0.99414098  1
  O  O252  1  0.63106920  0.24349774  0.49369819  1
  O  O253  1  0.63103152  0.24493166  0.99364063  1
  O  O254  1  0.62936424  0.74450297  0.49470021  1
  O  O255  1  0.63179616  0.74405141  0.99972638  1
  O  O256  1  0.50154201  0.23779127  0.12323213  1
  O  O257  1  0.49629668  0.24479104  0.63039942  1
  O  O258  1  0.49349007  0.74520903  0.13102635  1
  O  O259  1  0.49882962  0.74366166  0.63378110  1
  O  O260  1  0.99380488  0.24476867  0.13039715  1
  O  O261  1  0.99421387  0.24530936  0.63057629  1
  O  O262  1  0.99577755  0.74541142  0.13023131  1
  O  O263  1  0.99430704  0.75025206  0.63124495  1
  O  O264  1  -0.00107701  0.25575435  0.36995756  1
  O  O265  1  0.00000671  0.25659465  0.86712512  1
  O  O266  1  0.00346728  0.75564453  0.37053838  1
  O  O267  1  0.00639633  0.75614118  0.86951325  1
  O  O268  1  0.51194654  0.24797050  0.37748172  1
  O  O269  1  0.50695300  0.25491232  0.87014515  1
  O  O270  1  0.50401988  0.75529721  0.36885616  1
  O  O271  1  0.50271703  0.75028041  0.86154018  1
  O  O272  1  0.24970869  0.13314029  0.49310482  1
  O  O273  1  0.24436402  0.12198658  0.99018569  1
  O  O274  1  0.24853668  0.63818873  0.49849623  1
  O  O275  1  0.24593314  0.63102732  0.99394326  1
  O  O276  1  0.74474737  0.12999509  0.49545665  1
  O  O277  1  0.74464402  0.13005610  0.99444568  1
  O  O278  1  0.74192079  0.63063683  0.49837048  1
  O  O279  1  0.74497430  0.63122830  0.99489260  1
  O  O280  1  0.26107691  0.37376304  -0.00110994  1
  O  O281  1  0.25129634  0.36508728  0.50627735  1
  O  O282  1  0.25514709  0.86945183  0.00570587  1
  O  O283  1  0.25368112  0.86818183  0.50384622  1
  O  O284  1  0.75233378  0.36828984  0.00561810  1
  O  O285  1  0.75115020  0.36730825  0.50849019  1
  O  O286  1  0.75747232  0.86949086  0.00091277  1
  O  O287  1  0.75091339  0.86686891  0.50707521  1
  O  O288  1  0.12858967  0.49537692  0.24544211  1
  O  O289  1  0.13103060  0.49510417  0.74452762  1
  O  O290  1  0.12488860  0.99310096  0.24308348  1
  O  O291  1  0.13650170  0.99308311  0.74969700  1
  O  O292  1  0.63476486  0.50086655  0.24487477  1
  O  O293  1  0.62493949  0.49370694  0.74231928  1
  O  O294  1  0.62973613  0.99424942  0.24621619  1
  O  O295  1  0.63202172  0.99464717  0.74473760  1
  O  O296  1  0.37206132  0.00214972  0.26236207  1
  O  O297  1  0.36372299  0.00005840  0.75211096  1
  O  O298  1  0.36912605  0.50493619  0.25683661  1
  O  O299  1  0.36958205  0.50528983  0.75459182  1
  O  O300  1  0.86815707  0.00076844  0.25645211  1
  O  O301  1  0.87041432  0.00495742  0.75578133  1
  O  O302  1  0.86643166  0.49998825  0.25839036  1
  O  O303  1  0.87435876  0.50657523  0.76008134  1
  O  O304  1  0.11704791  0.37306052  0.36761233  1
  O  O305  1  0.11909204  0.37561780  0.86778071  1
  O  O306  1  0.11836425  0.87023545  0.36857421  1
  O  O307  1  0.12101314  0.86926178  0.87022034  1
  O  O308  1  0.62530822  0.36181702  0.37526122  1
  O  O309  1  0.62044452  0.37058044  0.87049392  1
  O  O310  1  0.61833740  0.86909970  0.36958820  1
  O  O311  1  0.62231170  0.87224153  0.86613872  1
  O  O312  1  0.38678274  0.12491039  0.12495762  1
  O  O313  1  0.38294191  0.13114607  0.62805910  1
  O  O314  1  0.37933736  0.63056038  0.12960762  1
  O  O315  1  0.38161013  0.62635326  0.63153411  1
  O  O316  1  0.88177306  0.13147553  0.12636574  1
  O  O317  1  0.87977312  0.13051793  0.63197428  1
  O  O318  1  0.88265600  0.63203030  0.12509542  1
  O  O319  1  0.87703607  0.63106119  0.63233740  1
  O  O320  1  0.25344747  0.25319056  0.12025844  1
  O  O321  1  0.25481573  0.25310553  0.61901822  1
  O  O322  1  0.25503800  0.75534887  0.11931541  1
  O  O323  1  0.25078323  0.75666190  0.61504583  1
  O  O324  1  0.75354906  0.25451959  0.12016215  1
  O  O325  1  0.75462997  0.25390025  0.62080642  1
  O  O326  1  0.75745102  0.75130248  0.11848763  1
  O  O327  1  0.75497450  0.75431296  0.61991728  1
  O  O328  1  0.25122569  0.24189795  0.38465424  1
  O  O329  1  0.24805569  0.23684036  0.87511375  1
  O  O330  1  0.24318644  0.75177421  0.38369833  1
  O  O331  1  0.24583730  0.74513541  0.87996355  1
  O  O332  1  0.74324343  0.24450371  0.38084191  1
  O  O333  1  0.74547400  0.24484307  0.87965916  1
  O  O334  1  0.74289328  0.74808046  0.38066088  1
  O  O335  1  0.75003652  0.74338367  0.88233484  1
  O  O336  1  0.00495738  0.11888122  0.00474010  1
  O  O337  1  -0.00025641  0.11594989  0.50581745  1
  O  O338  1  0.00870764  0.62488432  0.00599102  1
  O  O339  1  0.00069351  0.61072581  0.50150565  1
  O  O340  1  0.50568143  0.11734773  0.00628757  1
  O  O341  1  0.50765536  0.12227935  0.50879659  1
  O  O342  1  0.50598429  0.62480212  0.00654940  1
  O  O343  1  0.50457372  0.62022479  0.50510071  1
  O  O344  1  0.49644769  0.38340718  0.49592370  1
  O  O345  1  0.49191966  0.37800384  0.99284492  1
  O  O346  1  0.49350093  0.87559857  0.49266083  1
  O  O347  1  0.49620595  0.88410186  1.00198424  1
  O  O348  1  0.99826250  0.38453269  0.49488469  1
  O  O349  1  0.99701952  0.37799666  0.99049979  1
  O  O350  1  0.99814619  0.88428753  0.49407171  1
  O  O351  1  0.99577288  0.88039306  0.99360188  1
  O  O352  1  0.48960192  0.50146496  0.37999891  1
  O  O353  1  0.49310048  0.49378653  0.87516922  1
  O  O354  1  0.49084621  0.99511897  0.37626050  1
  O  O355  1  0.50104515  1.00032233  0.88819896  1
  O  O356  1  0.99248215  0.49456451  0.38134796  1
  O  O357  1  0.99124669  0.49499593  0.87460335  1
  O  O358  1  0.99482113  0.99607370  0.38210353  1
  O  O359  1  0.99553322  0.99507755  0.87963857  1
  O  O360  1  0.00446173  0.00511521  0.11908268  1
  O  O361  1  -0.00122217  0.00493841  0.61642863  1
  O  O362  1  0.00578599  0.50709882  0.12420946  1
  O  O363  1  0.00462805  0.49812215  0.61612563  1
  O  O364  1  0.50550355  0.00738089  0.11673687  1
  O  O365  1  0.50785414  0.00578462  0.62442756  1
  O  O366  1  0.50724329  0.50858148  0.12485866  1
  O  O367  1  0.50477203  0.50488495  0.61904777  1
  O  O368  1  0.24130252  0.38208994  0.24899940  1
  O  O369  1  0.24549292  0.38069065  0.74560553  1
  O  O370  1  0.24238002  0.87650040  0.24287768  1
  O  O371  1  0.24721341  0.88171844  0.74621571  1
  O  O372  1  0.74745300  0.38594437  0.24370337  1
  O  O373  1  0.74185520  0.37609310  0.74386812  1
  O  O374  1  0.74221496  0.88134168  0.24858833  1
  O  O375  1  0.74577548  0.88008551  0.74494639  1
  O  O376  1  0.25110078  0.12400155  0.26246661  1
  O  O377  1  0.25009397  0.11598509  0.75757435  1
  O  O378  1  0.25574688  0.61878425  0.25152061  1
  O  O379  1  0.25531798  0.62044637  0.75439187  1
  O  O380  1  0.75049875  0.11700272  0.25729140  1
  O  O381  1  0.75591907  0.11956704  0.75573272  1
  O  O382  1  0.75261194  0.61250655  0.25159214  1
  O  O383  1  0.75721452  0.62406242  0.75666117  1
  O  O384  1  0.36704820  0.11639629  0.37691723  1
  O  O385  1  0.36465199  0.12075686  0.87397644  1
  O  O386  1  0.37240722  0.61478662  0.36802028  1
  O  O387  1  0.36959163  0.62025409  0.86928590  1
  O  O388  1  0.86700042  0.11768018  0.37333560  1
  O  O389  1  0.87045051  0.11952415  0.87003715  1
  O  O390  1  0.87308511  0.61101391  0.37253586  1
  O  O391  1  0.87092654  0.61841482  0.87038427  1
  O  O392  1  0.12348368  0.38244651  0.13162106  1
  O  O393  1  0.13152913  0.38047620  0.63164289  1
  O  O394  1  0.12938952  0.87980546  0.12923790  1
  O  O395  1  0.13275637  0.87825411  0.63279138  1
  O  O396  1  0.63220214  0.38261336  0.12516614  1
  O  O397  1  0.62920319  0.37944006  0.63018739  1
  O  O398  1  0.62585646  0.88185499  0.13253798  1
  O  O399  1  0.63131008  0.88017122  0.63024955  1
  O  O400  1  0.11605776  0.25709945  0.25199259  1
  O  O401  1  0.11852541  0.25717398  0.75169391  1
  O  O402  1  0.11856882  0.75632891  0.25464588  1
  O  O403  1  0.12157730  0.75512504  0.75560327  1
  O  O404  1  0.62466482  0.24958665  0.26310830  1
  O  O405  1  0.62031894  0.25576620  0.75595069  1
  O  O406  1  0.61878065  0.75437113  0.25456753  1
  O  O407  1  0.61585820  0.75470789  0.74929031  1
  O  O408  1  0.38003190  0.24651167  0.24724036  1
  O  O409  1  0.38300605  0.24822191  0.74444352  1
  O  O410  1  0.37935219  0.74561070  0.24514350  1
  O  O411  1  0.38428562  0.74431851  0.74757339  1
  O  O412  1  0.88014781  0.24890231  0.24322427  1
  O  O413  1  0.88037251  0.24365572  0.74525433  1
  O  O414  1  0.88136071  0.74912717  0.24375588  1
  O  O415  1  0.88120075  0.74591423  0.74521137  1
  O  O416  1  0.37898300  0.50096050  0.49083455  1
  O  O417  1  0.37601500  0.49209626  0.99258483  1
  O  O418  1  0.37606993  0.99398448  0.48892864  1
  O  O419  1  0.38599850  0.99353706  1.00114819  1
  O  O420  1  0.88208122  0.49757634  0.49256594  1
  O  O421  1  0.87705886  0.50017002  0.98642897  1
  O  O422  1  0.88460109  0.99789184  0.49416302  1
  O  O423  1  0.88066609  0.99535441  0.99421487  1
  O  O424  1  0.11866984  0.00422748  0.00562792  1
  O  O425  1  0.11157455  0.00094851  0.50141184  1
  O  O426  1  0.12492721  0.50786755  0.00641556  1
  O  O427  1  0.11589507  0.49883299  0.50489010  1
  O  O428  1  0.61859672  0.00474983  0.00494751  1
  O  O429  1  0.62497969  0.00577633  0.50702912  1
  O  O430  1  0.62457922  0.50792988  0.00724675  1
  O  O431  1  0.61890216  0.50515829  0.50438119  1
  O  O432  1  0.37489050  0.37689847  0.11256889  1
  O  O433  1  0.36791653  0.36789684  0.62415137  1
  O  O434  1  0.36951721  0.86945502  0.12082210  1
  O  O435  1  0.36822366  0.87339179  0.61633987  1
  O  O436  1  0.86784456  0.36888493  0.12265260  1
  O  O437  1  0.86756270  0.36771401  0.62622357  1
  O  O438  1  0.87496250  0.86840186  0.11726886  1
  O  O439  1  0.86772255  0.86734772  0.62434896  1
  O  O440  1  0.13641093  0.12660490  0.37876168  1
  O  O441  1  0.13433995  0.12477678  0.88083625  1
  O  O442  1  0.12613729  0.63440519  0.37873570  1
  O  O443  1  0.13153576  0.63089191  0.87909022  1
  O  O444  1  0.63034773  0.13111823  0.38161940  1
  O  O445  1  0.63182826  0.13090697  0.88010467  1
  O  O446  1  0.62438608  0.63170623  0.38136527  1
  O  O447  1  0.63199546  0.62591927  0.88156729  1
