# generated using pymatgen
data_V3Zn3O8
_symmetry_space_group_name_H-M   'P 1'
_cell_length_a   17.08690390
_cell_length_b   17.08699613
_cell_length_c   17.08686614
_cell_angle_alpha   90.00245352
_cell_angle_beta   89.99856462
_cell_angle_gamma   90.00063995
_symmetry_Int_Tables_number   1
_chemical_formula_structural   V3Zn3O8
_chemical_formula_sum   'V96 Zn96 O256'
_cell_volume   4988.74739904
_cell_formula_units_Z   32
loop_
 _symmetry_equiv_pos_site_id
 _symmetry_equiv_pos_as_xyz
  1  'x, y, z'
loop_
 _atom_site_type_symbol
 _atom_site_label
 _atom_site_symmetry_multiplicity
 _atom_site_fract_x
 _atom_site_fract_y
 _atom_site_fract_z
 _atom_site_occupancy
  V  V0  1  0.12592616  0.37488927  0.74988662  1
  V  V1  1  0.75083195  0.49876666  0.74994579  1
  V  V2  1  0.74941786  -0.00064781  0.24918278  1
  V  V3  1  0.62442736  0.50010330  0.12539126  1
  V  V4  1  0.87688929  0.62436148  0.74942600  1
  V  V5  1  0.25048870  0.12383107  0.87422894  1
  V  V6  1  0.12426302  0.12487466  -0.00029556  1
  V  V7  1  0.12511077  0.12611983  0.49990856  1
  V  V8  1  0.87484568  0.87517953  0.49992933  1
  V  V9  1  0.87502779  0.12481900  0.75087738  1
  V  V10  1  0.37404375  0.12587293  0.25018838  1
  V  V11  1  0.87407256  0.74918223  0.12556203  1
  V  V12  1  -0.00085963  0.12634607  0.62535071  1
  V  V13  1  0.37539570  0.12456866  0.75062416  1
  V  V14  1  0.87489610  0.49973158  0.37491354  1
  V  V15  1  0.74983777  0.74825662  -0.00062797  1
  V  V16  1  0.00019315  0.37554713  0.37477788  1
  V  V17  1  0.87531732  0.12514438  0.24848578  1
  V  V18  1  0.25031622  0.24996999  0.50048979  1
  V  V19  1  0.12485459  0.24912646  0.87546712  1
  V  V20  1  -0.00131669  0.75066857  0.24918309  1
  V  V21  1  -0.00019445  0.25044523  0.24997807  1
  V  V22  1  0.12489054  0.62622331  0.49743312  1
  V  V23  1  0.75062440  0.00019661  0.75100855  1
  V  V24  1  0.62688394  0.37470819  0.75040008  1
  V  V25  1  0.49828755  0.87547871  0.37566390  1
  V  V26  1  0.12435351  0.37551885  0.25017189  1
  V  V27  1  0.87528222  0.87441297  -0.00062312  1
  V  V28  1  -0.00042534  0.12552520  0.12521605  1
  V  V29  1  0.49868607  0.75030707  0.25069852  1
  V  V30  1  0.25177318  0.50092333  0.74974610  1
  V  V31  1  0.00100934  0.37523969  0.87458070  1
  V  V32  1  0.25005329  0.37502397  0.12474505  1
  V  V33  1  0.37625885  0.50150504  0.87445083  1
  V  V34  1  0.62645668  0.24893749  0.87611727  1
  V  V35  1  0.62476305  0.12378709  0.49994591  1
  V  V36  1  0.62517130  0.87400806  0.75047708  1
  V  V37  1  0.37570054  0.75028782  0.12539869  1
  V  V38  1  -0.00070208  0.00122886  0.49989814  1
  V  V39  1  0.87439095  0.62532649  0.25057393  1
  V  V40  1  0.24947631  0.75268016  0.49853170  1
  V  V41  1  0.12513407  0.00017990  0.62504543  1
  V  V42  1  0.00161128  0.74944458  0.74976352  1
  V  V43  1  0.50033799  -0.00017244  0.50006934  1
  V  V44  1  0.74897981  0.87346771  0.12489775  1
  V  V45  1  0.75090669  0.37452187  0.12411898  1
  V  V46  1  0.50120559  0.37517923  0.87569488  1
  V  V47  1  0.62501769  0.37514230  0.24964800  1
  V  V48  1  0.49989303  0.37526361  0.37541170  1
  V  V49  1  0.87422402  -0.00027058  0.37441031  1
  V  V50  1  0.62624851  0.74914053  0.87441674  1
  V  V51  1  0.49860552  0.12490181  0.12518445  1
  V  V52  1  0.75041841  0.87497817  0.62550668  1
  V  V53  1  0.25013798  0.12589027  0.37581351  1
  V  V54  1  0.12482132  0.50065459  0.12439260  1
  V  V55  1  0.12631396  0.87615252  0.74914604  1
  V  V56  1  0.12614865  0.62533274  -0.00039402  1
  V  V57  1  0.50132332  0.24879625  0.75004775  1
  V  V58  1  0.49925908  0.24983901  0.24916266  1
  V  V59  1  0.62541122  0.49905592  0.62582935  1
  V  V60  1  0.00036117  0.62423686  0.62374967  1
  V  V61  1  0.25143435  0.37485505  0.62579731  1
  V  V62  1  0.74896549  0.74985322  0.50025858  1
  V  V63  1  0.12516981  0.00061239  0.12495892  1
  V  V64  1  0.49999898  0.87453542  0.87439051  1
  V  V65  1  0.37476318  0.37394704  0.00154380  1
  V  V66  1  0.37555279  0.75008332  0.62572252  1
  V  V67  1  0.62425598  0.87398653  0.25006633  1
  V  V68  1  -0.00081273  0.24977677  0.74966989  1
  V  V69  1  0.62332159  0.62342780  0.50220242  1
  V  V70  1  -0.00067920  0.87523253  0.37431833  1
  V  V71  1  -0.00014686  0.87421294  0.87502225  1
  V  V72  1  0.87488059  0.37470561  0.00079004  1
  V  V73  1  0.62480369  0.24971333  0.37431417  1
  V  V74  1  -0.00023355  0.50003130  0.49927965  1
  V  V75  1  0.24913487  0.74947020  -0.00096246  1
  V  V76  1  0.62488748  -0.00079889  0.62467405  1
  V  V77  1  0.62345502  -0.00044664  0.12396257  1
  V  V78  1  0.37398969  0.50166900  0.37547198  1
  V  V79  1  0.75052346  0.49997261  0.25109387  1
  V  V80  1  0.37705042  0.24959141  0.62611314  1
  V  V81  1  0.37521625  0.00121301  0.37589181  1
  V  V82  1  0.62375665  0.74888750  0.37672114  1
  V  V83  1  0.00181621  0.50085858  -0.00026458  1
  V  V84  1  0.87552016  0.75000762  0.62457894  1
  V  V85  1  0.87647153  0.50022710  0.87445429  1
  V  V86  1  0.62440946  0.12522234  -0.00018367  1
  V  V87  1  0.12581003  0.87574235  0.24925767  1
  V  V88  1  0.37598692  0.37495970  0.50060559  1
  V  V89  1  0.37540378  0.87647663  -0.00073998  1
  V  V90  1  0.87471934  -0.00082401  0.87526218  1
  V  V91  1  0.74932622  0.12440275  0.37355916  1
  V  V92  1  0.24955334  0.50141671  0.25069005  1
  V  V93  1  0.50035155  0.62404105  0.12544839  1
  V  V94  1  0.75053891  0.62482200  0.87514356  1
  V  V95  1  0.75200999  0.25155926  0.50085352  1
  Zn  Zn96  1  0.25053734  0.87741990  0.62439218  1
  Zn  Zn97  1  0.12601728  0.74894833  0.87397286  1
  Zn  Zn98  1  0.75253731  0.37387547  0.62515670  1
  Zn  Zn99  1  0.37258406  0.24897091  0.12553350  1
  Zn  Zn100  1  0.75161117  0.24878587  0.00042202  1
  Zn  Zn101  1  0.12554097  0.49957445  0.62432402  1
  Zn  Zn102  1  0.74889208  0.62360117  0.37553303  1
  Zn  Zn103  1  0.87439995  0.25162595  0.62567321  1
  Zn  Zn104  1  0.50205563  0.50067612  0.00019285  1
  Zn  Zn105  1  0.25231898  -0.00030018  0.74711913  1
  Zn  Zn106  1  0.49889625  0.62399023  0.62853370  1
  Zn  Zn107  1  0.37318354  0.87725711  0.50129019  1
  Zn  Zn108  1  0.37701456  0.62662954  0.74914995  1
  Zn  Zn109  1  -0.00128088  -0.00053726  -0.00042245  1
  Zn  Zn110  1  0.49954365  0.49944931  0.50279680  1
  Zn  Zn111  1  0.50022662  0.12334828  0.62632511  1
  Zn  Zn112  1  0.12586374  0.75075440  0.37205242  1
  Zn  Zn113  1  0.62523272  0.62292049  -0.00105808  1
  Zn  Zn114  1  0.12516554  0.25085581  0.37556805  1
  Zn  Zn115  1  0.25122965  0.87666524  0.12535770  1
  Zn  Zn116  1  0.25076716  0.00101414  0.25083429  1
  Zn  Zn117  1  -0.00011038  0.62532844  0.12476789  1
  Zn  Zn118  1  0.25015072  0.62768271  0.37245401  1
  Zn  Zn119  1  0.87672024  0.37477460  0.50222489  1
  Zn  Zn120  1  0.49844191  0.74781032  0.74938475  1
  Zn  Zn121  1  0.87389157  0.24948380  0.12323741  1
  Zn  Zn122  1  0.49877113  0.00136174  -0.00057236  1
  Zn  Zn123  1  0.25073747  0.62638060  0.87307374  1
  Zn  Zn124  1  0.24891186  0.24916065  0.00231872  1
  Zn  Zn125  1  0.37492797  -0.00054237  0.87246551  1
  Zn  Zn126  1  0.37195495  0.62728521  0.25174664  1
  Zn  Zn127  1  0.75058069  0.12560781  0.87689722  1
  Zn  Zn128  1  0.18774188  0.18933525  0.18854341  1
  Zn  Zn129  1  0.18775509  0.18787966  0.68772961  1
  Zn  Zn130  1  0.18833745  0.68716588  0.18496228  1
  Zn  Zn131  1  0.18924020  0.68733479  0.68435023  1
  Zn  Zn132  1  0.68731213  0.18816450  0.18457519  1
  Zn  Zn133  1  0.68766740  0.18564887  0.68733482  1
  Zn  Zn134  1  0.68701661  0.68596938  0.18879000  1
  Zn  Zn135  1  0.68801045  0.68666508  0.68839768  1
  Zn  Zn136  1  0.31166226  0.31270442  0.31281091  1
  Zn  Zn137  1  0.31310937  0.31128993  0.81372259  1
  Zn  Zn138  1  0.31227309  0.81443986  0.31337445  1
  Zn  Zn139  1  0.31154543  0.81236738  0.81215514  1
  Zn  Zn140  1  0.81438536  0.31298026  0.31227057  1
  Zn  Zn141  1  0.81209223  0.31148744  0.81435026  1
  Zn  Zn142  1  0.81063146  0.81098919  0.31351418  1
  Zn  Zn143  1  0.81325254  0.81204742  0.81233841  1
  Zn  Zn144  1  0.18722974  0.43785790  0.43736617  1
  Zn  Zn145  1  0.18903919  0.43752629  0.93728706  1
  Zn  Zn146  1  0.18729009  0.93931057  0.43664481  1
  Zn  Zn147  1  0.18728534  0.93848189  0.93615847  1
  Zn  Zn148  1  0.68789337  0.43703512  0.43720246  1
  Zn  Zn149  1  0.68805578  0.43824248  0.93932885  1
  Zn  Zn150  1  0.68670997  0.93654352  0.43728370  1
  Zn  Zn151  1  0.68767789  0.93781576  0.93805872  1
  Zn  Zn152  1  0.31120692  0.06227695  0.06235291  1
  Zn  Zn153  1  0.31250849  0.06289602  0.56353671  1
  Zn  Zn154  1  0.31280277  0.56252313  0.06315457  1
  Zn  Zn155  1  0.31162646  0.56495431  0.56198303  1
  Zn  Zn156  1  0.81081054  0.06196671  0.06159242  1
  Zn  Zn157  1  0.81204339  0.06425054  0.56356348  1
  Zn  Zn158  1  0.81287325  0.56189622  0.06333953  1
  Zn  Zn159  1  0.81152176  0.56144663  0.56212408  1
  Zn  Zn160  1  0.43650902  0.43836678  0.18918232  1
  Zn  Zn161  1  0.44081683  0.43659520  0.68756655  1
  Zn  Zn162  1  0.43713681  0.93899150  0.18798014  1
  Zn  Zn163  1  0.43647794  0.93622207  0.68686695  1
  Zn  Zn164  1  0.93762241  0.43835880  0.18673976  1
  Zn  Zn165  1  0.93697040  0.43575596  0.68421258  1
  Zn  Zn166  1  0.93775600  0.93748343  0.18629169  1
  Zn  Zn167  1  0.93869620  0.93858985  0.68780381  1
  Zn  Zn168  1  0.06279671  0.06350697  0.31312123  1
  Zn  Zn169  1  0.06096080  0.06114953  0.81274478  1
  Zn  Zn170  1  0.06092326  0.56331820  0.31223603  1
  Zn  Zn171  1  0.06590747  0.56315132  0.81390682  1
  Zn  Zn172  1  0.56120151  0.06236753  0.31175427  1
  Zn  Zn173  1  0.56252138  0.06146548  0.81334595  1
  Zn  Zn174  1  0.56114253  0.56272503  0.31277341  1
  Zn  Zn175  1  0.56171809  0.56430731  0.80994116  1
  Zn  Zn176  1  0.43820984  0.18697384  0.43794681  1
  Zn  Zn177  1  0.43853850  0.18861892  0.93736983  1
  Zn  Zn178  1  0.43751639  0.68744863  0.44028487  1
  Zn  Zn179  1  0.43820041  0.68771541  0.93833583  1
  Zn  Zn180  1  0.93761871  0.18818041  0.43520882  1
  Zn  Zn181  1  0.93724624  0.18720844  0.93814073  1
  Zn  Zn182  1  0.93743128  0.68760369  0.43478783  1
  Zn  Zn183  1  0.93919928  0.68782234  0.93725174  1
  Zn  Zn184  1  0.06192562  0.31180926  0.06282718  1
  Zn  Zn185  1  0.06343262  0.31300660  0.56329655  1
  Zn  Zn186  1  0.06127068  0.81218637  0.06304267  1
  Zn  Zn187  1  0.06258795  0.81244635  0.56257649  1
  Zn  Zn188  1  0.56217496  0.31151595  0.06262466  1
  Zn  Zn189  1  0.56358634  0.31252212  0.56346076  1
  Zn  Zn190  1  0.56270729  0.81004588  0.06067342  1
  Zn  Zn191  1  0.56029740  0.81302259  0.56271975  1
  O  O192  1  0.12033353  0.11788554  0.12118625  1
  O  O193  1  0.11910874  0.12024392  0.61983386  1
  O  O194  1  0.12341095  0.61801491  0.11736327  1
  O  O195  1  0.11923778  0.62441089  0.61325558  1
  O  O196  1  0.61871278  0.11928376  0.11993204  1
  O  O197  1  0.62403931  0.11628040  0.61835864  1
  O  O198  1  0.61551647  0.61983413  0.12554801  1
  O  O199  1  0.62595213  0.61890266  0.61705846  1
  O  O200  1  0.37959106  0.38285780  0.38042491  1
  O  O201  1  0.38010740  0.38196790  0.88201969  1
  O  O202  1  0.38163298  0.88297885  0.37629783  1
  O  O203  1  0.38271661  0.87388813  0.88275939  1
  O  O204  1  0.88256534  0.38219546  0.37648397  1
  O  O205  1  0.88192730  0.38173619  0.87950213  1
  O  O206  1  0.87880979  0.88063945  0.38015253  1
  O  O207  1  0.88012609  0.87893713  0.87952535  1
  O  O208  1  0.25686066  0.00798212  0.37471751  1
  O  O209  1  0.25003883  0.01298868  0.87232966  1
  O  O210  1  0.25969388  0.50006878  0.37007088  1
  O  O211  1  0.26023503  0.49795497  0.86575218  1
  O  O212  1  0.75457511  0.00403647  0.36892086  1
  O  O213  1  0.75675192  -0.00098789  0.86777312  1
  O  O214  1  0.75624393  0.49999293  0.36813800  1
  O  O215  1  0.75699330  0.50528508  0.86954927  1
  O  O216  1  0.24482703  0.49468126  0.13072811  1
  O  O217  1  0.25167519  0.49370004  0.63495383  1
  O  O218  1  0.23676101  0.99877598  0.12757722  1
  O  O219  1  0.24049131  0.99800888  0.62639307  1
  O  O220  1  0.74433267  0.49477640  0.13178706  1
  O  O221  1  0.74346875  0.49853449  0.63249056  1
  O  O222  1  0.74364566  0.99270361  0.13070295  1
  O  O223  1  0.74519816  0.99362711  0.63014992  1
  O  O224  1  0.00536805  0.37094667  0.25451472  1
  O  O225  1  0.00612368  0.37084436  0.75549542  1
  O  O226  1  0.00652393  0.87124715  0.25436252  1
  O  O227  1  0.00732992  0.86938689  0.75382928  1
  O  O228  1  0.50559044  0.36981192  0.25522684  1
  O  O229  1  0.50677529  0.36850039  0.75668072  1
  O  O230  1  0.50553485  0.86959110  0.25533002  1
  O  O231  1  0.50592703  0.87215509  0.75959252  1
  O  O232  1  0.49444409  0.13058018  0.24527182  1
  O  O233  1  0.49396261  0.13135797  0.75012919  1
  O  O234  1  0.49811945  0.63150593  0.24097871  1
  O  O235  1  0.49538284  0.63068532  0.74645885  1
  O  O236  1  0.99475149  0.12969832  0.24562975  1
  O  O237  1  0.99534100  0.13017517  0.74495970  1
  O  O238  1  0.99307810  0.63282665  0.24834024  1
  O  O239  1  0.99664058  0.62912952  0.74430520  1
  O  O240  1  0.37335105  0.26385335  0.00028333  1
  O  O241  1  0.37038622  0.25533493  0.50571010  1
  O  O242  1  0.36842371  0.75795017  0.00443010  1
  O  O243  1  0.36542144  0.75132073  0.50622009  1
  O  O244  1  0.87374056  0.25899914  0.00168003  1
  O  O245  1  0.86280518  0.24887977  0.49894061  1
  O  O246  1  0.86910979  0.75477936  0.00502147  1
  O  O247  1  0.86999193  0.75549727  0.50493247  1
  O  O248  1  0.13258899  0.24367188  0.49974281  1
  O  O249  1  0.12537286  0.24341391  0.99264584  1
  O  O250  1  0.13129441  0.74289682  0.49867749  1
  O  O251  1  0.13462293  0.74616658  1.00084296  1
  O  O252  1  0.63209507  0.24407830  0.49348074  1
  O  O253  1  0.62484510  0.24242437  0.99395328  1
  O  O254  1  0.62947151  0.74290607  0.49704865  1
  O  O255  1  0.63287692  0.74780060  0.99268749  1
  O  O256  1  0.49802349  0.24331415  0.13249402  1
  O  O257  1  0.49492271  0.24837384  0.63209177  1
  O  O258  1  0.49621364  0.74287144  0.13058231  1
  O  O259  1  0.48756646  0.75044916  0.62545127  1
  O  O260  1  0.99859932  0.24297911  0.13233323  1
  O  O261  1  0.99986125  0.24338250  0.63203854  1
  O  O262  1  0.99129970  0.74950990  0.13142402  1
  O  O263  1  0.99391839  0.74416018  0.62939310  1
  O  O264  1  0.00192195  0.25684439  0.36809015  1
  O  O265  1  0.00569645  0.25587854  0.86899416  1
  O  O266  1  0.00065454  0.75860258  0.36765843  1
  O  O267  1  0.00166962  0.75614826  0.86712668  1
  O  O268  1  0.50558804  0.25533112  0.36957678  1
  O  O269  1  0.50620047  0.25633929  0.86936890  1
  O  O270  1  0.50411817  0.75511163  0.37046705  1
  O  O271  1  0.50559698  0.76038843  0.87547760  1
  O  O272  1  0.24486085  0.13119738  0.49580196  1
  O  O273  1  0.24399380  0.12651493  0.99051524  1
  O  O274  1  0.24008811  0.63402423  0.49868152  1
  O  O275  1  0.24595953  0.63437294  1.00018753  1
  O  O276  1  0.74479738  0.13095453  0.49286522  1
  O  O277  1  0.73938157  0.12672799  0.99860114  1
  O  O278  1  0.73936196  0.63126395  0.49956001  1
  O  O279  1  0.75048539  0.63076710  0.99289746  1
  O  O280  1  0.25899330  0.37451390  0.00519755  1
  O  O281  1  0.25571296  0.37030070  0.50606351  1
  O  O282  1  0.25860835  0.86721522  -0.00059109  1
  O  O283  1  0.24828158  0.86433886  0.50084731  1
  O  O284  1  0.75747653  0.37555747  0.00684398  1
  O  O285  1  0.74994657  0.36159648  0.49906099  1
  O  O286  1  0.75509870  0.86805483  0.00575518  1
  O  O287  1  0.75537100  0.87029515  0.50571289  1
  O  O288  1  0.12945422  0.49547343  0.24464771  1
  O  O289  1  0.13628184  0.49391428  0.74990819  1
  O  O290  1  0.12420059  0.99237003  0.24190557  1
  O  O291  1  0.12308902  0.99072016  0.74362653  1
  O  O292  1  0.62992631  0.49407240  0.24605312  1
  O  O293  1  0.63158015  0.49458324  0.74572941  1
  O  O294  1  0.63007770  0.99372863  0.24469553  1
  O  O295  1  0.63047818  0.99328919  0.74492431  1
  O  O296  1  0.37356607  0.00730599  0.25702802  1
  O  O297  1  0.37228748  0.00723696  0.75233569  1
  O  O298  1  0.36875083  0.50018094  0.26054463  1
  O  O299  1  0.36734067  0.49656939  0.75874273  1
  O  O300  1  0.86894452  0.00407391  0.25491520  1
  O  O301  1  0.87018021  0.00421456  0.75499299  1
  O  O302  1  0.87020470  0.50568898  0.25512255  1
  O  O303  1  0.87175350  0.50544882  0.75514260  1
  O  O304  1  0.11851157  0.37515937  0.36771881  1
  O  O305  1  0.12056029  0.36979930  0.86984178  1
  O  O306  1  0.11778420  0.87674006  0.36439797  1
  O  O307  1  0.11892564  0.87400425  0.86532245  1
  O  O308  1  0.61946869  0.36971869  0.36895741  1
  O  O309  1  0.61985169  0.37070182  0.87043911  1
  O  O310  1  0.61887467  0.86913821  0.36959022  1
  O  O311  1  0.61834923  0.86973062  0.87097801  1
  O  O312  1  0.38016407  0.12575576  0.13082154  1
  O  O313  1  0.37662770  0.13254441  0.63215078  1
  O  O314  1  0.38431803  0.63061436  0.12693407  1
  O  O315  1  0.37642650  0.63659252  0.62424009  1
  O  O316  1  0.88096711  0.12352101  0.13144324  1
  O  O317  1  0.88195976  0.12613910  0.63212909  1
  O  O318  1  0.87569619  0.63176026  0.13213328  1
  O  O319  1  0.88023325  0.63052339  0.63001153  1
  O  O320  1  0.25232351  0.25894342  0.12237321  1
  O  O321  1  0.25694119  0.25565317  0.62044327  1
  O  O322  1  0.25633943  0.75285698  0.11411538  1
  O  O323  1  0.25660800  0.75170494  0.61417496  1
  O  O324  1  0.75245969  0.25916716  0.12317654  1
  O  O325  1  0.74981045  0.24877521  0.61206650  1
  O  O326  1  0.75403591  0.75484223  0.12043048  1
  O  O327  1  0.75645417  0.75578295  0.62019917  1
  O  O328  1  0.24934295  0.24432223  0.38318987  1
  O  O329  1  0.24355306  0.23976201  0.87568529  1
  O  O330  1  0.24802649  0.74852260  0.38540497  1
  O  O331  1  0.25014717  0.74803078  0.88789303  1
  O  O332  1  0.74430507  0.24402232  0.38037660  1
  O  O333  1  0.74107384  0.24701124  0.87828750  1
  O  O334  1  0.74188135  0.74929737  0.38274929  1
  O  O335  1  0.74651711  0.74431051  0.87952171  1
  O  O336  1  0.00655533  0.12226034  0.00661833  1
  O  O337  1  0.00454800  0.12015800  0.50434457  1
  O  O338  1  0.00729357  0.61870397  0.00069917  1
  O  O339  1  0.00702545  0.62190815  0.50377867  1
  O  O340  1  0.50576702  0.12305785  0.00625418  1
  O  O341  1  0.50773082  0.11845004  0.50110786  1
  O  O342  1  0.50134342  0.62413770  0.01343374  1
  O  O343  1  0.51339794  0.62388769  0.50303060  1
  O  O344  1  0.49415235  0.37510219  0.49307256  1
  O  O345  1  0.49080618  0.37735140  0.99514646  1
  O  O346  1  0.49942473  0.88207171  0.49199413  1
  O  O347  1  0.49101049  0.87347236  0.99211118  1
  O  O348  1  1.00114098  0.38189325  0.49331756  1
  O  O349  1  0.99616417  0.38134552  0.99355528  1
  O  O350  1  0.99406220  0.88084609  0.49492111  1
  O  O351  1  0.99283926  0.87484139  0.99340651  1
  O  O352  1  0.49014689  0.49361604  0.37627413  1
  O  O353  1  0.49081221  0.49403865  0.87510878  1
  O  O354  1  0.49541613  0.99527065  0.38011977  1
  O  O355  1  0.49917222  0.98566545  0.87767753  1
  O  O356  1  0.99443894  0.49509912  0.37987252  1
  O  O357  1  0.99600805  0.49457637  0.87926554  1
  O  O358  1  0.99316562  0.99533218  0.38029920  1
  O  O359  1  0.99261008  0.99202400  0.87656578  1
  O  O360  1  0.01024187  0.00589979  0.12457099  1
  O  O361  1  0.00459357  0.00634842  0.61849773  1
  O  O362  1  0.00752480  0.50124647  0.11740859  1
  O  O363  1  0.00247256  0.50725850  0.61822489  1
  O  O364  1  0.50669270  0.00633475  0.12397647  1
  O  O365  1  0.50772925  -0.00051875  0.61844546  1
  O  O366  1  0.50473463  0.50929312  0.12695328  1
  O  O367  1  0.50998688  0.50163327  0.62295379  1
  O  O368  1  0.24434221  0.38106468  0.24483822  1
  O  O369  1  0.24639419  0.38141365  0.74596606  1
  O  O370  1  0.23789816  0.87742662  0.24781355  1
  O  O371  1  0.23677789  0.87698173  0.74986516  1
  O  O372  1  0.74421846  0.38051620  0.24508364  1
  O  O373  1  0.74399963  0.38145253  0.75077776  1
  O  O374  1  0.74400434  0.87953900  0.24481507  1
  O  O375  1  0.74584777  0.87984552  0.74410906  1
  O  O376  1  0.25580909  0.12487179  0.25759707  1
  O  O377  1  0.25524689  0.12548350  0.75935266  1
  O  O378  1  0.25142909  0.61828251  0.25249747  1
  O  O379  1  0.25229125  0.61267788  0.75057881  1
  O  O380  1  0.75409194  0.11867177  0.25424217  1
  O  O381  1  0.75628414  0.11704006  0.75191281  1
  O  O382  1  0.75558420  0.61808986  0.25243381  1
  O  O383  1  0.75775339  0.61944287  0.75546578  1
  O  O384  1  0.37020245  0.12052659  0.37022264  1
  O  O385  1  0.36618332  0.12524795  0.87082932  1
  O  O386  1  0.37449620  0.61317717  0.37486870  1
  O  O387  1  0.37380958  0.61232878  0.87522858  1
  O  O388  1  0.86921393  0.11811495  0.36857346  1
  O  O389  1  0.87464173  0.11694433  0.86897186  1
  O  O390  1  0.87232472  0.61858535  0.36849747  1
  O  O391  1  0.87141374  0.61975451  0.86853623  1
  O  O392  1  0.13000616  0.38157370  0.12991243  1
  O  O393  1  0.13330436  0.37705780  0.63212692  1
  O  O394  1  0.12367762  0.88401192  0.13295362  1
  O  O395  1  0.12295992  0.88107077  0.63429554  1
  O  O396  1  0.62913428  0.38043414  0.13110522  1
  O  O397  1  0.62821445  0.38134925  0.63231090  1
  O  O398  1  0.62935379  0.87829358  0.13039033  1
  O  O399  1  0.63131104  0.87923226  0.63004971  1
  O  O400  1  0.11799781  0.25780273  0.25196840  1
  O  O401  1  0.11936604  0.25546076  0.75581060  1
  O  O402  1  0.11935490  0.76042656  0.24825283  1
  O  O403  1  0.12028621  0.75885175  0.74906766  1
  O  O404  1  0.61960440  0.25523320  0.25554555  1
  O  O405  1  0.62080522  0.25447890  0.75535735  1
  O  O406  1  0.61943678  0.75520113  0.25631028  1
  O  O407  1  0.62616402  0.75760010  0.75668801  1
  O  O408  1  0.38203975  0.24435663  0.24992611  1
  O  O409  1  0.38157913  0.24584031  0.74558476  1
  O  O410  1  0.38092659  0.75065815  0.24396539  1
  O  O411  1  0.37181792  0.74859525  0.73865172  1
  O  O412  1  0.88152066  0.24224893  0.24858015  1
  O  O413  1  0.88206878  0.24296531  0.75073281  1
  O  O414  1  0.87817504  0.74608040  0.24500832  1
  O  O415  1  0.88094391  0.74418602  0.74390218  1
  O  O416  1  0.37502339  0.49397496  0.49179887  1
  O  O417  1  0.37492298  0.49069839  0.99098852  1
  O  O418  1  0.38191928  1.00001827  0.49416059  1
  O  O419  1  0.37530444  0.98713055  0.99752524  1
  O  O420  1  0.88162209  0.50026404  0.49307082  1
  O  O421  1  0.88177374  0.49562593  0.99346370  1
  O  O422  1  0.87910555  0.99503650  0.49438560  1
  O  O423  1  0.87507163  0.99143432  0.99440900  1
  O  O424  1  0.12314095  0.00461911  0.00978471  1
  O  O425  1  0.11793301  0.00580645  0.50483598  1
  O  O426  1  0.12154348  0.50457154  0.00436494  1
  O  O427  1  0.12034108  0.51070886  0.50075620  1
  O  O428  1  0.62288562  0.00576910  0.00679178  1
  O  O429  1  0.62105917  0.00427180  0.50467909  1
  O  O430  1  0.62212670  0.50255119  0.00900042  1
  O  O431  1  0.62578518  0.50814572  0.50572579  1
  O  O432  1  0.36973471  0.37679410  0.11601073  1
  O  O433  1  0.37116506  0.36932749  0.62034260  1
  O  O434  1  0.37528943  0.86983514  0.11530242  1
  O  O435  1  0.37085958  0.86532551  0.62184494  1
  O  O436  1  0.86898023  0.37559572  0.11850205  1
  O  O437  1  0.87048539  0.36956178  0.62014532  1
  O  O438  1  0.86840320  0.86958051  0.12031271  1
  O  O439  1  0.87066308  0.87015062  0.61941667  1
  O  O440  1  0.13101847  0.12622503  0.38259993  1
  O  O441  1  0.13104880  0.12902642  0.87882230  1
  O  O442  1  0.12511451  0.62820472  0.38635841  1
  O  O443  1  0.13032010  0.62816768  0.88353942  1
  O  O444  1  0.63064094  0.12974676  0.37908152  1
  O  O445  1  0.62454044  0.13020632  0.88263983  1
  O  O446  1  0.62515972  0.63014931  0.38468387  1
  O  O447  1  0.63260002  0.63059171  0.87570916  1
