# generated using pymatgen
data_V3Zn3O8
_symmetry_space_group_name_H-M   'P 1'
_cell_length_a   17.08634590
_cell_length_b   17.08566825
_cell_length_c   17.08718514
_cell_angle_alpha   89.99567661
_cell_angle_beta   89.99642570
_cell_angle_gamma   89.99343959
_symmetry_Int_Tables_number   1
_chemical_formula_structural   V3Zn3O8
_chemical_formula_sum   'V96 Zn96 O256'
_cell_volume   4988.28988563
_cell_formula_units_Z   32
loop_
 _symmetry_equiv_pos_site_id
 _symmetry_equiv_pos_as_xyz
  1  'x, y, z'
loop_
 _atom_site_type_symbol
 _atom_site_label
 _atom_site_symmetry_multiplicity
 _atom_site_fract_x
 _atom_site_fract_y
 _atom_site_fract_z
 _atom_site_occupancy
  V  V0  1  0.62397271  0.62573258  0.00219407  1
  V  V1  1  0.75074113  0.87498158  0.12546813  1
  V  V2  1  0.37545096  0.75006484  0.62597302  1
  V  V3  1  0.37515586  0.12547743  0.25082443  1
  V  V4  1  0.62461841  0.74992065  0.87654944  1
  V  V5  1  0.49985292  0.37478523  0.37640983  1
  V  V6  1  0.24806085  0.37507095  0.62521962  1
  V  V7  1  0.25137327  0.12533643  0.87387597  1
  V  V8  1  0.50053740  0.24981199  0.75015685  1
  V  V9  1  0.24960542  0.50016000  0.25051330  1
  V  V10  1  0.75028174  0.75060779  0.00129078  1
  V  V11  1  0.25028263  0.50114563  0.75122237  1
  V  V12  1  0.87448335  0.62452386  0.75082502  1
  V  V13  1  0.12550856  0.00052116  0.12378356  1
  V  V14  1  0.75014502  -0.00102360  0.74877606  1
  V  V15  1  0.87436346  0.50014427  0.37526391  1
  V  V16  1  0.24974446  0.74928695  0.50051147  1
  V  V17  1  0.50130230  0.00103135  0.00043996  1
  V  V18  1  0.62359467  0.87498857  0.25091045  1
  V  V19  1  0.12499933  0.87423402  0.24959762  1
  V  V20  1  0.62464949  0.25072463  0.37457889  1
  V  V21  1  0.75019224  0.62438474  0.87597938  1
  V  V22  1  0.62572645  0.12467848  0.00166734  1
  V  V23  1  0.24866129  0.74919184  -0.00141647  1
  V  V24  1  0.87506475  0.87409994  0.49914011  1
  V  V25  1  0.12598027  0.62554173  -0.00138877  1
  V  V26  1  0.49991919  -0.00075271  0.49914450  1
  V  V27  1  0.37516041  0.87560048  0.00050889  1
  V  V28  1  0.24943276  0.87520313  0.62546992  1
  V  V29  1  0.12514349  0.12434913  -0.00067963  1
  V  V30  1  0.49934612  0.37624873  0.87540491  1
  V  V31  1  -0.00132423  0.37556406  0.37447180  1
  V  V32  1  0.50037976  0.25058890  0.25137786  1
  V  V33  1  0.87558606  0.12467561  0.24903287  1
  V  V34  1  0.00026146  0.12582003  0.62428910  1
  V  V35  1  0.74932385  0.62355805  0.37505274  1
  V  V36  1  0.00086029  0.12507588  0.12426836  1
  V  V37  1  0.12522658  0.12464730  0.49915374  1
  V  V38  1  0.87450929  0.50041715  0.87460347  1
  V  V39  1  0.25007126  0.87598487  0.12468098  1
  V  V40  1  0.62394569  0.75065580  0.37544427  1
  V  V41  1  0.49988270  0.87476085  0.87612478  1
  V  V42  1  0.75040542  0.00031757  0.25031571  1
  V  V43  1  0.37595105  0.25148652  0.12430061  1
  V  V44  1  -0.00025683  0.37384447  0.87378181  1
  V  V45  1  0.75116955  0.12500646  0.87510605  1
  V  V46  1  0.37520623  0.00087204  0.87480229  1
  V  V47  1  0.25018555  0.12497053  0.37438460  1
  V  V48  1  0.87541404  0.24928108  0.62451466  1
  V  V49  1  0.87540457  0.87435819  0.00030952  1
  V  V50  1  0.87593628  -0.00085868  0.87526618  1
  V  V51  1  0.74896258  0.37565995  0.12533124  1
  V  V52  1  0.12526275  0.75002386  0.37490235  1
  V  V53  1  0.12506499  0.24978072  0.87390532  1
  V  V54  1  0.25005066  0.25061078  0.49957714  1
  V  V55  1  -0.00110910  0.62350914  0.62414317  1
  V  V56  1  0.87422215  0.62589392  0.24920498  1
  V  V57  1  0.62409076  0.62589461  0.50017209  1
  V  V58  1  0.12417725  0.62528077  0.49955236  1
  V  V59  1  0.49939418  0.62560453  0.62642102  1
  V  V60  1  0.50019391  0.12564809  0.62552785  1
  V  V61  1  -0.00009560  0.50024483  0.49943232  1
  V  V62  1  0.49853381  0.49973745  0.00084738  1
  V  V63  1  0.00053937  0.49999299  -0.00097418  1
  V  V64  1  0.37417024  0.37536692  0.49928943  1
  V  V65  1  -0.00132151  0.62519314  0.12516023  1
  V  V66  1  -0.00001898  0.74990252  0.74988700  1
  V  V67  1  0.12448479  0.37594663  0.24884358  1
  V  V68  1  0.49954608  0.62511270  0.12550094  1
  V  V69  1  0.75040424  0.24861598  0.50035807  1
  V  V70  1  0.87432088  0.37413602  -0.00013563  1
  V  V71  1  0.49946440  0.74993847  0.75051599  1
  V  V72  1  0.12563957  -0.00071394  0.62450626  1
  V  V73  1  0.62577169  0.24994008  0.87496752  1
  V  V74  1  0.37619345  0.12493789  0.75071004  1
  V  V75  1  0.62462731  0.50001617  0.62598234  1
  V  V76  1  0.00060637  0.87476738  0.37455145  1
  V  V77  1  -0.00018230  -0.00088920  0.49929418  1
  V  V78  1  0.00060935  0.87451790  0.87453325  1
  V  V79  1  0.37467334  0.75067547  0.12545158  1
  V  V80  1  0.62493639  0.12405766  0.50075765  1
  V  V81  1  0.49810103  0.49948312  0.50070243  1
  V  V82  1  0.74903822  0.37510618  0.62566232  1
  V  V83  1  0.00049245  0.24971125  0.74899040  1
  V  V84  1  0.37573770  0.87554318  0.49972140  1
  V  V85  1  0.75111851  0.12525803  0.37415182  1
  V  V86  1  0.12433290  0.49986801  0.12473842  1
  V  V87  1  0.74998893  0.75052791  0.50104874  1
  V  V88  1  0.62590823  0.87527474  0.75134976  1
  V  V89  1  0.37443497  0.62563992  0.25165921  1
  V  V90  1  0.87392796  0.74975011  0.62444716  1
  V  V91  1  0.25138520  0.00078160  0.25010971  1
  V  V92  1  0.25155413  0.25094103  -0.00037672  1
  V  V93  1  0.12446321  0.87466558  0.74933802  1
  V  V94  1  0.12439150  0.24994665  0.37348441  1
  V  V95  1  0.00000451  0.24940730  0.24847066  1
  Zn  Zn96  1  0.12644322  0.74865558  0.87360303  1
  Zn  Zn97  1  0.37329825  0.37655682  0.00015792  1
  Zn  Zn98  1  0.74935241  0.87522307  0.62404509  1
  Zn  Zn99  1  0.25060190  0.62516782  0.87372713  1
  Zn  Zn100  1  0.87557238  -0.00077493  0.37500060  1
  Zn  Zn101  1  0.87572602  0.12407013  0.75052266  1
  Zn  Zn102  1  0.62646542  -0.00168880  0.62473695  1
  Zn  Zn103  1  0.87543320  0.37507215  0.49855889  1
  Zn  Zn104  1  0.62432458  0.00146269  0.12654183  1
  Zn  Zn105  1  0.37486545  -0.00104410  0.37414306  1
  Zn  Zn106  1  0.75194458  0.24987476  -0.00081048  1
  Zn  Zn107  1  0.00068678  0.75058999  0.24868129  1
  Zn  Zn108  1  0.37414486  0.62526647  0.75280472  1
  Zn  Zn109  1  0.37430544  0.50077482  0.37602299  1
  Zn  Zn110  1  0.74589218  0.49898983  0.25114340  1
  Zn  Zn111  1  0.24971728  0.62488643  0.37703870  1
  Zn  Zn112  1  0.50260759  0.12523580  0.12732455  1
  Zn  Zn113  1  0.24910096  0.37475574  0.12275793  1
  Zn  Zn114  1  0.37367117  0.50257244  0.87521625  1
  Zn  Zn115  1  0.87509415  0.24937830  0.12258165  1
  Zn  Zn116  1  0.00075118  -0.00089907  -0.00097320  1
  Zn  Zn117  1  0.62540127  0.37674029  0.25000453  1
  Zn  Zn118  1  0.87647826  0.75054965  0.12545680  1
  Zn  Zn119  1  0.25056756  0.00010182  0.74948215  1
  Zn  Zn120  1  0.49758077  0.87411813  0.37450776  1
  Zn  Zn121  1  0.62421995  0.49973021  0.12949163  1
  Zn  Zn122  1  0.12292546  0.49994763  0.62514826  1
  Zn  Zn123  1  0.12433280  0.37580165  0.74955502  1
  Zn  Zn124  1  0.74801603  0.49977435  0.75105468  1
  Zn  Zn125  1  0.37480576  0.24892326  0.62533415  1
  Zn  Zn126  1  0.49866060  0.75086894  0.25181339  1
  Zn  Zn127  1  0.62444136  0.37658883  0.75102677  1
  Zn  Zn128  1  0.18877329  0.18779068  0.18642836  1
  Zn  Zn129  1  0.18761189  0.18755262  0.68805330  1
  Zn  Zn130  1  0.18716894  0.68766994  0.18581091  1
  Zn  Zn131  1  0.18582248  0.68666184  0.68603481  1
  Zn  Zn132  1  0.68946424  0.19173409  0.18670186  1
  Zn  Zn133  1  0.68587816  0.18637065  0.68847483  1
  Zn  Zn134  1  0.68797158  0.68880726  0.18763312  1
  Zn  Zn135  1  0.68765463  0.68723945  0.68848777  1
  Zn  Zn136  1  0.31299779  0.31372758  0.31221005  1
  Zn  Zn137  1  0.31462659  0.31306889  0.81165364  1
  Zn  Zn138  1  0.31113572  0.81323387  0.31482947  1
  Zn  Zn139  1  0.31148183  0.81275696  0.81293133  1
  Zn  Zn140  1  0.81322560  0.31171750  0.31034245  1
  Zn  Zn141  1  0.81301796  0.31160560  0.81051944  1
  Zn  Zn142  1  0.81182053  0.81148111  0.31396693  1
  Zn  Zn143  1  0.81313031  0.81202011  0.81343226  1
  Zn  Zn144  1  0.18548497  0.43852497  0.43652592  1
  Zn  Zn145  1  0.18739454  0.43586525  0.93683331  1
  Zn  Zn146  1  0.18807686  0.93685975  0.43687081  1
  Zn  Zn147  1  0.18783628  0.93750930  0.93580911  1
  Zn  Zn148  1  0.68668696  0.43713852  0.43913506  1
  Zn  Zn149  1  0.68637300  0.43835944  0.94052046  1
  Zn  Zn150  1  0.68831113  0.93842476  0.43586004  1
  Zn  Zn151  1  0.68884631  0.93854703  0.93699838  1
  Zn  Zn152  1  0.31332206  0.06473026  0.06249965  1
  Zn  Zn153  1  0.31373579  0.06245321  0.56349334  1
  Zn  Zn154  1  0.31199178  0.56341104  0.06393033  1
  Zn  Zn155  1  0.31241343  0.56262412  0.56536693  1
  Zn  Zn156  1  0.81260074  0.06013313  0.06347954  1
  Zn  Zn157  1  0.81457877  0.06193619  0.56270259  1
  Zn  Zn158  1  0.81168040  0.56031730  0.06306185  1
  Zn  Zn159  1  0.81270275  0.56183994  0.56190446  1
  Zn  Zn160  1  0.43798975  0.43671151  0.18857878  1
  Zn  Zn161  1  0.43499521  0.43677444  0.68796407  1
  Zn  Zn162  1  0.43945906  0.94058298  0.18550886  1
  Zn  Zn163  1  0.43808754  0.93819879  0.68691458  1
  Zn  Zn164  1  0.93503576  0.43854711  0.18723539  1
  Zn  Zn165  1  0.93527573  0.43675818  0.68771194  1
  Zn  Zn166  1  0.93812650  0.93892623  0.18692933  1
  Zn  Zn167  1  0.93667679  0.93693915  0.68619318  1
  Zn  Zn168  1  0.06266515  0.06096208  0.31152745  1
  Zn  Zn169  1  0.06285004  0.06182317  0.81076893  1
  Zn  Zn170  1  0.06126527  0.56394144  0.31320119  1
  Zn  Zn171  1  0.06530857  0.56176443  0.81189712  1
  Zn  Zn172  1  0.56300647  0.06337507  0.31384418  1
  Zn  Zn173  1  0.56374156  0.06273676  0.81379627  1
  Zn  Zn174  1  0.56204797  0.55967972  0.31307952  1
  Zn  Zn175  1  0.56338924  0.56286412  0.81244351  1
  Zn  Zn176  1  0.43585913  0.18775219  0.43799906  1
  Zn  Zn177  1  0.43940834  0.18818820  0.93775950  1
  Zn  Zn178  1  0.43808797  0.68855384  0.43709284  1
  Zn  Zn179  1  0.43404923  0.68576746  0.93597493  1
  Zn  Zn180  1  0.93630558  0.18751727  0.43651139  1
  Zn  Zn181  1  0.93758836  0.18693739  0.93746329  1
  Zn  Zn182  1  0.93814483  0.68818896  0.43575680  1
  Zn  Zn183  1  0.93804411  0.68882792  0.93747075  1
  Zn  Zn184  1  0.06275831  0.31221786  0.06145093  1
  Zn  Zn185  1  0.06274204  0.31320819  0.56071143  1
  Zn  Zn186  1  0.06112368  0.81083755  0.06252635  1
  Zn  Zn187  1  0.06161623  0.81122336  0.56257057  1
  Zn  Zn188  1  0.56374595  0.31168200  0.06278206  1
  Zn  Zn189  1  0.56288446  0.31178187  0.56281825  1
  Zn  Zn190  1  0.56185948  0.81207550  0.06573351  1
  Zn  Zn191  1  0.56379869  0.81411080  0.56501847  1
  O  O192  1  0.12126866  0.11986905  0.11942333  1
  O  O193  1  0.12054713  0.11998054  0.61805119  1
  O  O194  1  0.11872042  0.61849470  0.11984150  1
  O  O195  1  0.11555230  0.62441473  0.61689984  1
  O  O196  1  0.62561492  0.12563293  0.11289326  1
  O  O197  1  0.61831710  0.12208215  0.61820154  1
  O  O198  1  0.61772783  0.62560646  0.11906569  1
  O  O199  1  0.61941629  0.62090979  0.61926221  1
  O  O200  1  0.38134164  0.37674180  0.38166191  1
  O  O201  1  0.38914727  0.37616757  0.87790718  1
  O  O202  1  0.37716515  0.87808636  0.38329376  1
  O  O203  1  0.38079023  0.88044642  0.88138841  1
  O  O204  1  0.88125405  0.38141761  0.37511555  1
  O  O205  1  0.87980765  0.38046202  0.87968246  1
  O  O206  1  0.88219343  0.87518076  0.38124325  1
  O  O207  1  0.88061831  0.87963383  0.88037708  1
  O  O208  1  0.24999648  0.00721648  0.36794857  1
  O  O209  1  0.25778386  0.00719463  0.87356752  1
  O  O210  1  0.25023120  0.50241947  0.36187356  1
  O  O211  1  0.25137567  0.49771191  0.86324665  1
  O  O212  1  0.75203831  0.00822527  0.36839988  1
  O  O213  1  0.75566365  0.00426794  0.86654512  1
  O  O214  1  0.75611795  0.50661273  0.37658935  1
  O  O215  1  0.75589490  0.50668959  0.87546954  1
  O  O216  1  0.24391576  0.49861801  0.13539042  1
  O  O217  1  0.24791178  0.49050872  0.63188336  1
  O  O218  1  0.24565460  0.99540830  0.13018093  1
  O  O219  1  0.24319801  0.99331043  0.62511745  1
  O  O220  1  0.74746371  0.48859764  0.12566898  1
  O  O221  1  0.74452318  0.49058462  0.62409666  1
  O  O222  1  0.74637666  0.99258230  0.13256547  1
  O  O223  1  0.74996672  0.99900843  0.63737450  1
  O  O224  1  0.00509358  0.37043409  0.25470373  1
  O  O225  1  0.00061515  0.36813053  0.75575183  1
  O  O226  1  0.00750883  0.87457112  0.25575926  1
  O  O227  1  0.00449600  0.86902803  0.75378055  1
  O  O228  1  0.50005696  0.36786775  0.25844979  1
  O  O229  1  0.50111077  0.37000612  0.75928145  1
  O  O230  1  0.51139947  0.87543014  0.25099702  1
  O  O231  1  0.50563684  0.87015191  0.75670862  1
  O  O232  1  0.49378649  0.13207290  0.25047504  1
  O  O233  1  0.49614874  0.12959443  0.74625509  1
  O  O234  1  0.48825285  0.62403100  0.24494696  1
  O  O235  1  0.50018539  0.63288566  0.74378778  1
  O  O236  1  0.99635970  0.12971341  0.24453546  1
  O  O237  1  0.99950179  0.13127410  0.74161887  1
  O  O238  1  0.99040656  0.62515632  0.24428151  1
  O  O239  1  0.99407256  0.62949577  0.74461187  1
  O  O240  1  0.37111206  0.24905732  0.00937652  1
  O  O241  1  0.36687308  0.25662661  0.50160663  1
  O  O242  1  0.36983872  0.75657237  0.00619917  1
  O  O243  1  0.37019316  0.75535001  0.50622801  1
  O  O244  1  0.87400078  0.25960748  0.00075962  1
  O  O245  1  0.86800966  0.25113999  0.50626884  1
  O  O246  1  0.86721051  0.75621062  0.00063957  1
  O  O247  1  0.86962127  0.75391253  0.50476656  1
  O  O248  1  0.12982094  0.24400645  0.49277953  1
  O  O249  1  0.13119978  0.24383952  0.99397242  1
  O  O250  1  0.13024391  0.74514995  0.49515695  1
  O  O251  1  0.13154012  0.74334946  1.00007530  1
  O  O252  1  0.63049314  0.24293345  0.49473609  1
  O  O253  1  0.62543690  0.23953278  0.99310694  1
  O  O254  1  0.62986202  0.74509802  0.49606952  1
  O  O255  1  0.62962923  0.74576336  0.99536100  1
  O  O256  1  0.49160125  0.24840233  0.13097900  1
  O  O257  1  0.49891500  0.24382871  0.63192630  1
  O  O258  1  0.49191961  0.74335571  0.12817324  1
  O  O259  1  0.49556641  0.74535215  0.63072228  1
  O  O260  1  1.00039222  0.24303403  0.13165083  1
  O  O261  1  0.99595460  0.24557544  0.62818896  1
  O  O262  1  0.99663732  0.74116665  0.12837707  1
  O  O263  1  0.99292097  0.74361370  0.62979242  1
  O  O264  1  0.00573589  0.25480091  0.36881388  1
  O  O265  1  0.00523657  0.25402425  0.86880555  1
  O  O266  1  0.00775994  0.75719376  0.37312862  1
  O  O267  1  0.00118922  0.75663827  0.86700328  1
  O  O268  1  0.50496224  0.25499644  0.37160604  1
  O  O269  1  0.50558683  0.25808754  0.87105699  1
  O  O270  1  0.50841230  0.75317583  0.37216591  1
  O  O271  1  0.50526577  0.75578693  0.87135247  1
  O  O272  1  0.24451283  0.13040467  0.49499192  1
  O  O273  1  0.24514066  0.13104511  0.99340706  1
  O  O274  1  0.24346832  0.63136846  0.50039639  1
  O  O275  1  0.24306752  0.63137822  1.00168233  1
  O  O276  1  0.74506654  0.12886095  0.49507476  1
  O  O277  1  0.74132094  0.12408673  0.99378595  1
  O  O278  1  0.74363792  0.63064342  0.49514844  1
  O  O279  1  0.74430088  0.63026910  0.99568015  1
  O  O280  1  0.25357859  0.36736747  0.00232931  1
  O  O281  1  0.25313346  0.37120700  0.50580010  1
  O  O282  1  0.25602466  0.87077022  0.00579233  1
  O  O283  1  0.25496302  0.86938173  0.50615414  1
  O  O284  1  0.75677518  0.37458910  0.00699526  1
  O  O285  1  0.75046149  0.36772060  0.51077465  1
  O  O286  1  0.75453756  0.87011975  0.00482760  1
  O  O287  1  0.75616330  0.86834333  0.50007763  1
  O  O288  1  0.13149398  0.49676501  0.24517471  1
  O  O289  1  0.13483111  0.49583924  0.74615094  1
  O  O290  1  0.13207249  0.99446378  0.24365660  1
  O  O291  1  0.12656403  0.99304021  0.74150142  1
  O  O292  1  0.62759678  0.49540165  0.24726676  1
  O  O293  1  0.62803514  0.49803745  0.74179867  1
  O  O294  1  0.63087865  0.99114490  0.25075548  1
  O  O295  1  0.63511130  0.99406809  0.75213192  1
  O  O296  1  0.36889324  0.00699334  0.25016895  1
  O  O297  1  0.37516186  0.00635863  0.75745714  1
  O  O298  1  0.36616959  0.50854119  0.24910617  1
  O  O299  1  0.36317632  0.50152697  0.75041758  1
  O  O300  1  0.86841129  0.00662233  0.25226114  1
  O  O301  1  0.86539005  -0.00059993  0.75563383  1
  O  O302  1  0.87351808  0.51151599  0.25671630  1
  O  O303  1  0.87242589  0.50701355  0.75703358  1
  O  O304  1  0.11868227  0.36936499  0.36825763  1
  O  O305  1  0.11657416  0.36667554  0.87459222  1
  O  O306  1  0.12060286  0.86979523  0.36932780  1
  O  O307  1  0.11851982  0.87427187  0.86742674  1
  O  O308  1  0.61804040  0.36715865  0.37684624  1
  O  O309  1  0.61472341  0.36978926  0.87575140  1
  O  O310  1  0.62564756  0.86940483  0.36513267  1
  O  O311  1  0.61919241  0.86899553  0.87158000  1
  O  O312  1  0.37622725  0.13615917  0.13138810  1
  O  O313  1  0.38198843  0.12649969  0.63217752  1
  O  O314  1  0.37910835  0.63092199  0.13360686  1
  O  O315  1  0.38249759  0.63310303  0.62680211  1
  O  O316  1  0.88228621  0.12537448  0.13062980  1
  O  O317  1  0.88290073  0.13138623  0.62624358  1
  O  O318  1  0.87942035  0.62390448  0.13399805  1
  O  O319  1  0.87950438  0.63004335  0.63051259  1
  O  O320  1  0.25919564  0.25065699  0.11938757  1
  O  O321  1  0.25034742  0.25857053  0.61854599  1
  O  O322  1  0.25542136  0.75693013  0.11902100  1
  O  O323  1  0.25537886  0.75589896  0.61967105  1
  O  O324  1  0.75407751  0.26148432  0.12064208  1
  O  O325  1  0.75376746  0.25612032  0.62060906  1
  O  O326  1  0.75247769  0.75689580  0.11813999  1
  O  O327  1  0.75653613  0.75003421  0.61863700  1
  O  O328  1  0.24328196  0.24543367  0.37922809  1
  O  O329  1  0.24592859  0.24501524  0.87971622  1
  O  O330  1  0.24284771  0.74874615  0.38334373  1
  O  O331  1  0.24736964  0.74944663  0.88404053  1
  O  O332  1  0.74515734  0.24492832  0.38049129  1
  O  O333  1  0.74369421  0.24358255  0.87516060  1
  O  O334  1  0.74387210  0.74298239  0.38187069  1
  O  O335  1  0.74398233  0.74435307  0.88135622  1
  O  O336  1  0.00798642  0.12331693  0.00562706  1
  O  O337  1  0.00643495  0.12013405  0.50399978  1
  O  O338  1  0.00463870  0.61890677  0.00471865  1
  O  O339  1  0.00408348  0.62007363  0.50474437  1
  O  O340  1  0.51096638  0.11936826  -0.00142278  1
  O  O341  1  0.50428069  0.11832576  0.50475152  1
  O  O342  1  0.50383096  0.61836018  0.00489782  1
  O  O343  1  0.50487394  0.62009916  0.50635635  1
  O  O344  1  0.49380628  0.37947977  0.49683866  1
  O  O345  1  0.49997545  0.38320977  0.99274570  1
  O  O346  1  0.49543071  0.88440188  0.50123969  1
  O  O347  1  0.49483299  0.88006021  0.99564604  1
  O  O348  1  0.99916648  0.38109145  0.49184198  1
  O  O349  1  0.99461413  0.38066268  0.99397136  1
  O  O350  1  0.99526992  0.87977518  0.49461597  1
  O  O351  1  0.99384414  0.87592585  0.99335047  1
  O  O352  1  0.49780834  0.49310851  0.38407958  1
  O  O353  1  0.50062090  0.49258973  0.88349102  1
  O  O354  1  0.49842874  0.99960416  0.38875106  1
  O  O355  1  0.49484462  0.99377710  0.88038368  1
  O  O356  1  0.99432483  0.49477377  0.37961781  1
  O  O357  1  0.99459966  0.49413107  0.87970682  1
  O  O358  1  1.00033956  0.99302448  0.38208350  1
  O  O359  1  0.99371305  0.99289575  0.87483315  1
  O  O360  1  0.00856230  0.00707206  0.12311650  1
  O  O361  1  0.00559886  0.00541234  0.61873318  1
  O  O362  1  0.00494583  0.50511025  0.11854147  1
  O  O363  1  -0.00085468  0.50556541  0.61817281  1
  O  O364  1  0.50419874  0.00519075  0.11610329  1
  O  O365  1  0.50181927  0.00613516  0.61472624  1
  O  O366  1  0.50005110  0.50523467  0.11607431  1
  O  O367  1  0.50456778  0.50494157  0.62014954  1
  O  O368  1  0.24369613  0.38464530  0.24878949  1
  O  O369  1  0.24980874  0.38070321  0.74065608  1
  O  O370  1  0.24529702  0.88092494  0.24377503  1
  O  O371  1  0.24343735  0.87652362  0.74261698  1
  O  O372  1  0.75019808  0.37636803  0.23891826  1
  O  O373  1  0.74764267  0.37594000  0.73700699  1
  O  O374  1  0.74285705  0.87937720  0.24648478  1
  O  O375  1  0.74483738  0.88393828  0.75188209  1
  O  O376  1  0.25467770  0.12030923  0.25516048  1
  O  O377  1  0.25735236  0.12392928  0.75627518  1
  O  O378  1  0.25802084  0.61677019  0.24902844  1
  O  O379  1  0.24992022  0.61337267  0.74781676  1
  O  O380  1  0.75491515  0.12093794  0.25424479  1
  O  O381  1  0.75011187  0.11439422  0.75615017  1
  O  O382  1  0.75817807  0.62422605  0.25623092  1
  O  O383  1  0.75660947  0.62484183  0.75828513  1
  O  O384  1  0.36687054  0.12431857  0.36854375  1
  O  O385  1  0.37116476  0.12013413  0.87060778  1
  O  O386  1  0.37237889  0.62394113  0.36356219  1
  O  O387  1  0.36952772  0.62082429  0.87050752  1
  O  O388  1  0.86868967  0.12358608  0.36759362  1
  O  O389  1  0.86903793  0.11764823  0.87354416  1
  O  O390  1  0.86999370  0.62052097  0.36786059  1
  O  O391  1  0.86990539  0.61983143  0.87074588  1
  O  O392  1  0.12523479  0.38210659  0.13160201  1
  O  O393  1  0.13723809  0.37615409  0.62447579  1
  O  O394  1  0.13084858  0.88039318  0.12947028  1
  O  O395  1  0.12956653  0.87981264  0.62901805  1
  O  O396  1  0.63602167  0.37551866  0.12509650  1
  O  O397  1  0.63408318  0.38037011  0.62522751  1
  O  O398  1  0.63118721  0.87507729  0.13581985  1
  O  O399  1  0.62939385  0.87800715  0.63520249  1
  O  O400  1  0.12054766  0.25559496  0.25460435  1
  O  O401  1  0.11870536  0.25167472  0.75645093  1
  O  O402  1  0.12582716  0.75702012  0.25596080  1
  O  O403  1  0.11718533  0.75675404  0.74911548  1
  O  O404  1  0.61802440  0.25129695  0.25757801  1
  O  O405  1  0.61783426  0.25104967  0.75786800  1
  O  O406  1  0.62476231  0.75968752  0.25618530  1
  O  O407  1  0.61967183  0.75491711  0.75740564  1
  O  O408  1  0.37897556  0.24525049  0.24293403  1
  O  O409  1  0.38311653  0.24234958  0.74940179  1
  O  O410  1  0.37274160  0.74090948  0.24445149  1
  O  O411  1  0.38232154  0.75157403  0.74310465  1
  O  O412  1  0.88339735  0.24235385  0.24779433  1
  O  O413  1  0.88233894  0.24684073  0.74260427  1
  O  O414  1  0.87609158  0.73666073  0.25022418  1
  O  O415  1  0.88010926  0.74437392  0.74476381  1
  O  O416  1  0.38035145  0.49413909  0.49908566  1
  O  O417  1  0.38724469  0.49899783  1.00058260  1
  O  O418  1  0.38424827  0.99481770  0.49954726  1
  O  O419  1  0.38057443  0.99549328  0.99487495  1
  O  O420  1  0.88222426  0.49939162  0.49257708  1
  O  O421  1  0.88170237  0.49468243  0.99350889  1
  O  O422  1  0.88221643  0.99289804  0.49850309  1
  O  O423  1  0.87599473  0.99192573  0.99258246  1
  O  O424  1  0.12551578  0.00671225  0.00631335  1
  O  O425  1  0.11984752  0.00518426  0.50506823  1
  O  O426  1  0.11967796  0.50467029  0.00549919  1
  O  O427  1  0.11764815  0.50733917  0.50013247  1
  O  O428  1  0.62028056  0.00939261  -0.00102953  1
  O  O429  1  0.61694042  0.00541742  0.50083078  1
  O  O430  1  0.61287002  0.50737275  0.00197572  1
  O  O431  1  0.61819431  0.50672378  0.50614070  1
  O  O432  1  0.37350843  0.36188738  0.12471474  1
  O  O433  1  0.36358293  0.37250536  0.61836827  1
  O  O434  1  0.36973929  0.87096144  0.11990503  1
  O  O435  1  0.36979044  0.86974007  0.61966760  1
  O  O436  1  0.86768032  0.37542835  0.11729409  1
  O  O437  1  0.86460138  0.36890309  0.62233060  1
  O  O438  1  0.86886180  0.87390028  0.11898133  1
  O  O439  1  0.87354312  0.86711049  0.61731006  1
  O  O440  1  0.13010159  0.13067321  0.37958731  1
  O  O441  1  0.13108717  0.12985281  0.87933960  1
  O  O442  1  0.12575997  0.63221892  0.38150727  1
  O  O443  1  0.12784000  0.62715919  0.88388950  1
  O  O444  1  0.63142514  0.13149501  0.38097630  1
  O  O445  1  0.63081246  0.12948975  0.88349659  1
  O  O446  1  0.62922384  0.63029068  0.38120168  1
  O  O447  1  0.62968516  0.63114289  0.88215601  1
