# generated using pymatgen
data_V3Zn3O8
_symmetry_space_group_name_H-M   'P 1'
_cell_length_a   17.09158247
_cell_length_b   17.09188322
_cell_length_c   17.09114927
_cell_angle_alpha   90.00604628
_cell_angle_beta   90.00921971
_cell_angle_gamma   89.99281251
_symmetry_Int_Tables_number   1
_chemical_formula_structural   V3Zn3O8
_chemical_formula_sum   'V96 Zn96 O256'
_cell_volume   4992.79169948
_cell_formula_units_Z   32
loop_
 _symmetry_equiv_pos_site_id
 _symmetry_equiv_pos_as_xyz
  1  'x, y, z'
loop_
 _atom_site_type_symbol
 _atom_site_label
 _atom_site_symmetry_multiplicity
 _atom_site_fract_x
 _atom_site_fract_y
 _atom_site_fract_z
 _atom_site_occupancy
  V  V0  1  0.25372114  0.50124690  0.24918696  1
  V  V1  1  0.74633204  -0.00131691  0.74899434  1
  V  V2  1  0.87371089  0.00068321  0.37632726  1
  V  V3  1  0.37565841  0.37462903  0.49877669  1
  V  V4  1  -0.00193530  0.12503793  0.12759015  1
  V  V5  1  -0.00003484  0.12448178  0.62564683  1
  V  V6  1  0.62390706  0.12384800  0.50077214  1
  V  V7  1  -0.00010446  0.62581870  0.12433693  1
  V  V8  1  0.62552736  0.62468790  0.49960895  1
  V  V9  1  0.12611871  0.50077803  0.12346984  1
  V  V10  1  0.25149786  0.37469562  0.12275142  1
  V  V11  1  0.49913014  0.00067082  0.00000780  1
  V  V12  1  0.37443341  -0.00128220  0.37490545  1
  V  V13  1  0.37761416  0.74835438  0.12479735  1
  V  V14  1  0.24971315  0.24939962  0.49874987  1
  V  V15  1  0.12543347  0.12492859  0.49995609  1
  V  V16  1  0.50065531  0.37362805  0.37567974  1
  V  V17  1  0.12484176  0.75119036  0.87450442  1
  V  V18  1  0.75183181  0.49988240  0.74922181  1
  V  V19  1  0.74932316  0.62591526  0.87760222  1
  V  V20  1  0.00031207  0.74981347  0.24984879  1
  V  V21  1  0.87493195  0.12512623  0.75130059  1
  V  V22  1  0.75013061  0.24913868  0.50114491  1
  V  V23  1  0.00145335  0.62538677  0.62399083  1
  V  V24  1  0.49951958  0.25002430  0.74978285  1
  V  V25  1  0.25090530  0.62600200  0.87301646  1
  V  V26  1  0.00119536  0.50019487  -0.00114911  1
  V  V27  1  0.37492400  0.12488228  0.24906815  1
  V  V28  1  0.62565148  0.49960815  0.62464889  1
  V  V29  1  0.24851470  0.00003648  0.25024459  1
  V  V30  1  0.87742538  0.62492141  0.74840096  1
  V  V31  1  0.87378697  0.25161064  0.12629388  1
  V  V32  1  0.87395890  0.12524051  0.25177074  1
  V  V33  1  0.37437364  0.24980086  0.12410985  1
  V  V34  1  0.50000177  0.12367759  0.62477484  1
  V  V35  1  0.87579639  0.37392546  0.00053216  1
  V  V36  1  0.12302788  0.87460194  0.25064860  1
  V  V37  1  0.37410977  0.12507242  0.75050640  1
  V  V38  1  0.50140698  0.87436164  0.87425842  1
  V  V39  1  0.49998792  0.62515711  0.62552642  1
  V  V40  1  0.49946427  0.12434746  0.12528217  1
  V  V41  1  0.00193823  0.37442905  0.87428491  1
  V  V42  1  0.62359415  0.74978139  0.37560978  1
  V  V43  1  0.12483725  -0.00022439  0.62537463  1
  V  V44  1  -0.00105771  -0.00073613  0.50089981  1
  V  V45  1  0.87645463  0.37540242  0.49923359  1
  V  V46  1  0.62506856  0.25066171  0.87548593  1
  V  V47  1  0.49911392  0.87448032  0.37504774  1
  V  V48  1  0.62442645  0.24950559  0.37563489  1
  V  V49  1  0.74975195  0.87554880  0.12386225  1
  V  V50  1  0.87427557  0.00042099  0.87669228  1
  V  V51  1  0.00046561  0.25007194  0.75093821  1
  V  V52  1  0.24970023  0.00110938  0.75050559  1
  V  V53  1  0.75070676  0.62408479  0.37472907  1
  V  V54  1  0.25049175  0.87409515  0.62399426  1
  V  V55  1  0.25016473  0.37539419  0.62457106  1
  V  V56  1  0.87413259  0.75065690  0.12441935  1
  V  V57  1  0.37588825  0.50081302  0.87495436  1
  V  V58  1  0.37472643  0.62464082  0.75022768  1
  V  V59  1  0.25240687  0.62527668  0.37421204  1
  V  V60  1  0.00013259  0.74975111  0.74904286  1
  V  V61  1  0.75073096  0.37483585  0.62504276  1
  V  V62  1  0.74891173  0.12621150  0.87694739  1
  V  V63  1  0.37537955  0.37568753  -0.00075759  1
  V  V64  1  0.12382401  0.37302173  0.25136536  1
  V  V65  1  0.12428048  0.87603006  0.74976526  1
  V  V66  1  0.12668145  0.37580107  0.74896348  1
  V  V67  1  0.62667824  0.37631401  0.24739302  1
  V  V68  1  0.37435567  0.75047551  0.62388496  1
  V  V69  1  0.50067992  0.75040191  0.75126224  1
  V  V70  1  0.50033271  0.49862250  0.49950147  1
  V  V71  1  0.00124297  0.49995445  0.49958901  1
  V  V72  1  0.49883964  -0.00044956  0.50006052  1
  V  V73  1  0.75025464  0.75019008  0.50138427  1
  V  V74  1  0.12505215  0.62606899  -0.00134304  1
  V  V75  1  -0.00249866  -0.00031127  0.00096984  1
  V  V76  1  0.87599526  0.49991008  0.37505685  1
  V  V77  1  0.24902225  0.12479312  0.37520852  1
  V  V78  1  0.24903008  0.87510700  0.12423859  1
  V  V79  1  0.62537022  0.37453076  0.75009805  1
  V  V80  1  0.62403844  0.87512264  0.24936956  1
  V  V81  1  0.62396535  0.12654082  0.00114434  1
  V  V82  1  0.87318560  0.87387873  0.50140838  1
  V  V83  1  0.49947017  0.37686625  0.87533775  1
  V  V84  1  0.87701777  0.49917669  0.87396784  1
  V  V85  1  0.37525100  0.24995313  0.62477927  1
  V  V86  1  0.74974163  0.12405412  0.37593208  1
  V  V87  1  0.37411190  0.00123327  0.87482908  1
  V  V88  1  0.87483933  0.62419445  0.25071069  1
  V  V89  1  0.12477116  0.74934629  0.37375259  1
  V  V90  1  0.12339184  0.00036259  0.12640426  1
  V  V91  1  0.12572205  0.12727283  -0.00023979  1
  V  V92  1  0.87512302  0.24976969  0.62541595  1
  V  V93  1  0.12542050  0.62448752  0.49916612  1
  V  V94  1  -0.00120574  0.87600864  0.87564436  1
  V  V95  1  0.24943288  0.75221911  -0.00035658  1
  Zn  Zn96  1  0.87355546  0.75000425  0.62550426  1
  Zn  Zn97  1  0.37452852  0.87649417  0.00035196  1
  Zn  Zn98  1  0.12726062  0.24945255  0.87556836  1
  Zn  Zn99  1  0.87264721  0.87403092  0.00001743  1
  Zn  Zn100  1  0.24935011  0.12645451  0.87510508  1
  Zn  Zn101  1  0.62690935  0.74941102  0.87543232  1
  Zn  Zn102  1  0.37368129  0.87305072  0.49868260  1
  Zn  Zn103  1  0.62803902  0.50484461  0.12226696  1
  Zn  Zn104  1  -0.00044932  0.25011750  0.25432436  1
  Zn  Zn105  1  0.12766472  0.50077224  0.62323017  1
  Zn  Zn106  1  0.74899499  0.25180348  0.00070815  1
  Zn  Zn107  1  -0.00056057  0.87440515  0.37558695  1
  Zn  Zn108  1  0.74634177  0.87237592  0.62701553  1
  Zn  Zn109  1  0.50399930  0.50232765  0.00355872  1
  Zn  Zn110  1  0.74870210  0.74990503  -0.00124642  1
  Zn  Zn111  1  0.24996862  0.25040951  -0.00286754  1
  Zn  Zn112  1  0.62555044  0.87250526  0.74777959  1
  Zn  Zn113  1  0.00103281  0.37367834  0.37587895  1
  Zn  Zn114  1  0.25064902  0.75094104  0.49920051  1
  Zn  Zn115  1  0.75107384  0.49891265  0.24800698  1
  Zn  Zn116  1  0.62348344  -0.00266317  0.62511717  1
  Zn  Zn117  1  0.62142985  0.62626173  0.00292522  1
  Zn  Zn118  1  0.37945644  0.62522363  0.24877760  1
  Zn  Zn119  1  0.50005957  0.24954934  0.25013574  1
  Zn  Zn120  1  0.12316832  0.25000878  0.37551297  1
  Zn  Zn121  1  0.74921501  0.00088621  0.25046553  1
  Zn  Zn122  1  0.74914804  0.37800437  0.12339554  1
  Zn  Zn123  1  0.62494032  0.00104956  0.12574072  1
  Zn  Zn124  1  0.49877286  0.74651423  0.24937112  1
  Zn  Zn125  1  0.25060388  0.50076920  0.74763425  1
  Zn  Zn126  1  0.50471969  0.62185141  0.12602984  1
  Zn  Zn127  1  0.37739341  0.50031552  0.37412472  1
  Zn  Zn128  1  0.18885138  0.18853972  0.18580187  1
  Zn  Zn129  1  0.18809204  0.18866793  0.68679922  1
  Zn  Zn130  1  0.18885411  0.68837646  0.18664359  1
  Zn  Zn131  1  0.18752814  0.68837008  0.68615395  1
  Zn  Zn132  1  0.68741083  0.18955463  0.18872601  1
  Zn  Zn133  1  0.68664857  0.18553609  0.68797560  1
  Zn  Zn134  1  0.68789578  0.68842013  0.18762606  1
  Zn  Zn135  1  0.68748050  0.68845322  0.68936167  1
  Zn  Zn136  1  0.31260701  0.31159711  0.31211185  1
  Zn  Zn137  1  0.31050282  0.31090411  0.81515449  1
  Zn  Zn138  1  0.31230148  0.81253279  0.30957513  1
  Zn  Zn139  1  0.31432890  0.81365730  0.81134675  1
  Zn  Zn140  1  0.81123909  0.31229602  0.31357644  1
  Zn  Zn141  1  0.81269091  0.31240803  0.81369015  1
  Zn  Zn142  1  0.81109190  0.81187264  0.31286795  1
  Zn  Zn143  1  0.81458621  0.81248349  0.81237594  1
  Zn  Zn144  1  0.18851858  0.43851580  0.43626840  1
  Zn  Zn145  1  0.19013845  0.43869054  0.93503014  1
  Zn  Zn146  1  0.18723854  0.93604649  0.43787829  1
  Zn  Zn147  1  0.18640410  0.93989237  0.93798433  1
  Zn  Zn148  1  0.68855130  0.43731004  0.43526071  1
  Zn  Zn149  1  0.68854068  0.43928769  0.94027515  1
  Zn  Zn150  1  0.68665935  0.93772135  0.43804824  1
  Zn  Zn151  1  0.68500694  0.93942267  0.93862147  1
  Zn  Zn152  1  0.31224055  0.06197195  0.06236178  1
  Zn  Zn153  1  0.31310486  0.06131091  0.56249296  1
  Zn  Zn154  1  0.31517836  0.56377170  0.05954829  1
  Zn  Zn155  1  0.31314025  0.56100295  0.56200876  1
  Zn  Zn156  1  0.81009324  0.06254605  0.06367406  1
  Zn  Zn157  1  0.81178748  0.06168037  0.56386758  1
  Zn  Zn158  1  0.81147092  0.55920817  0.06402103  1
  Zn  Zn159  1  0.81431961  0.56289621  0.56194004  1
  Zn  Zn160  1  0.44272251  0.43584655  0.18501048  1
  Zn  Zn161  1  0.43671158  0.43808694  0.68794464  1
  Zn  Zn162  1  0.43695662  0.93608492  0.18649307  1
  Zn  Zn163  1  0.43652704  0.93692337  0.68760235  1
  Zn  Zn164  1  0.93847836  0.43870103  0.18719086  1
  Zn  Zn165  1  0.94024411  0.43850359  0.68523148  1
  Zn  Zn166  1  0.93562736  0.93784362  0.18934024  1
  Zn  Zn167  1  0.93511123  0.93741032  0.68794130  1
  Zn  Zn168  1  0.06001694  0.06235186  0.31433364  1
  Zn  Zn169  1  0.06177397  0.06216842  0.81446600  1
  Zn  Zn170  1  0.06310401  0.56131610  0.31280679  1
  Zn  Zn171  1  0.06396205  0.56200080  0.81144216  1
  Zn  Zn172  1  0.56151652  0.06138366  0.31264023  1
  Zn  Zn173  1  0.56170774  0.06303098  0.81446280  1
  Zn  Zn174  1  0.56135801  0.56165312  0.30959081  1
  Zn  Zn175  1  0.56333183  0.56153065  0.81336620  1
  Zn  Zn176  1  0.43713025  0.18668567  0.43661461  1
  Zn  Zn177  1  0.43716530  0.18896366  0.93790548  1
  Zn  Zn178  1  0.43739843  0.68821094  0.43832294  1
  Zn  Zn179  1  0.43791966  0.68738061  0.94111443  1
  Zn  Zn180  1  0.93925045  0.18925978  0.43653009  1
  Zn  Zn181  1  0.93861391  0.18815275  0.93894273  1
  Zn  Zn182  1  0.93819504  0.68769659  0.43717566  1
  Zn  Zn183  1  0.93497381  0.68879832  0.93777978  1
  Zn  Zn184  1  0.06094331  0.31194217  0.06543880  1
  Zn  Zn185  1  0.06287915  0.31227576  0.56309582  1
  Zn  Zn186  1  0.06123446  0.81343358  0.06230082  1
  Zn  Zn187  1  0.06278755  0.81092549  0.56123158  1
  Zn  Zn188  1  0.55965449  0.31229814  0.06261205  1
  Zn  Zn189  1  0.56289225  0.31145893  0.56284980  1
  Zn  Zn190  1  0.56488472  0.80888925  0.05768404  1
  Zn  Zn191  1  0.56276915  0.81449780  0.56360414  1
  O  O192  1  0.11869669  0.11938528  0.11967527  1
  O  O193  1  0.11950183  0.11915612  0.62014022  1
  O  O194  1  0.12019072  0.62075615  0.11824955  1
  O  O195  1  0.11967414  0.62392174  0.61768894  1
  O  O196  1  0.61835475  0.12513113  0.11993071  1
  O  O197  1  0.61742635  0.12400736  0.61837593  1
  O  O198  1  0.62455669  0.62468623  0.12270528  1
  O  O199  1  0.61989128  0.61858936  0.61992915  1
  O  O200  1  0.38148955  0.37531728  0.38153209  1
  O  O201  1  0.37995923  0.38019779  0.87863605  1
  O  O202  1  0.38035389  0.88137706  0.37382916  1
  O  O203  1  0.38419638  0.88251426  0.87536213  1
  O  O204  1  0.87556941  0.38125185  0.38255005  1
  O  O205  1  0.88255482  0.37995947  0.87879281  1
  O  O206  1  0.87497309  0.88011016  0.38602204  1
  O  O207  1  0.88172074  0.88262861  0.87700565  1
  O  O208  1  0.25430212  0.00489012  0.36932370  1
  O  O209  1  0.25542480  0.00173903  0.86787011  1
  O  O210  1  0.25091030  0.50883743  0.36535859  1
  O  O211  1  0.25699361  0.50858601  0.87125605  1
  O  O212  1  0.75635423  0.00724544  0.37543815  1
  O  O213  1  0.75442524  0.00642026  0.86833615  1
  O  O214  1  0.75836256  0.50739875  0.37520091  1
  O  O215  1  0.75866355  0.50553649  0.86720373  1
  O  O216  1  0.24528892  0.49657585  0.13141728  1
  O  O217  1  0.24808680  0.49133072  0.62729148  1
  O  O218  1  0.24310099  0.99517913  0.13124225  1
  O  O219  1  0.24397177  0.99492266  0.63079859  1
  O  O220  1  0.74816828  0.49437892  0.13109057  1
  O  O221  1  0.74543744  0.49441585  0.62936501  1
  O  O222  1  0.74723057  0.98910529  0.12914642  1
  O  O223  1  0.74913238  1.00057043  0.63833262  1
  O  O224  1  0.01384746  0.37672733  0.25016180  1
  O  O225  1  0.00767495  0.37003845  0.75339294  1
  O  O226  1  0.00563447  0.86803663  0.25170434  1
  O  O227  1  0.00476397  0.87097590  0.75535461  1
  O  O228  1  0.50886958  0.37155436  0.25842465  1
  O  O229  1  0.50602642  0.36908642  0.75366885  1
  O  O230  1  0.50911097  0.87388445  0.25578828  1
  O  O231  1  0.49903706  0.86988447  0.75914141  1
  O  O232  1  0.49235977  0.12492871  0.24403477  1
  O  O233  1  0.49423498  0.13069101  0.74496103  1
  O  O234  1  0.49570664  0.62939140  0.24675180  1
  O  O235  1  0.49469633  0.62980663  0.74468583  1
  O  O236  1  0.99267884  0.12588898  0.24437987  1
  O  O237  1  0.99463650  0.12925249  0.74515975  1
  O  O238  1  0.99616868  0.62986766  0.24327198  1
  O  O239  1  0.99707576  0.62993934  0.74493977  1
  O  O240  1  0.37316100  0.25689635  0.00636735  1
  O  O241  1  0.36946563  0.25447636  0.50563319  1
  O  O242  1  0.36567926  0.75419998  0.00767293  1
  O  O243  1  0.37180917  0.75178434  0.50846526  1
  O  O244  1  0.87640865  0.25486587  0.01007678  1
  O  O245  1  0.86947269  0.25462526  0.50678327  1
  O  O246  1  0.87226752  0.75356595  0.00904042  1
  O  O247  1  0.86998490  0.75888634  0.49965751  1
  O  O248  1  0.13233719  0.24247116  0.50113729  1
  O  O249  1  0.12331647  0.23776150  1.00170779  1
  O  O250  1  0.12714838  0.74255874  0.49187563  1
  O  O251  1  0.12878662  0.74526466  0.99399483  1
  O  O252  1  0.63111786  0.24407728  0.49614817  1
  O  O253  1  0.62540896  0.24456398  0.99258873  1
  O  O254  1  0.62971306  0.74364323  0.49511986  1
  O  O255  1  0.63188790  0.74510568  0.99167253  1
  O  O256  1  0.49135743  0.24187415  0.12708788  1
  O  O257  1  0.49449167  0.24440457  0.63015730  1
  O  O258  1  0.48600446  0.75399870  0.12445172  1
  O  O259  1  0.49488602  0.74349668  0.63047355  1
  O  O260  1  0.98900724  0.24379783  0.12864231  1
  O  O261  1  0.99400217  0.24379019  0.63077435  1
  O  O262  1  0.99526371  0.74468623  0.13018412  1
  O  O263  1  0.99910811  0.74338292  0.63181757  1
  O  O264  1  0.00521532  0.25503967  0.37194924  1
  O  O265  1  0.00189667  0.25670707  0.86794671  1
  O  O266  1  0.00712250  0.74984932  0.36700809  1
  O  O267  1  0.00560132  0.75553893  0.86956456  1
  O  O268  1  0.50692684  0.25555789  0.37548140  1
  O  O269  1  0.50520412  0.25617380  0.86790238  1
  O  O270  1  0.50670073  0.75659265  0.37480331  1
  O  O271  1  0.49658964  0.76072198  0.86927675  1
  O  O272  1  0.24508477  0.12929904  0.49543741  1
  O  O273  1  0.23610609  0.12390940  1.00085078  1
  O  O274  1  0.24515851  0.62358452  0.48820674  1
  O  O275  1  0.24345155  0.63181624  0.99276466  1
  O  O276  1  0.74463688  0.13016575  0.49650018  1
  O  O277  1  0.74257266  0.12691524  0.99373261  1
  O  O278  1  0.74467879  0.62975311  0.49512560  1
  O  O279  1  0.75673140  0.62372740  0.98439350  1
  O  O280  1  0.25593703  0.37513601  0.00645282  1
  O  O281  1  0.25545253  0.36950037  0.50419314  1
  O  O282  1  0.24819594  0.87011267  0.00647781  1
  O  O283  1  0.25170767  0.87266411  0.50833654  1
  O  O284  1  0.76111992  0.37126392  0.00064428  1
  O  O285  1  0.75543552  0.36909994  0.50631367  1
  O  O286  1  0.75000339  0.87575371  0.01200307  1
  O  O287  1  0.75846554  0.86953754  0.49996545  1
  O  O288  1  0.13459186  0.49386518  0.24390080  1
  O  O289  1  0.12618538  0.48682280  0.74752308  1
  O  O290  1  0.12866961  0.99519866  0.24535086  1
  O  O291  1  0.12863925  0.99538861  0.74455236  1
  O  O292  1  0.62792213  0.48560119  0.25277801  1
  O  O293  1  0.63150964  0.49361162  0.74329437  1
  O  O294  1  0.62645179  0.98703031  0.24976042  1
  O  O295  1  0.63662124  1.00191829  0.75063597  1
  O  O296  1  0.36774218  0.00485351  0.25474419  1
  O  O297  1  0.36898157  0.00627274  0.75466998  1
  O  O298  1  0.36112755  0.49885886  0.24958279  1
  O  O299  1  0.37380374  0.50724099  0.75591642  1
  O  O300  1  0.87326608  0.00700589  0.25863827  1
  O  O301  1  0.86741340  0.00622310  0.75630935  1
  O  O302  1  0.87659494  0.50715238  0.25725564  1
  O  O303  1  0.87177202  0.50394707  0.75430248  1
  O  O304  1  0.12628242  0.37452469  0.36274130  1
  O  O305  1  0.12002770  0.37441169  0.86560359  1
  O  O306  1  0.12347483  0.86814476  0.36809924  1
  O  O307  1  0.11881868  0.87105746  0.86915224  1
  O  O308  1  0.62047841  0.36835639  0.37041187  1
  O  O309  1  0.62050244  0.37013992  0.86783841  1
  O  O310  1  0.62031905  0.87012032  0.36815040  1
  O  O311  1  0.61123049  0.87672064  0.87170825  1
  O  O312  1  0.37899696  0.12937346  0.12999352  1
  O  O313  1  0.38015181  0.13094137  0.63043926  1
  O  O314  1  0.37126385  0.63840279  0.12612409  1
  O  O315  1  0.38110145  0.62953240  0.62981156  1
  O  O316  1  0.87825316  0.13223470  0.13073585  1
  O  O317  1  0.88034501  0.13030817  0.63110022  1
  O  O318  1  0.88127046  0.63000169  0.13059858  1
  O  O319  1  0.88308548  0.62561204  0.63123507  1
  O  O320  1  0.25692113  0.25715294  0.12183333  1
  O  O321  1  0.25669078  0.25512390  0.61860191  1
  O  O322  1  0.25457864  0.75611044  0.11910391  1
  O  O323  1  0.25635079  0.75657008  0.62433945  1
  O  O324  1  0.76374477  0.25165881  0.12362461  1
  O  O325  1  0.75548201  0.25479595  0.62124547  1
  O  O326  1  0.75716908  0.76104767  0.12545997  1
  O  O327  1  0.75329178  0.75103994  0.61735671  1
  O  O328  1  0.24825936  0.24227065  0.38155086  1
  O  O329  1  0.24496162  0.24407790  0.87956562  1
  O  O330  1  0.24419013  0.73936873  0.37246824  1
  O  O331  1  0.24397895  0.74679729  0.87915465  1
  O  O332  1  0.74504112  0.24335922  0.38355007  1
  O  O333  1  0.74323090  0.24329933  0.87466321  1
  O  O334  1  0.74369272  0.74389143  0.38176084  1
  O  O335  1  0.75257697  0.73799802  0.87348473  1
  O  O336  1  0.00658618  0.11906923  0.00715889  1
  O  O337  1  0.00461802  0.11932319  0.50707801  1
  O  O338  1  0.00575391  0.62011265  0.00409705  1
  O  O339  1  0.00573668  0.62002335  0.50420627  1
  O  O340  1  0.50453623  0.12033572  0.00514891  1
  O  O341  1  0.50427703  0.11975975  0.50513444  1
  O  O342  1  0.50132007  0.62137878  0.00426896  1
  O  O343  1  0.50618917  0.61876262  0.50552305  1
  O  O344  1  0.49574120  0.37916784  0.49619713  1
  O  O345  1  0.49232206  0.37510272  0.99098528  1
  O  O346  1  0.49828651  0.88186404  0.49229631  1
  O  O347  1  0.49860918  0.88170637  0.98973066  1
  O  O348  1  0.99360628  0.38140953  0.50103871  1
  O  O349  1  0.99721514  0.38129028  0.99428145  1
  O  O350  1  0.99038835  0.88029930  0.49944167  1
  O  O351  1  0.99903754  0.88248661  0.99363026  1
  O  O352  1  0.49888110  0.49248679  0.38269252  1
  O  O353  1  0.49249991  0.49233755  0.87295662  1
  O  O354  1  0.49328232  0.99485343  0.38035093  1
  O  O355  1  0.49370797  0.99349509  0.87889985  1
  O  O356  1  0.99383671  0.49877286  0.38214675  1
  O  O357  1  0.99606060  0.49479031  0.87949732  1
  O  O358  1  0.99210630  0.99804678  0.38394440  1
  O  O359  1  0.99361963  0.99518532  0.88040154  1
  O  O360  1  0.00400193  0.00513410  0.12116800  1
  O  O361  1  0.00485864  0.00541960  0.62113278  1
  O  O362  1  0.00649468  0.50676471  0.11821254  1
  O  O363  1  0.00314042  0.50745336  0.61722748  1
  O  O364  1  0.50026594  0.00612471  0.11793484  1
  O  O365  1  0.49891597  0.00733462  0.61896030  1
  O  O366  1  0.50641459  0.50165627  0.12245167  1
  O  O367  1  0.50629579  0.50494304  0.61992010  1
  O  O368  1  0.24339614  0.38331468  0.24440838  1
  O  O369  1  0.24119699  0.37381990  0.74388387  1
  O  O370  1  0.24188413  0.88125263  0.24438739  1
  O  O371  1  0.24321279  0.88123101  0.74474659  1
  O  O372  1  0.73885631  0.37497244  0.25057202  1
  O  O373  1  0.74563544  0.38007546  0.74431583  1
  O  O374  1  0.74122441  0.87569140  0.24285515  1
  O  O375  1  0.75020765  0.88707284  0.75111024  1
  O  O376  1  0.25423244  0.11857031  0.25453225  1
  O  O377  1  0.25606403  0.11845256  0.74928887  1
  O  O378  1  0.24803191  0.61578970  0.25737038  1
  O  O379  1  0.25616927  0.62515630  0.75570566  1
  O  O380  1  0.75537812  0.12399037  0.25840973  1
  O  O381  1  0.75545301  0.11853308  0.75641230  1
  O  O382  1  0.75836332  0.62560280  0.25881774  1
  O  O383  1  0.75782468  0.61826363  0.75541876  1
  O  O384  1  0.36866188  0.11878487  0.36915228  1
  O  O385  1  0.37518254  0.11884571  0.86760920  1
  O  O386  1  0.36348990  0.62314362  0.37252546  1
  O  O387  1  0.36927321  0.62137912  0.86894190  1
  O  O388  1  0.86883083  0.12081529  0.37213491  1
  O  O389  1  0.87003421  0.12060845  0.87036093  1
  O  O390  1  0.87052406  0.62005662  0.37046907  1
  O  O391  1  0.87120885  0.61825993  0.86747341  1
  O  O392  1  0.13052298  0.38173405  0.13126536  1
  O  O393  1  0.13093073  0.37504231  0.63398121  1
  O  O394  1  0.12863810  0.88086758  0.13091783  1
  O  O395  1  0.12906931  0.88056661  0.63071514  1
  O  O396  1  0.62613823  0.36901778  0.13838147  1
  O  O397  1  0.63106920  0.37953759  0.63020764  1
  O  O398  1  0.63238036  0.87387997  0.13355794  1
  O  O399  1  0.62817342  0.88027655  0.62971820  1
  O  O400  1  0.12545669  0.26225419  0.24890363  1
  O  O401  1  0.11858730  0.25955476  0.74940713  1
  O  O402  1  0.11965727  0.75485575  0.25338482  1
  O  O403  1  0.11961184  0.75667760  0.75584394  1
  O  O404  1  0.62342663  0.25736259  0.25905717  1
  O  O405  1  0.61927231  0.25503094  0.75455520  1
  O  O406  1  0.62453604  0.76195512  0.25746852  1
  O  O407  1  0.61605793  0.75118837  0.75491459  1
  O  O408  1  0.37522851  0.24238655  0.24300387  1
  O  O409  1  0.38049610  0.24554880  0.74409550  1
  O  O410  1  0.37430260  0.74880352  0.23767640  1
  O  O411  1  0.38094698  0.74367055  0.74400817  1
  O  O412  1  0.87596826  0.24473740  0.24234142  1
  O  O413  1  0.88028703  0.24478561  0.74467740  1
  O  O414  1  0.88098128  0.74412533  0.24531238  1
  O  O415  1  0.88355337  0.74369817  0.74793816  1
  O  O416  1  0.38288771  0.49214986  0.49877498  1
  O  O417  1  0.37490553  0.49240891  0.99144712  1
  O  O418  1  0.38095181  0.99878924  0.49227139  1
  O  O419  1  0.38086426  0.99929257  0.99324817  1
  O  O420  1  0.88104846  0.49471903  0.49497866  1
  O  O421  1  0.88341967  0.49414481  0.99380440  1
  O  O422  1  0.87875393  0.99303087  0.49661804  1
  O  O423  1  0.88072903  1.00004570  0.99424197  1
  O  O424  1  0.11771108  0.00775006  0.00692360  1
  O  O425  1  0.11910080  0.00497945  0.50637629  1
  O  O426  1  0.12081226  0.50642851  0.00365111  1
  O  O427  1  0.11908166  0.50660445  0.49983117  1
  O  O428  1  0.61647136  0.00909432  0.00156549  1
  O  O429  1  0.61732839  0.00735204  0.50043101  1
  O  O430  1  0.62303333  0.50463803  0.00167805  1
  O  O431  1  0.62065329  0.50449293  0.50575936  1
  O  O432  1  0.37016904  0.36941289  0.11957062  1
  O  O433  1  0.37092629  0.36860614  0.61924128  1
  O  O434  1  0.36608148  0.86751983  0.12366354  1
  O  O435  1  0.36808917  0.86814063  0.62484113  1
  O  O436  1  0.87848919  0.36592053  0.12010709  1
  O  O437  1  0.86969804  0.36942660  0.62006638  1
  O  O438  1  0.86532124  0.87000528  0.12627092  1
  O  O439  1  0.87230709  0.87483529  0.61203350  1
  O  O440  1  0.13191870  0.12421746  0.38230575  1
  O  O441  1  0.12385813  0.12514760  0.88772443  1
  O  O442  1  0.13394502  0.62911471  0.37806705  1
  O  O443  1  0.12980998  0.63169498  0.87913850  1
  O  O444  1  0.62944456  0.12959128  0.38108966  1
  O  O445  1  0.62856242  0.13188424  0.88077795  1
  O  O446  1  0.63029232  0.62966304  0.38117004  1
  O  O447  1  0.64089069  0.62328585  0.87150597  1
