# generated using pymatgen
data_V3Zn3O8
_symmetry_space_group_name_H-M   'P 1'
_cell_length_a   17.08483017
_cell_length_b   17.08551636
_cell_length_c   17.08638778
_cell_angle_alpha   90.01085591
_cell_angle_beta   89.98819622
_cell_angle_gamma   90.00296196
_symmetry_Int_Tables_number   1
_chemical_formula_structural   V3Zn3O8
_chemical_formula_sum   'V96 Zn96 O256'
_cell_volume   4987.57013533
_cell_formula_units_Z   32
loop_
 _symmetry_equiv_pos_site_id
 _symmetry_equiv_pos_as_xyz
  1  'x, y, z'
loop_
 _atom_site_type_symbol
 _atom_site_label
 _atom_site_symmetry_multiplicity
 _atom_site_fract_x
 _atom_site_fract_y
 _atom_site_fract_z
 _atom_site_occupancy
  V  V0  1  0.87461711  0.87403704  0.49952066  1
  V  V1  1  0.87485090  0.12415358  0.74986122  1
  V  V2  1  0.24938893  0.62619719  0.87471058  1
  V  V3  1  0.49976227  0.62507647  0.12476510  1
  V  V4  1  0.37388879  -0.00008356  0.37271915  1
  V  V5  1  0.87583421  0.49954686  0.37545568  1
  V  V6  1  0.74901822  0.12495131  0.87532661  1
  V  V7  1  0.37474457  0.25113086  0.12506449  1
  V  V8  1  0.12677185  0.37553184  0.74970081  1
  V  V9  1  0.75173037  0.37382020  0.12475430  1
  V  V10  1  0.62432537  0.87601348  0.24836822  1
  V  V11  1  0.37369101  0.75133448  0.12266814  1
  V  V12  1  0.12448285  0.12521113  -0.00054970  1
  V  V13  1  0.74988341  0.24948344  0.00005796  1
  V  V14  1  0.49898302  0.87479122  0.37398956  1
  V  V15  1  0.62666735  0.74776176  0.37558948  1
  V  V16  1  0.62509473  0.12533324  -0.00130013  1
  V  V17  1  0.75118748  0.12436413  0.37441421  1
  V  V18  1  0.24919630  0.87557142  0.62388456  1
  V  V19  1  0.37557542  0.12487524  0.74938699  1
  V  V20  1  0.37538955  0.00089343  0.87413657  1
  V  V21  1  0.25074783  0.12422889  0.87437854  1
  V  V22  1  -0.00085583  0.24931311  0.25000118  1
  V  V23  1  0.12478295  0.87581740  0.24912921  1
  V  V24  1  0.49910043  0.00034247  -0.00110652  1
  V  V25  1  0.62449288  -0.00015304  0.12481403  1
  V  V26  1  0.49924215  0.12610314  0.12384507  1
  V  V27  1  0.12469869  -0.00022386  0.62479787  1
  V  V28  1  0.87562120  0.49893187  0.87657258  1
  V  V29  1  0.62600419  0.49959758  0.62651208  1
  V  V30  1  0.62419023  0.87423494  0.74940885  1
  V  V31  1  0.37368454  0.87444358  0.49926467  1
  V  V32  1  0.49912472  0.87608668  0.87379768  1
  V  V33  1  0.00134148  0.37551844  0.37618741  1
  V  V34  1  0.24975880  0.12483443  0.37472741  1
  V  V35  1  0.75099349  0.24981651  0.50044861  1
  V  V36  1  0.12415460  0.24918357  0.87524244  1
  V  V37  1  0.87372955  0.87405091  0.00026833  1
  V  V38  1  -0.00018403  -0.00012750  0.00005428  1
  V  V39  1  0.12478262  0.87510375  0.74964959  1
  V  V40  1  -0.00104822  0.50013292  -0.00064187  1
  V  V41  1  0.37470558  0.62579508  0.75076583  1
  V  V42  1  0.49928408  0.50047230  0.00113720  1
  V  V43  1  -0.00056928  0.74944635  0.24987000  1
  V  V44  1  0.49933726  0.74935756  0.24887951  1
  V  V45  1  0.87534820  0.62414322  0.74909354  1
  V  V46  1  0.49972266  -0.00068821  0.49828837  1
  V  V47  1  0.87483919  -0.00103006  0.87457577  1
  V  V48  1  0.74986007  0.49841856  0.75023114  1
  V  V49  1  0.25080805  0.62464773  0.37538673  1
  V  V50  1  0.00056294  0.87412302  0.87435329  1
  V  V51  1  0.24985718  0.75096941  0.49968112  1
  V  V52  1  0.12547166  -0.00048078  0.12528778  1
  V  V53  1  0.75068795  0.37444159  0.62585101  1
  V  V54  1  -0.00118738  0.87590159  0.37489510  1
  V  V55  1  0.87448054  -0.00014712  0.37443682  1
  V  V56  1  0.24963579  0.25117566  0.00119056  1
  V  V57  1  0.62552711  0.12420151  0.49932552  1
  V  V58  1  0.50021137  0.12504707  0.62436731  1
  V  V59  1  0.62511913  -0.00085381  0.62330814  1
  V  V60  1  0.00108841  0.49934221  0.50061569  1
  V  V61  1  0.37331515  0.50151921  0.87494280  1
  V  V62  1  0.75011673  0.75003873  0.00041053  1
  V  V63  1  0.75051795  0.87310988  0.62357746  1
  V  V64  1  0.25106813  0.25128723  0.50057191  1
  V  V65  1  -0.00013062  0.62394906  0.62474977  1
  V  V66  1  0.62580798  0.62550983  -0.00001251  1
  V  V67  1  0.24922132  0.00114149  0.24911014  1
  V  V68  1  0.00076629  0.12399769  0.62471331  1
  V  V69  1  0.12519554  0.12478615  0.50078935  1
  V  V70  1  0.12525533  0.62637164  -0.00063280  1
  V  V71  1  0.62510193  0.25003308  0.37477450  1
  V  V72  1  0.12739250  0.37704205  0.24995510  1
  V  V73  1  0.74953242  0.62429772  0.87585641  1
  V  V74  1  0.87476351  0.24948709  0.62519734  1
  V  V75  1  0.12490643  0.75046991  0.87492215  1
  V  V76  1  0.87576458  0.62451663  0.25066218  1
  V  V77  1  0.75088081  0.49969287  0.25084825  1
  V  V78  1  0.12462680  0.62457442  0.50122396  1
  V  V79  1  0.37370892  0.37565631  0.00072902  1
  V  V80  1  0.37601956  0.50123142  0.37585546  1
  V  V81  1  -0.00005894  0.62601207  0.12580059  1
  V  V82  1  0.87438506  0.74898554  0.62440171  1
  V  V83  1  0.50049514  0.62494938  0.62708820  1
  V  V84  1  0.12480539  0.75024473  0.37472542  1
  V  V85  1  0.74916703  0.00049981  0.24937171  1
  V  V86  1  0.50173255  0.50002421  0.50073655  1
  V  V87  1  0.75009278  -0.00083912  0.74898563  1
  V  V88  1  0.12616994  0.50080131  0.12543737  1
  V  V89  1  0.62572006  0.49987491  0.12649099  1
  V  V90  1  -0.00081419  0.12580907  0.12531749  1
  V  V91  1  0.00057217  0.24895275  0.75130641  1
  V  V92  1  0.50150647  0.37358327  0.87398071  1
  V  V93  1  0.50033598  0.25106385  0.25155837  1
  V  V94  1  0.37633619  0.25119008  0.62471448  1
  V  V95  1  0.49978539  0.75021002  0.75006843  1
  Zn  Zn96  1  0.87704685  0.37266755  -0.00108859  1
  Zn  Zn97  1  0.50237756  0.25073788  0.74995656  1
  Zn  Zn98  1  0.24917077  0.75350502  0.00042368  1
  Zn  Zn99  1  0.74997856  0.87464027  0.12437731  1
  Zn  Zn100  1  0.25088694  0.37715726  0.12521337  1
  Zn  Zn101  1  0.37491492  0.75021077  0.62462214  1
  Zn  Zn102  1  0.75013271  0.62301026  0.37675522  1
  Zn  Zn103  1  0.12770597  0.49963635  0.62564352  1
  Zn  Zn104  1  0.37489215  0.37660622  0.50150057  1
  Zn  Zn105  1  0.37296307  0.12571665  0.24906388  1
  Zn  Zn106  1  0.12620262  0.25047302  0.37610799  1
  Zn  Zn107  1  0.87467915  0.24829730  0.12388831  1
  Zn  Zn108  1  0.25156479  0.37817067  0.62630700  1
  Zn  Zn109  1  0.25040642  -0.00044270  0.74953138  1
  Zn  Zn110  1  0.62422028  0.75025417  0.87557719  1
  Zn  Zn111  1  0.24909250  0.50116499  0.74746383  1
  Zn  Zn112  1  0.25046672  0.87575500  0.12296676  1
  Zn  Zn113  1  -0.00042672  0.00074785  0.49900513  1
  Zn  Zn114  1  0.62791472  0.62559193  0.50107907  1
  Zn  Zn115  1  0.87453356  0.12462161  0.24885524  1
  Zn  Zn116  1  0.25338461  0.50062483  0.24899470  1
  Zn  Zn117  1  0.37350221  0.62416230  0.24842680  1
  Zn  Zn118  1  0.74986582  0.74636949  0.49925831  1
  Zn  Zn119  1  0.62456763  0.24949999  0.87282103  1
  Zn  Zn120  1  -0.00114514  0.37408366  0.87688776  1
  Zn  Zn121  1  0.50107415  0.37507513  0.37675199  1
  Zn  Zn122  1  0.37231195  0.87609354  -0.00168282  1
  Zn  Zn123  1  0.62521920  0.37234528  0.75097167  1
  Zn  Zn124  1  0.87702306  0.37456249  0.50076881  1
  Zn  Zn125  1  0.87340877  0.75143647  0.12660475  1
  Zn  Zn126  1  0.62615244  0.37610992  0.25359493  1
  Zn  Zn127  1  -0.00042872  0.74897105  0.74956493  1
  Zn  Zn128  1  0.18667823  0.18820209  0.18663774  1
  Zn  Zn129  1  0.18867262  0.18699891  0.68777890  1
  Zn  Zn130  1  0.18931641  0.68638605  0.18886741  1
  Zn  Zn131  1  0.18740422  0.68927681  0.68781580  1
  Zn  Zn132  1  0.68614841  0.18691307  0.18747876  1
  Zn  Zn133  1  0.68595127  0.18908102  0.68910821  1
  Zn  Zn134  1  0.68927392  0.68724353  0.18758156  1
  Zn  Zn135  1  0.68715521  0.68701161  0.68840357  1
  Zn  Zn136  1  0.31505922  0.31474105  0.31469482  1
  Zn  Zn137  1  0.31280353  0.31173494  0.81312783  1
  Zn  Zn138  1  0.31112765  0.81273002  0.30950723  1
  Zn  Zn139  1  0.31179961  0.81253301  0.81160058  1
  Zn  Zn140  1  0.81395570  0.31379931  0.31301427  1
  Zn  Zn141  1  0.81276106  0.31274985  0.81352489  1
  Zn  Zn142  1  0.81140749  0.81337410  0.31107928  1
  Zn  Zn143  1  0.81202733  0.80998757  0.81246204  1
  Zn  Zn144  1  0.18832221  0.43770763  0.43818574  1
  Zn  Zn145  1  0.18659093  0.43846059  0.93601336  1
  Zn  Zn146  1  0.18624703  0.93851314  0.43722667  1
  Zn  Zn147  1  0.18951186  0.93634992  0.93804441  1
  Zn  Zn148  1  0.68797310  0.43508609  0.43838090  1
  Zn  Zn149  1  0.68758660  0.43760966  0.93951175  1
  Zn  Zn150  1  0.68839739  0.93462948  0.43621655  1
  Zn  Zn151  1  0.68645351  0.93699123  0.93681305  1
  Zn  Zn152  1  0.31286548  0.06392470  0.06229974  1
  Zn  Zn153  1  0.31200170  0.06229929  0.56209067  1
  Zn  Zn154  1  0.31045331  0.56429015  0.06196322  1
  Zn  Zn155  1  0.31205942  0.56353992  0.56492905  1
  Zn  Zn156  1  0.81294521  0.06235496  0.06361596  1
  Zn  Zn157  1  0.81349581  0.06116153  0.56138648  1
  Zn  Zn158  1  0.81384244  0.56275740  0.06352090  1
  Zn  Zn159  1  0.81210748  0.56255475  0.56014259  1
  Zn  Zn160  1  0.43794861  0.43612347  0.18901166  1
  Zn  Zn161  1  0.43696511  0.43884734  0.68933862  1
  Zn  Zn162  1  0.43676165  0.93676847  0.18669580  1
  Zn  Zn163  1  0.43630277  0.93761580  0.68657947  1
  Zn  Zn164  1  0.93800011  0.43809389  0.18686835  1
  Zn  Zn165  1  0.93902011  0.43650990  0.68806820  1
  Zn  Zn166  1  0.93611952  0.93741123  0.18714985  1
  Zn  Zn167  1  0.93874769  0.93610811  0.68651595  1
  Zn  Zn168  1  0.06325095  0.06311589  0.31366687  1
  Zn  Zn169  1  0.06327526  0.06105610  0.81187082  1
  Zn  Zn170  1  0.06273562  0.56234130  0.31357966  1
  Zn  Zn171  1  0.06171578  0.56194220  0.81264582  1
  Zn  Zn172  1  0.56247346  0.06419868  0.31145871  1
  Zn  Zn173  1  0.56223533  0.06279797  0.81089218  1
  Zn  Zn174  1  0.56215388  0.56411586  0.31060569  1
  Zn  Zn175  1  0.56297565  0.56133434  0.81289923  1
  Zn  Zn176  1  0.43657847  0.18520114  0.43664639  1
  Zn  Zn177  1  0.43618266  0.18856674  0.93808366  1
  Zn  Zn178  1  0.43849132  0.68624653  0.43871377  1
  Zn  Zn179  1  0.43769188  0.68879209  0.93717499  1
  Zn  Zn180  1  0.93781714  0.18776770  0.43706856  1
  Zn  Zn181  1  0.93571011  0.18776000  0.93797179  1
  Zn  Zn182  1  0.93698096  0.68703415  0.43772738  1
  Zn  Zn183  1  0.93696212  0.68791918  0.93766073  1
  Zn  Zn184  1  0.06220482  0.31418627  0.06354055  1
  Zn  Zn185  1  0.06337492  0.31190657  0.56475270  1
  Zn  Zn186  1  0.06156663  0.81208336  0.06258686  1
  Zn  Zn187  1  0.06046161  0.81206432  0.56237871  1
  Zn  Zn188  1  0.56437657  0.31301542  0.06221739  1
  Zn  Zn189  1  0.56447400  0.31445427  0.56172278  1
  Zn  Zn190  1  0.56134175  0.81316234  0.06073637  1
  Zn  Zn191  1  0.56151154  0.81169421  0.56199475  1
  O  O192  1  0.11879351  0.11956329  0.11844259  1
  O  O193  1  0.12019349  0.11993115  0.62089423  1
  O  O194  1  0.11952506  0.62057366  0.12023394  1
  O  O195  1  0.11809202  0.62545698  0.61827990  1
  O  O196  1  0.61865837  0.11931875  0.11850594  1
  O  O197  1  0.62059355  0.11842691  0.61860326  1
  O  O198  1  0.61966781  0.61942344  0.11956425  1
  O  O199  1  0.61793528  0.61733536  0.62536023  1
  O  O200  1  0.37849416  0.38760210  0.37986997  1
  O  O201  1  0.38193443  0.38065148  0.88095605  1
  O  O202  1  0.37962044  0.88041836  0.37924389  1
  O  O203  1  0.38175561  0.88293949  0.87390576  1
  O  O204  1  0.88396470  0.38172058  0.37636920  1
  O  O205  1  0.87728149  0.38391306  0.87719799  1
  O  O206  1  0.87945994  0.87991160  0.37954291  1
  O  O207  1  0.88004758  0.88034696  0.87943870  1
  O  O208  1  0.25433977  0.00491010  0.36911793  1
  O  O209  1  0.25693766  0.00760854  0.87384881  1
  O  O210  1  0.26105786  0.50611332  0.37780959  1
  O  O211  1  0.25650260  0.50809894  0.87373770  1
  O  O212  1  0.75384420  0.00496408  0.36942344  1
  O  O213  1  0.75549479  0.00480393  0.86864737  1
  O  O214  1  0.75691684  0.49784218  0.36806446  1
  O  O215  1  0.75532716  0.50500632  0.87096231  1
  O  O216  1  0.24240005  0.49808054  0.12844122  1
  O  O217  1  0.24662628  0.49572439  0.62870168  1
  O  O218  1  0.24280392  1.00158681  0.13134227  1
  O  O219  1  0.24297713  0.99352099  0.62496093  1
  O  O220  1  0.74533161  0.49258992  0.12984657  1
  O  O221  1  0.74605755  0.49431168  0.63048504  1
  O  O222  1  0.74164847  0.99962252  0.13094245  1
  O  O223  1  0.74473858  0.99390360  0.62971871  1
  O  O224  1  0.00834566  0.36858558  0.25425756  1
  O  O225  1  0.00924705  0.36677798  0.75217547  1
  O  O226  1  0.00513355  0.86969926  0.25562377  1
  O  O227  1  0.00617286  0.87375560  0.75708565  1
  O  O228  1  0.50341487  0.36203993  0.25158698  1
  O  O229  1  0.50016261  0.37531643  0.76307848  1
  O  O230  1  0.50513933  0.86980846  0.25575949  1
  O  O231  1  0.50508598  0.87092909  0.75340356  1
  O  O232  1  0.49839709  0.13562848  0.24390614  1
  O  O233  1  0.49387894  0.12641583  0.74162443  1
  O  O234  1  0.49841144  0.63205366  0.24142068  1
  O  O235  1  0.49478524  0.63004795  0.74675182  1
  O  O236  1  1.00196196  0.13505486  0.24515975  1
  O  O237  1  0.99440915  0.12923707  0.74504175  1
  O  O238  1  0.99618927  0.63013167  0.24553331  1
  O  O239  1  0.99275909  0.62520777  0.74292208  1
  O  O240  1  0.36919297  0.25592771  0.00557844  1
  O  O241  1  0.36759792  0.24859265  0.50807464  1
  O  O242  1  0.37517040  0.75145164  0.01139335  1
  O  O243  1  0.36840355  0.75716454  0.49964790  1
  O  O244  1  0.86583739  0.25146670  0.00345211  1
  O  O245  1  0.86862242  0.24993068  0.50738848  1
  O  O246  1  0.86770282  0.75606340  0.00091342  1
  O  O247  1  0.87333782  0.75653463  0.50580815  1
  O  O248  1  0.13612303  0.24407379  0.50082083  1
  O  O249  1  0.12913537  0.24452751  0.99546132  1
  O  O250  1  0.12963813  0.74531312  0.49319373  1
  O  O251  1  0.12438500  0.74325873  0.99314906  1
  O  O252  1  0.63061069  0.24315951  0.49518468  1
  O  O253  1  0.63196174  0.24258211  0.99779820  1
  O  O254  1  0.62448800  0.75022754  0.48733906  1
  O  O255  1  0.63134885  0.74320431  0.99836744  1
  O  O256  1  0.49600113  0.24591756  0.13181052  1
  O  O257  1  0.49075131  0.24374963  0.62184296  1
  O  O258  1  0.49329693  0.74495591  0.12902974  1
  O  O259  1  0.49884715  0.74368966  0.63164808  1
  O  O260  1  0.99993417  0.24498250  0.13398103  1
  O  O261  1  0.99463251  0.24297809  0.63152035  1
  O  O262  1  0.99873705  0.74327739  0.13267625  1
  O  O263  1  0.99219984  0.74251084  0.62604393  1
  O  O264  1  0.00290681  0.25551986  0.36618666  1
  O  O265  1  0.00636226  0.24873954  0.86879004  1
  O  O266  1  0.00584262  0.75548311  0.36930988  1
  O  O267  1  0.00618451  0.75671482  0.87341972  1
  O  O268  1  0.50456226  0.24881279  0.36742805  1
  O  O269  1  0.49886822  0.26255233  0.87555131  1
  O  O270  1  0.50620025  0.75530836  0.36945564  1
  O  O271  1  0.50173899  0.75742844  0.86806141  1
  O  O272  1  0.24551228  0.13272982  0.49513870  1
  O  O273  1  0.24357704  0.13137063  0.99440816  1
  O  O274  1  0.24446994  0.63197613  0.49498286  1
  O  O275  1  0.24205856  0.62798749  0.99244780  1
  O  O276  1  0.74416609  0.12938910  0.49484676  1
  O  O277  1  0.74455981  0.12912561  0.99497568  1
  O  O278  1  0.74542087  0.62812927  0.49453049  1
  O  O279  1  0.74532862  0.62986540  0.99561743  1
  O  O280  1  0.25572644  0.36855238  0.00032654  1
  O  O281  1  0.25149519  0.36214004  0.50243385  1
  O  O282  1  0.25411451  0.87166273  0.00509301  1
  O  O283  1  0.25417559  0.87015612  0.50339231  1
  O  O284  1  0.75025501  0.36888926  0.00956927  1
  O  O285  1  0.75285911  0.36685698  0.50771730  1
  O  O286  1  0.75553453  0.86841956  -0.00098522  1
  O  O287  1  0.75636521  0.87256564  0.50657550  1
  O  O288  1  0.12458778  0.49038045  0.24537570  1
  O  O289  1  0.12545802  0.48780521  0.75044404  1
  O  O290  1  0.12932513  0.99533923  0.24481892  1
  O  O291  1  0.12695732  0.99330398  0.74299807  1
  O  O292  1  0.63118032  0.49835363  0.24364310  1
  O  O293  1  0.63246720  0.49756380  0.74436167  1
  O  O294  1  0.62855956  0.99555834  0.24473917  1
  O  O295  1  0.63053543  0.99473574  0.74228182  1
  O  O296  1  0.36833578  0.00144596  0.25556495  1
  O  O297  1  0.37385339  0.00751651  0.75555368  1
  O  O298  1  0.37589576  0.50143463  0.26228878  1
  O  O299  1  0.37371687  0.50782616  0.75789552  1
  O  O300  1  0.86765763  0.00076066  0.25707210  1
  O  O301  1  0.86959621  0.00451847  0.75474253  1
  O  O302  1  0.87142336  0.50500702  0.25577113  1
  O  O303  1  0.86963401  0.50520553  0.75569433  1
  O  O304  1  0.12019924  0.37437119  0.36542440  1
  O  O305  1  0.12321476  0.36711655  0.86666224  1
  O  O306  1  0.11903695  0.87001928  0.36931320  1
  O  O307  1  0.11954429  0.87101232  0.86986585  1
  O  O308  1  0.62209079  0.36529394  0.37381595  1
  O  O309  1  0.61227192  0.37538936  0.87684228  1
  O  O310  1  0.61799926  0.86808385  0.36872352  1
  O  O311  1  0.61754388  0.87576463  0.86618239  1
  O  O312  1  0.38206043  0.13335442  0.12566377  1
  O  O313  1  0.38063644  0.13177015  0.62812733  1
  O  O314  1  0.38171657  0.63334769  0.12529965  1
  O  O315  1  0.38293685  0.62706333  0.63264161  1
  O  O316  1  0.88387549  0.12633759  0.12868308  1
  O  O317  1  0.87984324  0.12910467  0.63094245  1
  O  O318  1  0.88294632  0.62558605  0.13314374  1
  O  O319  1  0.87991386  0.62934151  0.62979107  1
  O  O320  1  0.25610261  0.25192857  0.11854501  1
  O  O321  1  0.26061109  0.24720332  0.61590426  1
  O  O322  1  0.26155207  0.75023271  0.12505547  1
  O  O323  1  0.25098881  0.75759119  0.61662902  1
  O  O324  1  0.74969012  0.25792895  0.12030696  1
  O  O325  1  0.75531061  0.25345060  0.62011365  1
  O  O326  1  0.75215140  0.75252921  0.11581919  1
  O  O327  1  0.75594726  0.75631872  0.62437159  1
  O  O328  1  0.25162660  0.24469365  0.38563298  1
  O  O329  1  0.24494649  0.24335110  0.88175615  1
  O  O330  1  0.24409895  0.74577049  0.37989271  1
  O  O331  1  0.24292979  0.74392346  0.87658346  1
  O  O332  1  0.74582366  0.24440413  0.37991745  1
  O  O333  1  0.74920702  0.24230231  0.88179507  1
  O  O334  1  0.73689876  0.75034001  0.37391395  1
  O  O335  1  0.74768677  0.74193040  0.88192928  1
  O  O336  1  0.00519964  0.11932887  0.00435282  1
  O  O337  1  0.00713228  0.12519529  0.50705258  1
  O  O338  1  0.00570184  0.62027599  0.00576029  1
  O  O339  1  0.00554456  0.61941571  0.50478153  1
  O  O340  1  0.50537756  0.12068320  0.00450656  1
  O  O341  1  0.50607587  0.11813947  0.50408770  1
  O  O342  1  0.50572902  0.61945155  0.00503330  1
  O  O343  1  0.50239388  0.61485942  0.50729285  1
  O  O344  1  0.49798389  0.38841709  0.49987244  1
  O  O345  1  0.49412882  0.38073899  0.99408613  1
  O  O346  1  0.49412584  0.88067456  0.49367646  1
  O  O347  1  0.49892547  0.88328222  0.99171599  1
  O  O348  1  1.00142926  0.38005975  0.49403709  1
  O  O349  1  0.99822246  0.38389764  0.99855690  1
  O  O350  1  0.99302382  0.87642963  0.49221165  1
  O  O351  1  0.99467709  0.88119120  0.99387757  1
  O  O352  1  0.49383826  0.50214174  0.38393086  1
  O  O353  1  0.49372413  0.49321031  0.88184211  1
  O  O354  1  0.49496768  0.99491032  0.37899837  1
  O  O355  1  0.49468458  0.99631427  0.87913032  1
  O  O356  1  0.99567552  0.49475739  0.38079268  1
  O  O357  1  0.99273758  0.50016778  0.88244046  1
  O  O358  1  0.99328528  0.99361942  0.37548621  1
  O  O359  1  0.99440027  0.99500208  0.88069496  1
  O  O360  1  0.00574974  0.00556464  0.11947243  1
  O  O361  1  0.00614019  0.00681807  0.62320690  1
  O  O362  1  0.00624355  0.50669843  0.11999876  1
  O  O363  1  0.00161470  0.50639183  0.61820923  1
  O  O364  1  0.50435957  0.00680526  0.11982236  1
  O  O365  1  0.50543704  0.00468361  0.61755594  1
  O  O366  1  0.50499122  0.50452192  0.12025617  1
  O  O367  1  0.50470750  0.50447331  0.61884850  1
  O  O368  1  0.23801476  0.37554022  0.25008560  1
  O  O369  1  0.23894849  0.37399758  0.75012999  1
  O  O370  1  0.24179744  0.88284215  0.24806784  1
  O  O371  1  0.24287131  0.87672089  0.74216969  1
  O  O372  1  0.74924557  0.37983263  0.24059356  1
  O  O373  1  0.74943852  0.38136580  0.74391197  1
  O  O374  1  0.74175423  0.88265825  0.24819521  1
  O  O375  1  0.74496365  0.88036359  0.74412701  1
  O  O376  1  0.24979482  0.11979167  0.25657034  1
  O  O377  1  0.25711883  0.12369701  0.75679743  1
  O  O378  1  0.25223601  0.62135119  0.26051193  1
  O  O379  1  0.25647609  0.62566580  0.75707373  1
  O  O380  1  0.75022064  0.11886168  0.25696989  1
  O  O381  1  0.75540798  0.11824427  0.75434542  1
  O  O382  1  0.75726766  0.61718094  0.25162633  1
  O  O383  1  0.75553744  0.61805328  0.75554549  1
  O  O384  1  0.36772105  0.11695691  0.37341571  1
  O  O385  1  0.37054457  0.12103849  0.86931277  1
  O  O386  1  0.37051211  0.61613754  0.37497576  1
  O  O387  1  0.37015751  0.62053765  0.87072900  1
  O  O388  1  0.86833923  0.11812631  0.37390403  1
  O  O389  1  0.86934689  0.11781337  0.86915267  1
  O  O390  1  0.87548999  0.61741095  0.36760272  1
  O  O391  1  0.86903151  0.61883683  0.86951161  1
  O  O392  1  0.12546327  0.38199401  0.13518502  1
  O  O393  1  0.12725234  0.37368426  0.63817620  1
  O  O394  1  0.12408186  0.88224943  0.13193527  1
  O  O395  1  0.12898277  0.87988004  0.62888783  1
  O  O396  1  0.63602328  0.38113913  0.12582602  1
  O  O397  1  0.63243875  0.38185501  0.62695282  1
  O  O398  1  0.62378161  0.88258498  0.13120314  1
  O  O399  1  0.62962584  0.88066721  0.62916542  1
  O  O400  1  0.11594487  0.25926215  0.25032734  1
  O  O401  1  0.12037485  0.25471003  0.75552901  1
  O  O402  1  0.11944235  0.75536233  0.25595182  1
  O  O403  1  0.12214366  0.75744841  0.75689120  1
  O  O404  1  0.61551234  0.24936251  0.25609149  1
  O  O405  1  0.61997531  0.25387707  0.75469924  1
  O  O406  1  0.61901006  0.75554676  0.25584616  1
  O  O407  1  0.61832558  0.75700224  0.75179584  1
  O  O408  1  0.38390707  0.24969128  0.24514048  1
  O  O409  1  0.37668239  0.24393807  0.73950096  1
  O  O410  1  0.38149604  0.74881908  0.24090005  1
  O  O411  1  0.38240144  0.74378378  0.74831082  1
  O  O412  1  0.88881283  0.24941535  0.24841095  1
  O  O413  1  0.87999960  0.24268150  0.74539639  1
  O  O414  1  0.88193028  0.74369501  0.25008117  1
  O  O415  1  0.87577896  0.74194773  0.74313657  1
  O  O416  1  0.38484204  0.50131880  0.49346685  1
  O  O417  1  0.38042063  0.49563694  0.99509057  1
  O  O418  1  0.38014949  0.99471402  0.49294845  1
  O  O419  1  0.38275333  1.00162160  0.99256283  1
  O  O420  1  0.88333147  0.49758082  0.49330013  1
  O  O421  1  0.88153219  0.50022582  0.99374276  1
  O  O422  1  0.87634303  0.99257041  0.49277245  1
  O  O423  1  0.88023433  0.99518302  0.99327164  1
  O  O424  1  0.11874164  0.00599659  0.00458439  1
  O  O425  1  0.12313970  0.00700122  0.50658173  1
  O  O426  1  0.11924136  0.50663296  0.00480691  1
  O  O427  1  0.11877795  0.50707520  0.50065118  1
  O  O428  1  0.61910827  0.00607005  0.00489591  1
  O  O429  1  0.61955294  0.00394263  0.50374505  1
  O  O430  1  0.61915770  0.50598472  0.00719447  1
  O  O431  1  0.61591941  0.50084953  0.50596487  1
  O  O432  1  0.37418866  0.36926317  0.11817778  1
  O  O433  1  0.37476631  0.36246280  0.62449559  1
  O  O434  1  0.37508488  0.86367119  0.12286596  1
  O  O435  1  0.36813502  0.87489990  0.61649733  1
  O  O436  1  0.86209769  0.37483071  0.12379122  1
  O  O437  1  0.86944128  0.36656461  0.62472914  1
  O  O438  1  0.87237538  0.87366447  0.11557926  1
  O  O439  1  0.87000301  0.86949380  0.62007458  1
  O  O440  1  0.13232992  0.12718680  0.38241889  1
  O  O441  1  0.13004027  0.12942300  0.88038418  1
  O  O442  1  0.12982304  0.63095919  0.38120704  1
  O  O443  1  0.12932325  0.63069764  0.87932561  1
  O  O444  1  0.63096339  0.12947960  0.38116885  1
  O  O445  1  0.63171399  0.12395625  0.88086736  1
  O  O446  1  0.62471195  0.63772811  0.37449173  1
  O  O447  1  0.63179998  0.62446205  0.88266373  1
