# generated using pymatgen
data_V3Zn3O8
_symmetry_space_group_name_H-M   'P 1'
_cell_length_a   17.08707900
_cell_length_b   17.08759907
_cell_length_c   17.08718469
_cell_angle_alpha   90.01979736
_cell_angle_beta   90.00882795
_cell_angle_gamma   90.00128171
_symmetry_Int_Tables_number   1
_chemical_formula_structural   V3Zn3O8
_chemical_formula_sum   'V96 Zn96 O256'
_cell_volume   4989.06721951
_cell_formula_units_Z   32
loop_
 _symmetry_equiv_pos_site_id
 _symmetry_equiv_pos_as_xyz
  1  'x, y, z'
loop_
 _atom_site_type_symbol
 _atom_site_label
 _atom_site_symmetry_multiplicity
 _atom_site_fract_x
 _atom_site_fract_y
 _atom_site_fract_z
 _atom_site_occupancy
  V  V0  1  0.49980191  0.75032294  0.24993307  1
  V  V1  1  0.49920968  0.49924050  0.49983483  1
  V  V2  1  0.12468023  0.87382343  0.75071909  1
  V  V3  1  0.12528897  0.75075420  0.87506330  1
  V  V4  1  0.62486577  0.87445252  0.74998719  1
  V  V5  1  0.87502673  0.62480604  0.74948486  1
  V  V6  1  0.75071623  0.25067204  0.00169201  1
  V  V7  1  0.12475628  0.87580615  0.25037326  1
  V  V8  1  0.12898019  0.12651681  0.49791053  1
  V  V9  1  0.62559235  0.50056089  0.12505959  1
  V  V10  1  0.87654999  0.12700299  0.25036497  1
  V  V11  1  0.62390317  0.00044420  0.12648231  1
  V  V12  1  0.87548165  0.49882686  0.37461115  1
  V  V13  1  0.37575767  0.49995827  0.37536602  1
  V  V14  1  0.12398455  0.49991092  0.62528746  1
  V  V15  1  0.37560571  0.25141078  0.12380573  1
  V  V16  1  0.25023173  0.75046240  0.00006916  1
  V  V17  1  0.87389097  -0.00005299  0.87554042  1
  V  V18  1  0.12568651  0.62646901  0.49948950  1
  V  V19  1  0.74966592  0.87503680  0.12562172  1
  V  V20  1  0.50080574  0.50056694  -0.00035920  1
  V  V21  1  0.87498911  0.37514182  -0.00013043  1
  V  V22  1  -0.00006791  -0.00097200  0.50108952  1
  V  V23  1  -0.00025649  0.00024394  0.00020831  1
  V  V24  1  -0.00053718  0.49992426  -0.00148798  1
  V  V25  1  0.12368875  0.37470053  0.25028286  1
  V  V26  1  0.74979981  0.62405611  0.87431658  1
  V  V27  1  0.37567585  -0.00047415  0.87570026  1
  V  V28  1  0.00003311  0.12590688  0.12580087  1
  V  V29  1  0.37567122  0.62615586  0.24969664  1
  V  V30  1  0.62549949  0.24963731  0.87549143  1
  V  V31  1  -0.00042150  0.24896756  0.74951960  1
  V  V32  1  -0.00121921  0.37488317  0.87531499  1
  V  V33  1  0.37176960  0.00316556  0.37373215  1
  V  V34  1  0.24993440  0.49974147  0.74990782  1
  V  V35  1  -0.00043654  0.49869368  0.49933990  1
  V  V36  1  0.25068906  0.87391489  0.62499451  1
  V  V37  1  0.25054861  -0.00102927  0.75085782  1
  V  V38  1  0.50012519  0.87499278  0.87526731  1
  V  V39  1  0.37572330  0.62399978  0.74988876  1
  V  V40  1  0.75096975  0.37244222  0.62247272  1
  V  V41  1  0.87594850  0.24922281  0.62378605  1
  V  V42  1  0.37581810  0.12470907  0.75044182  1
  V  V43  1  0.62449161  0.49775490  0.62444824  1
  V  V44  1  -0.00007525  0.62650563  0.12449205  1
  V  V45  1  0.74954552  0.50039209  0.24985085  1
  V  V46  1  0.24986459  0.62604841  0.37492819  1
  V  V47  1  0.75023056  0.37568067  0.12470849  1
  V  V48  1  0.00040461  0.87332427  0.37545680  1
  V  V49  1  0.49774771  0.37499209  0.37537349  1
  V  V50  1  0.12471937  0.24926006  0.87482069  1
  V  V51  1  0.87539245  0.75020381  0.12562494  1
  V  V52  1  0.74937301  0.62433934  0.37572045  1
  V  V53  1  0.37566582  0.37636858  -0.00136348  1
  V  V54  1  0.12494712  -0.00108376  0.62563016  1
  V  V55  1  0.62507730  0.62371950  0.50079932  1
  V  V56  1  0.74921678  0.74956058  0.00046787  1
  V  V57  1  0.12435623  0.37550553  0.74960466  1
  V  V58  1  0.12531490  0.62637811  -0.00159361  1
  V  V59  1  0.62453491  0.87470383  0.25127406  1
  V  V60  1  0.74908926  0.87584689  0.62558904  1
  V  V61  1  0.62574258  0.37366615  0.74914044  1
  V  V62  1  0.24961891  0.87574093  0.12562872  1
  V  V63  1  0.12578355  0.00019777  0.12547490  1
  V  V64  1  0.49990243  0.87453917  0.37502773  1
  V  V65  1  0.75025186  0.12414761  0.87557408  1
  V  V66  1  0.25116258  0.37636063  0.12222326  1
  V  V67  1  0.12554392  0.50135135  0.12298530  1
  V  V68  1  0.62527425  0.12539548  0.00150347  1
  V  V69  1  0.62495953  0.25029555  0.37529174  1
  V  V70  1  0.37300560  0.25020848  0.62357287  1
  V  V71  1  0.12478364  0.12563361  -0.00039951  1
  V  V72  1  0.74935844  -0.00080838  0.75080836  1
  V  V73  1  0.24924591  0.12512573  0.87538669  1
  V  V74  1  0.49867542  0.12610289  0.12598889  1
  V  V75  1  0.87485053  0.00022664  0.37532942  1
  V  V76  1  0.00005042  0.87454106  0.87506012  1
  V  V77  1  0.37546726  0.75036064  0.62469794  1
  V  V78  1  0.87439949  0.87453146  0.50051643  1
  V  V79  1  0.50047793  0.37527890  0.87527563  1
  V  V80  1  0.87443960  0.87548922  0.00069551  1
  V  V81  1  0.50084462  -0.00009272  0.50085607  1
  V  V82  1  0.37468530  0.75077877  0.12507300  1
  V  V83  1  0.62535882  0.12459285  0.50051756  1
  V  V84  1  -0.00046221  0.12452380  0.62554191  1
  V  V85  1  0.49939878  -0.00058722  0.00056696  1
  V  V86  1  0.62517230  0.62486997  0.00003208  1
  V  V87  1  0.49975228  0.24857404  0.75034455  1
  V  V88  1  0.49808136  0.25042296  0.24983808  1
  V  V89  1  0.75032563  0.00025072  0.25083056  1
  V  V90  1  0.87450198  0.74923690  0.62569291  1
  V  V91  1  0.25099520  0.50161154  0.24852324  1
  V  V92  1  0.37519262  0.87430404  0.50076208  1
  V  V93  1  0.00015442  0.75008083  0.25005139  1
  V  V94  1  0.50030177  0.74988344  0.75031601  1
  V  V95  1  0.74899853  0.74912509  0.49967796  1
  Zn  Zn96  1  0.24864167  0.37324176  0.62290461  1
  Zn  Zn97  1  0.24991830  0.25371455  0.49672987  1
  Zn  Zn98  1  0.24989249  0.62607696  0.87496452  1
  Zn  Zn99  1  0.37089015  0.12618162  0.24895201  1
  Zn  Zn100  1  0.62476715  0.74947410  0.37550235  1
  Zn  Zn101  1  0.62472549  0.37580064  0.24976568  1
  Zn  Zn102  1  0.50146614  0.62372760  0.62494354  1
  Zn  Zn103  1  0.62437829  0.00103206  0.62550992  1
  Zn  Zn104  1  0.00090365  0.74953259  0.74914555  1
  Zn  Zn105  1  0.50078411  0.12350837  0.62622222  1
  Zn  Zn106  1  0.12646980  0.25176387  0.37481187  1
  Zn  Zn107  1  0.24913236  0.12958984  0.37069853  1
  Zn  Zn108  1  0.37108280  0.37520137  0.50066442  1
  Zn  Zn109  1  0.75120958  0.12598163  0.37485908  1
  Zn  Zn110  1  0.87674728  0.37200722  0.49835457  1
  Zn  Zn111  1  0.00048944  0.37301615  0.37277560  1
  Zn  Zn112  1  0.87469821  0.49867595  0.87306808  1
  Zn  Zn113  1  0.87513521  0.62574111  0.24957575  1
  Zn  Zn114  1  0.75529281  0.24762196  0.49703493  1
  Zn  Zn115  1  0.12612938  0.75081948  0.37511702  1
  Zn  Zn116  1  0.25034511  0.25150678  -0.00143751  1
  Zn  Zn117  1  0.87442610  0.12381623  0.74966266  1
  Zn  Zn118  1  -0.00020065  0.62647731  0.62620584  1
  Zn  Zn119  1  0.75025764  0.49839807  0.74954405  1
  Zn  Zn120  1  0.50032340  0.62559030  0.12438691  1
  Zn  Zn121  1  0.37509548  0.87464159  0.00064099  1
  Zn  Zn122  1  0.00143659  0.25177647  0.25080427  1
  Zn  Zn123  1  0.37526973  0.50014904  0.87466675  1
  Zn  Zn124  1  0.24922551  0.00247717  0.24974483  1
  Zn  Zn125  1  0.62357642  0.74997971  0.87559149  1
  Zn  Zn126  1  0.25020001  0.75053254  0.49887036  1
  Zn  Zn127  1  0.87663376  0.25167369  0.12666650  1
  Zn  Zn128  1  0.19080181  0.18854290  0.18653658  1
  Zn  Zn129  1  0.18780186  0.18640301  0.68714460  1
  Zn  Zn130  1  0.18708513  0.68954936  0.18735665  1
  Zn  Zn131  1  0.18862786  0.68753009  0.68634826  1
  Zn  Zn132  1  0.68816873  0.18848067  0.18890341  1
  Zn  Zn133  1  0.68887936  0.18689590  0.68697968  1
  Zn  Zn134  1  0.68714176  0.68655777  0.18888027  1
  Zn  Zn135  1  0.68688750  0.68769218  0.68691906  1
  Zn  Zn136  1  0.30992158  0.31194767  0.31268052  1
  Zn  Zn137  1  0.31245970  0.31281467  0.81173659  1
  Zn  Zn138  1  0.31107885  0.81325296  0.31303703  1
  Zn  Zn139  1  0.31309533  0.81204163  0.81337127  1
  Zn  Zn140  1  0.81085697  0.31356215  0.31160004  1
  Zn  Zn141  1  0.81333348  0.31020575  0.81134836  1
  Zn  Zn142  1  0.81277885  0.81156794  0.31303315  1
  Zn  Zn143  1  0.81203710  0.81098808  0.81284412  1
  Zn  Zn144  1  0.19038336  0.43784095  0.43732240  1
  Zn  Zn145  1  0.18737606  0.43806620  0.93544373  1
  Zn  Zn146  1  0.18821218  0.93758408  0.43794540  1
  Zn  Zn147  1  0.18805001  0.93701811  0.93884895  1
  Zn  Zn148  1  0.68679876  0.43624282  0.43814297  1
  Zn  Zn149  1  0.68768204  0.43829395  0.93778658  1
  Zn  Zn150  1  0.68785165  0.93799449  0.43674501  1
  Zn  Zn151  1  0.68554742  0.93723153  0.93751715  1
  Zn  Zn152  1  0.31201276  0.06332746  0.06197846  1
  Zn  Zn153  1  0.31321571  0.06248219  0.56308572  1
  Zn  Zn154  1  0.31394386  0.56420633  0.06150399  1
  Zn  Zn155  1  0.31208589  0.56207487  0.56325258  1
  Zn  Zn156  1  0.81238796  0.06293463  0.06420054  1
  Zn  Zn157  1  0.81102681  0.06306897  0.56286447  1
  Zn  Zn158  1  0.81367676  0.56206460  0.06197287  1
  Zn  Zn159  1  0.81113418  0.56067690  0.56283663  1
  Zn  Zn160  1  0.43929556  0.43746685  0.18729415  1
  Zn  Zn161  1  0.43807011  0.43513582  0.68633494  1
  Zn  Zn162  1  0.43610493  0.93707770  0.18881947  1
  Zn  Zn163  1  0.43935135  0.93771653  0.68705893  1
  Zn  Zn164  1  0.93707676  0.43963526  0.18578109  1
  Zn  Zn165  1  0.93679382  0.43801145  0.68672285  1
  Zn  Zn166  1  0.93858842  0.93831815  0.18828168  1
  Zn  Zn167  1  0.93658571  0.93705569  0.68883054  1
  Zn  Zn168  1  0.06170683  0.06098934  0.31350754  1
  Zn  Zn169  1  0.06181177  0.06174367  0.81242079  1
  Zn  Zn170  1  0.06280467  0.56265745  0.31189856  1
  Zn  Zn171  1  0.06157096  0.56327105  0.81355201  1
  Zn  Zn172  1  0.55920461  0.06381316  0.31303637  1
  Zn  Zn173  1  0.56329019  0.06169801  0.81306788  1
  Zn  Zn174  1  0.56287459  0.56313311  0.31254700  1
  Zn  Zn175  1  0.56348434  0.56092217  0.81172606  1
  Zn  Zn176  1  0.43870724  0.18677531  0.43914543  1
  Zn  Zn177  1  0.43724741  0.18793588  0.93845146  1
  Zn  Zn178  1  0.43852138  0.68704770  0.43765058  1
  Zn  Zn179  1  0.43715325  0.68777180  0.93699218  1
  Zn  Zn180  1  0.94370716  0.18991597  0.43553742  1
  Zn  Zn181  1  0.93644876  0.18806624  0.93806554  1
  Zn  Zn182  1  0.93713829  0.68651704  0.43701651  1
  Zn  Zn183  1  0.93731079  0.68842241  0.93697176  1
  Zn  Zn184  1  0.06186858  0.31117411  0.06368483  1
  Zn  Zn185  1  0.06286291  0.31223069  0.56312737  1
  Zn  Zn186  1  0.06331506  0.81290982  0.06274635  1
  Zn  Zn187  1  0.06080572  0.81057534  0.56460665  1
  Zn  Zn188  1  0.56299132  0.31420378  0.06280598  1
  Zn  Zn189  1  0.55920739  0.31144214  0.56167220  1
  Zn  Zn190  1  0.56184714  0.81205244  0.06302504  1
  Zn  Zn191  1  0.56258205  0.81167978  0.56361604  1
  O  O192  1  0.11975256  0.11991250  0.11911080  1
  O  O193  1  0.11961276  0.11778124  0.61905319  1
  O  O194  1  0.11985933  0.62072338  0.11818317  1
  O  O195  1  0.12356983  0.61912328  0.61572432  1
  O  O196  1  0.61943999  0.11987207  0.12080456  1
  O  O197  1  0.62369048  0.12470662  0.61299587  1
  O  O198  1  0.62487972  0.61819498  0.11760379  1
  O  O199  1  0.62535797  0.61616557  0.61874103  1
  O  O200  1  0.38058270  0.38290117  0.37514314  1
  O  O201  1  0.38285871  0.37603258  0.87989777  1
  O  O202  1  0.38006441  0.88270437  0.38087995  1
  O  O203  1  0.38179779  0.88232519  0.87604869  1
  O  O204  1  0.87560845  0.38765891  0.37642800  1
  O  O205  1  0.88100966  0.37541373  0.88073661  1
  O  O206  1  0.88026831  0.88023602  0.38117886  1
  O  O207  1  0.87922551  0.87982247  0.88164195  1
  O  O208  1  0.26185918  0.00055983  0.37500099  1
  O  O209  1  0.25511523  0.00468616  0.86997335  1
  O  O210  1  0.25646925  0.50694369  0.36771848  1
  O  O211  1  0.25109207  0.50300393  0.86124028  1
  O  O212  1  0.75757701  0.00101148  0.36798394  1
  O  O213  1  0.75463770  0.00446285  0.87156207  1
  O  O214  1  0.75729434  0.50362108  0.37163250  1
  O  O215  1  0.75203194  0.51217733  0.87350575  1
  O  O216  1  0.24518528  0.49638985  0.12900444  1
  O  O217  1  0.24374132  0.49965017  0.63652066  1
  O  O218  1  0.24290449  0.99350963  0.12421200  1
  O  O219  1  0.24517086  0.99363618  0.63192937  1
  O  O220  1  0.74559300  0.49558222  0.12957081  1
  O  O221  1  0.74378156  0.48800386  0.62528151  1
  O  O222  1  0.74377603  0.99435349  0.13067123  1
  O  O223  1  0.74887196  0.99290778  0.63221593  1
  O  O224  1  0.01213552  0.37798243  0.24774742  1
  O  O225  1  0.00486186  0.36984004  0.75522807  1
  O  O226  1  0.00452995  0.87008077  0.25563833  1
  O  O227  1  0.00670586  0.87440189  0.75736317  1
  O  O228  1  0.50275836  0.36861748  0.25696164  1
  O  O229  1  0.50636924  0.36826144  0.75578351  1
  O  O230  1  0.50557245  0.87009254  0.25525796  1
  O  O231  1  0.50500607  0.87001839  0.75567684  1
  O  O232  1  0.49673101  0.13223180  0.24264879  1
  O  O233  1  0.49409557  0.13090345  0.75083437  1
  O  O234  1  0.49323886  0.63196208  0.24931111  1
  O  O235  1  0.49141576  0.62931207  0.74850429  1
  O  O236  1  0.99047352  0.12279444  0.24435034  1
  O  O237  1  0.99946487  0.13057336  0.74333827  1
  O  O238  1  0.99935593  0.63131018  0.24224013  1
  O  O239  1  0.98755759  0.62686208  0.74957412  1
  O  O240  1  0.37459476  0.25847550  0.00557400  1
  O  O241  1  0.37483901  0.24905976  0.51238493  1
  O  O242  1  0.36864340  0.75097530  0.00662049  1
  O  O243  1  0.37495560  0.75628999  0.50683975  1
  O  O244  1  0.86794668  0.25651639  0.00218733  1
  O  O245  1  0.87592088  0.25248654  0.50685440  1
  O  O246  1  0.86919769  0.75648818  0.00588259  1
  O  O247  1  0.86909834  0.75479280  0.50529493  1
  O  O248  1  0.12517324  0.23722665  0.50212584  1
  O  O249  1  0.12563791  0.24350882  0.99236651  1
  O  O250  1  0.12475004  0.73719994  0.49955888  1
  O  O251  1  0.13016907  0.74555807  0.99518021  1
  O  O252  1  0.62252392  0.24118375  0.49029002  1
  O  O253  1  0.63040447  0.24463897  0.99495671  1
  O  O254  1  0.63170076  0.74290280  0.49931166  1
  O  O255  1  0.63206666  0.74353207  0.99940406  1
  O  O256  1  0.49599425  0.24598191  0.12957542  1
  O  O257  1  0.49074028  0.24778765  0.63256108  1
  O  O258  1  0.49315169  0.74914975  0.13202485  1
  O  O259  1  0.49276344  0.74794776  0.63259729  1
  O  O260  1  0.99701619  0.24132519  0.12899029  1
  O  O261  1  0.99534269  0.24466866  0.63082843  1
  O  O262  1  0.99463451  0.74612708  0.12948173  1
  O  O263  1  0.99028106  0.74642910  0.62811169  1
  O  O264  1  0.00823691  0.25625724  0.36883537  1
  O  O265  1  0.00514890  0.25471948  0.86940524  1
  O  O266  1  0.00044404  0.75607531  0.36880757  1
  O  O267  1  0.00661350  0.75795568  0.87452391  1
  O  O268  1  0.50601196  0.25465965  0.37017986  1
  O  O269  1  0.50670913  0.25501796  0.87063510  1
  O  O270  1  0.50081238  0.75722669  0.36820493  1
  O  O271  1  0.50085905  0.75681433  0.86819542  1
  O  O272  1  0.23740718  0.12362634  0.50085635  1
  O  O273  1  0.24238685  0.12660658  0.99246643  1
  O  O274  1  0.23996395  0.62378724  0.49476215  1
  O  O275  1  0.24303855  0.63167607  0.99798398  1
  O  O276  1  0.73907534  0.12656032  0.49603443  1
  O  O277  1  0.74417287  0.12971424  0.99623061  1
  O  O278  1  0.74482643  0.62926503  0.49529640  1
  O  O279  1  0.74625143  0.62957442  0.99240890  1
  O  O280  1  0.25664861  0.37594817  0.00452527  1
  O  O281  1  0.25279905  0.37318967  0.50569201  1
  O  O282  1  0.25096171  0.86828010  0.00737025  1
  O  O283  1  0.25664674  0.87389407  0.50767803  1
  O  O284  1  0.75511796  0.37011695  0.00448387  1
  O  O285  1  0.75094637  0.37145082  0.51190764  1
  O  O286  1  0.75443730  0.87049121  0.00607541  1
  O  O287  1  0.75554614  0.87007470  0.50495972  1
  O  O288  1  0.13111618  0.49553558  0.24190040  1
  O  O289  1  0.13104701  0.49671303  0.74564503  1
  O  O290  1  0.12392370  0.99280616  0.24258647  1
  O  O291  1  0.13076346  0.99382442  0.74530198  1
  O  O292  1  0.63178826  0.49916923  0.24376347  1
  O  O293  1  0.62698025  0.49120553  0.74286985  1
  O  O294  1  0.62945691  0.99548301  0.24551882  1
  O  O295  1  0.63163730  0.99289426  0.74938378  1
  O  O296  1  0.37468963  0.00121653  0.26226630  1
  O  O297  1  0.37004994  0.00473662  0.75577690  1
  O  O298  1  0.37038105  0.50612357  0.25456843  1
  O  O299  1  0.36757321  0.50718977  0.74855221  1
  O  O300  1  0.87060251  0.00719956  0.25489726  1
  O  O301  1  0.86772353  0.00050481  0.75808909  1
  O  O302  1  0.86956354  0.50238277  0.25901990  1
  O  O303  1  0.87156370  0.51133213  0.75147736  1
  O  O304  1  0.12551735  0.38057138  0.35981073  1
  O  O305  1  0.11846921  0.36921716  0.86944303  1
  O  O306  1  0.11774278  0.87442695  0.37006936  1
  O  O307  1  0.11962688  0.87091617  0.87020194  1
  O  O308  1  0.61822892  0.36480044  0.37540356  1
  O  O309  1  0.62125346  0.36849117  0.86997299  1
  O  O310  1  0.61815578  0.87422984  0.36866341  1
  O  O311  1  0.61837322  0.87319628  0.86845294  1
  O  O312  1  0.38219634  0.13273990  0.12340011  1
  O  O313  1  0.37655130  0.13228577  0.63283371  1
  O  O314  1  0.37629688  0.63244824  0.13246580  1
  O  O315  1  0.37599602  0.63018387  0.63577132  1
  O  O316  1  0.88068884  0.12391746  0.13518010  1
  O  O317  1  0.88197682  0.13033967  0.62604258  1
  O  O318  1  0.88193119  0.63243215  0.12489537  1
  O  O319  1  0.87214399  0.63005414  0.63452911  1
  O  O320  1  0.25757863  0.25887224  0.12065716  1
  O  O321  1  0.26150422  0.25020631  0.62618700  1
  O  O322  1  0.25473835  0.75610515  0.11969309  1
  O  O323  1  0.25738537  0.75683592  0.62315745  1
  O  O324  1  0.75080426  0.25684030  0.11881084  1
  O  O325  1  0.75633811  0.25750780  0.62345080  1
  O  O326  1  0.75542045  0.75594516  0.12059503  1
  O  O327  1  0.75527794  0.75619532  0.61904533  1
  O  O328  1  0.24445401  0.24672172  0.37897867  1
  O  O329  1  0.24269699  0.24315705  0.87469669  1
  O  O330  1  0.24719331  0.74201493  0.37839798  1
  O  O331  1  0.24300499  0.74991558  0.88171349  1
  O  O332  1  0.73786379  0.24903804  0.37624953  1
  O  O333  1  0.74441042  0.24429958  0.88113565  1
  O  O334  1  0.74968562  0.74320522  0.38217859  1
  O  O335  1  0.74897455  0.74003726  0.88201687  1
  O  O336  1  0.00472150  0.11905136  0.00478253  1
  O  O337  1  0.00847536  0.11768076  0.50617500  1
  O  O338  1  0.00551835  0.62079155  0.00462511  1
  O  O339  1  0.00819406  0.61510587  0.49965945  1
  O  O340  1  0.50659181  0.11978948  0.00548031  1
  O  O341  1  0.51053769  0.11819558  0.50097397  1
  O  O342  1  0.50722533  0.61899801  -0.00020311  1
  O  O343  1  0.50692730  0.61762819  0.50171996  1
  O  O344  1  0.49645358  0.38157262  0.49277520  1
  O  O345  1  0.49584534  0.38073840  0.99416160  1
  O  O346  1  0.49504276  0.87982812  0.49489114  1
  O  O347  1  0.49940103  0.88208975  0.99405149  1
  O  O348  1  1.00174414  0.38924967  0.49744854  1
  O  O349  1  0.99533798  0.37995702  0.99495411  1
  O  O350  1  0.99404673  0.87950655  0.49615593  1
  O  O351  1  0.99424966  0.88085874  0.99533442  1
  O  O352  1  0.49499571  0.49482990  0.37965890  1
  O  O353  1  0.50017426  0.49225746  0.88119520  1
  O  O354  1  0.49156546  0.99416208  0.38058011  1
  O  O355  1  0.49509873  0.99519455  0.88081731  1
  O  O356  1  0.99136349  0.50069479  0.38192704  1
  O  O357  1  0.99890790  0.49251023  0.88136473  1
  O  O358  1  0.99361904  0.99263124  0.38189873  1
  O  O359  1  0.99436500  0.99445705  0.88113309  1
  O  O360  1  0.00547074  0.00500778  0.11865172  1
  O  O361  1  0.00508274  0.00349622  0.62049228  1
  O  O362  1  0.00583886  0.50697657  0.11776600  1
  O  O363  1  0.00444391  0.50300859  0.61520655  1
  O  O364  1  0.50491566  0.00521109  0.12070510  1
  O  O365  1  0.50312837  0.00230533  0.61654606  1
  O  O366  1  0.50725405  0.50168646  0.11775561  1
  O  O367  1  0.50693066  0.49908319  0.61828010  1
  O  O368  1  0.24339061  0.38323454  0.24190535  1
  O  O369  1  0.24317117  0.38471377  0.74941057  1
  O  O370  1  0.24232840  0.87714087  0.24327307  1
  O  O371  1  0.24467153  0.88038217  0.74511166  1
  O  O372  1  0.74762825  0.38252088  0.24289641  1
  O  O373  1  0.74452528  0.37372413  0.73959057  1
  O  O374  1  0.74528553  0.88039334  0.24472129  1
  O  O375  1  0.74497942  0.87924484  0.74584850  1
  O  O376  1  0.25328100  0.11997873  0.25218672  1
  O  O377  1  0.25472435  0.11764719  0.75627472  1
  O  O378  1  0.25491745  0.62050434  0.25428678  1
  O  O379  1  0.25818232  0.61684869  0.75017682  1
  O  O380  1  0.75967248  0.11842004  0.25059801  1
  O  O381  1  0.75044427  0.11811056  0.75800160  1
  O  O382  1  0.75239546  0.61856850  0.25718767  1
  O  O383  1  0.75731563  0.62520976  0.75842134  1
  O  O384  1  0.37519199  0.11321934  0.37593300  1
  O  O385  1  0.36960138  0.11968006  0.87028425  1
  O  O386  1  0.36966963  0.61976129  0.36918191  1
  O  O387  1  0.37269816  0.62322082  0.86107532  1
  O  O388  1  0.87637411  0.11874375  0.36610635  1
  O  O389  1  0.86786412  0.11761993  0.87515425  1
  O  O390  1  0.86890523  0.61381141  0.37474507  1
  O  O391  1  0.86640468  0.62556892  0.86732792  1
  O  O392  1  0.13068399  0.38266865  0.12947485  1
  O  O393  1  0.12470244  0.38233237  0.63329577  1
  O  O394  1  0.12923755  0.88084894  0.13012719  1
  O  O395  1  0.12989348  0.87967683  0.63018410  1
  O  O396  1  0.63256776  0.38253450  0.12554735  1
  O  O397  1  0.63225355  0.37624274  0.62909629  1
  O  O398  1  0.63033545  0.88120887  0.13107304  1
  O  O399  1  0.63223184  0.87650958  0.63149585  1
  O  O400  1  0.12618613  0.26500572  0.24674732  1
  O  O401  1  0.11912545  0.25491157  0.75481601  1
  O  O402  1  0.11731062  0.75749546  0.25093683  1
  O  O403  1  0.12454814  0.75635585  0.75582782  1
  O  O404  1  0.61862848  0.24984824  0.26061865  1
  O  O405  1  0.62008235  0.25371894  0.75611480  1
  O  O406  1  0.61890359  0.75715336  0.25140276  1
  O  O407  1  0.61818752  0.75609445  0.75125300  1
  O  O408  1  0.38133784  0.25060938  0.24162001  1
  O  O409  1  0.38020911  0.24402443  0.74451012  1
  O  O410  1  0.37990530  0.74562819  0.24501043  1
  O  O411  1  0.37928577  0.74219673  0.74502669  1
  O  O412  1  0.87519550  0.23785128  0.24960501  1
  O  O413  1  0.88244605  0.24664236  0.74304768  1
  O  O414  1  0.88167685  0.74921061  0.24300374  1
  O  O415  1  0.87466945  0.74076087  0.74460694  1
  O  O416  1  0.38143614  0.50093102  0.49328310  1
  O  O417  1  0.38196956  0.49488244  0.99732004  1
  O  O418  1  0.38057167  0.99430857  0.49366765  1
  O  O419  1  0.38212633  0.99914684  0.99325891  1
  O  O420  1  0.88354241  0.49989928  0.49231007  1
  O  O421  1  0.88225439  0.49337157  0.99757918  1
  O  O422  1  0.88008396  0.99420466  0.49574520  1
  O  O423  1  0.87961671  0.99439215  0.99573872  1
  O  O424  1  0.11854734  0.00562041  0.00478082  1
  O  O425  1  0.11927731  0.00519464  0.50696266  1
  O  O426  1  0.11964484  0.50586147  0.00376769  1
  O  O427  1  0.11812302  0.50842905  0.50382297  1
  O  O428  1  0.61988926  0.00585365  0.00695549  1
  O  O429  1  0.61975600  0.00936363  0.49844053  1
  O  O430  1  0.62060133  0.50549580  0.00528246  1
  O  O431  1  0.61918903  0.50404460  0.50478608  1
  O  O432  1  0.37082636  0.37149582  0.11825177  1
  O  O433  1  0.37305027  0.36225974  0.62559209  1
  O  O434  1  0.36802134  0.86878481  0.12415560  1
  O  O435  1  0.36991934  0.87020897  0.62079457  1
  O  O436  1  0.86828372  0.37461482  0.11822292  1
  O  O437  1  0.86655101  0.36922193  0.62409211  1
  O  O438  1  0.86942776  0.87106262  0.11985044  1
  O  O439  1  0.86906054  0.86994059  0.61970657  1
  O  O440  1  0.12452848  0.12224843  0.38779891  1
  O  O441  1  0.12937981  0.12937095  0.87953430  1
  O  O442  1  0.13058122  0.62450443  0.38411083  1
  O  O443  1  0.12551237  0.63278660  0.88112280  1
  O  O444  1  0.62436146  0.13369297  0.38236622  1
  O  O445  1  0.63049447  0.13002233  0.88214968  1
  O  O446  1  0.63221950  0.62551486  0.38279179  1
  O  O447  1  0.63492590  0.62618943  0.87958290  1
