# generated using pymatgen
data_V3Zn3O8
_symmetry_space_group_name_H-M   'P 1'
_cell_length_a   17.08644448
_cell_length_b   17.08513127
_cell_length_c   17.08512722
_cell_angle_alpha   90.00030631
_cell_angle_beta   89.99468133
_cell_angle_gamma   89.99937472
_symmetry_Int_Tables_number   1
_chemical_formula_structural   V3Zn3O8
_chemical_formula_sum   'V96 Zn96 O256'
_cell_volume   4987.56116295
_cell_formula_units_Z   32
loop_
 _symmetry_equiv_pos_site_id
 _symmetry_equiv_pos_as_xyz
  1  'x, y, z'
loop_
 _atom_site_type_symbol
 _atom_site_label
 _atom_site_symmetry_multiplicity
 _atom_site_fract_x
 _atom_site_fract_y
 _atom_site_fract_z
 _atom_site_occupancy
  V  V0  1  0.00018031  0.00109510  0.49907162  1
  V  V1  1  0.50042612  0.50001882  0.50066992  1
  V  V2  1  0.75035602  0.62540375  0.87600549  1
  V  V3  1  0.62393743  0.24913905  0.87512424  1
  V  V4  1  0.75006146  0.25040860  0.49969846  1
  V  V5  1  0.87564290  0.00047964  0.37537234  1
  V  V6  1  0.12551941  0.62482991  -0.00039810  1
  V  V7  1  0.00094890  0.87399379  0.87395904  1
  V  V8  1  0.50070497  0.37562842  0.37548018  1
  V  V9  1  0.62563463  0.00031127  0.12549805  1
  V  V10  1  0.37426082  0.62396183  0.75168576  1
  V  V11  1  0.12403457  0.24932507  0.87462892  1
  V  V12  1  -0.00040379  0.25013553  0.74915283  1
  V  V13  1  0.62495374  0.87519987  0.75243734  1
  V  V14  1  -0.00044433  0.75079762  0.25094554  1
  V  V15  1  0.49982795  0.87504154  0.37613536  1
  V  V16  1  0.25074691  0.25057075  0.49916066  1
  V  V17  1  0.12452538  0.00076881  0.62373670  1
  V  V18  1  0.87630440  0.74956311  0.12572703  1
  V  V19  1  0.75014065  0.62452903  0.37423352  1
  V  V20  1  0.37598699  -0.00273629  0.87616184  1
  V  V21  1  0.87710427  0.87436474  -0.00081290  1
  V  V22  1  0.24850609  0.12448920  0.87390594  1
  V  V23  1  0.62496965  0.62550766  0.50128328  1
  V  V24  1  0.87583358  0.12547749  0.24924267  1
  V  V25  1  -0.00081704  -0.00115154  -0.00182693  1
  V  V26  1  -0.00121606  0.37531074  0.87524830  1
  V  V27  1  0.75001333  0.37554220  0.62492862  1
  V  V28  1  0.62497788  -0.00020771  0.62475257  1
  V  V29  1  0.37577487  0.75031894  0.12624126  1
  V  V30  1  0.37555554  0.12378847  0.24977063  1
  V  V31  1  0.00013995  0.12515724  0.62326007  1
  V  V32  1  0.87518503  0.49899992  0.87537507  1
  V  V33  1  0.25023617  0.12489532  0.37403895  1
  V  V34  1  0.87602184  0.37595905  0.49871714  1
  V  V35  1  0.74925274  0.25049593  0.00016250  1
  V  V36  1  0.12475522  0.87500158  0.74806428  1
  V  V37  1  0.25024736  0.50008102  0.75053469  1
  V  V38  1  -0.00019717  0.87621718  0.37457945  1
  V  V39  1  0.00095270  0.74972651  0.74853206  1
  V  V40  1  0.25014518  0.62393457  0.37463204  1
  V  V41  1  0.25059656  0.75151248  0.50107559  1
  V  V42  1  0.25021904  0.37430153  0.62545139  1
  V  V43  1  0.50059820  0.62442219  0.62721435  1
  V  V44  1  0.62568921  0.87569464  0.25016695  1
  V  V45  1  0.87342350  0.12453581  0.74981801  1
  V  V46  1  0.74979719  -0.00021140  0.25026893  1
  V  V47  1  0.50005987  0.74963869  0.24987358  1
  V  V48  1  0.74964618  0.87395870  0.62559023  1
  V  V49  1  0.25056889  0.75004951  -0.00018094  1
  V  V50  1  0.12471110  0.87535265  0.24980281  1
  V  V51  1  0.12543204  -0.00071294  0.12447342  1
  V  V52  1  0.00041150  0.62595138  0.12667202  1
  V  V53  1  0.24942557  0.24996948  0.00012275  1
  V  V54  1  0.37528068  0.87513425  0.49995533  1
  V  V55  1  0.49908341  0.24963547  0.74964070  1
  V  V56  1  -0.00029810  0.62518894  0.62400553  1
  V  V57  1  0.62468442  0.25080681  0.37483584  1
  V  V58  1  0.62467293  0.75001836  0.37594626  1
  V  V59  1  0.24892178  -0.00087944  0.74797044  1
  V  V60  1  0.37444673  0.25085247  0.12308407  1
  V  V61  1  0.49978125  0.62543983  0.12614679  1
  V  V62  1  0.37554327  0.24985678  0.62594156  1
  V  V63  1  0.12414040  0.62480602  0.50009551  1
  V  V64  1  0.87518628  0.25031854  0.62407542  1
  V  V65  1  0.12323489  0.12443805  -0.00102044  1
  V  V66  1  0.75009107  0.12521942  0.37511579  1
  V  V67  1  0.49973407  -0.00045173  0.49996223  1
  V  V68  1  0.50021369  0.74994597  0.75335066  1
  V  V69  1  0.62543612  0.37481658  0.25061069  1
  V  V70  1  0.37478230  0.12502308  0.74916807  1
  V  V71  1  -0.00002622  0.24991218  0.24888504  1
  V  V72  1  -0.00025882  0.37540667  0.37442816  1
  V  V73  1  0.12512264  0.37497680  0.75009099  1
  V  V74  1  0.87408664  0.37486570  -0.00026751  1
  V  V75  1  0.49855445  0.49925568  0.00077570  1
  V  V76  1  -0.00094349  0.12494768  0.12433845  1
  V  V77  1  0.62550858  0.50027438  0.62612521  1
  V  V78  1  0.75022590  0.75005981  0.00096891  1
  V  V79  1  0.75033986  0.50015968  0.75134604  1
  V  V80  1  0.50055511  0.12372187  0.12419129  1
  V  V81  1  0.75039736  0.12451611  0.87372511  1
  V  V82  1  0.75088811  0.50119288  0.25018767  1
  V  V83  1  0.62426800  0.37456533  0.75063886  1
  V  V84  1  0.62507390  0.12360717  0.00045962  1
  V  V85  1  0.37541595  0.49978741  0.37609225  1
  V  V86  1  0.49864764  0.37518507  0.87677215  1
  V  V87  1  0.74945613  0.75018821  0.50144708  1
  V  V88  1  0.24990525  0.87479268  0.12581269  1
  V  V89  1  0.87489255  0.75001557  0.62497900  1
  V  V90  1  0.62433588  0.50031341  0.12516451  1
  V  V91  1  0.62430955  0.12456865  0.50041316  1
  V  V92  1  0.12627460  0.49929874  0.12590799  1
  V  V93  1  0.12624004  0.37453335  0.24932699  1
  V  V94  1  -0.00024803  0.50019935  0.49970774  1
  V  V95  1  0.74984510  0.37506620  0.12438038  1
  Zn  Zn96  1  0.12603761  0.74841163  0.87174763  1
  Zn  Zn97  1  0.87527056  0.50182273  0.37302704  1
  Zn  Zn98  1  0.37604909  0.37526266  0.50076406  1
  Zn  Zn99  1  0.87404611  -0.00045008  0.87287500  1
  Zn  Zn100  1  0.62540746  0.75182431  0.87799631  1
  Zn  Zn101  1  0.37457190  0.75237492  0.62700515  1
  Zn  Zn102  1  0.87431169  0.25018681  0.12424614  1
  Zn  Zn103  1  0.87457730  0.87567872  0.50041768  1
  Zn  Zn104  1  0.87700430  0.62452316  0.74983436  1
  Zn  Zn105  1  0.37234307  0.37555130  -0.00029348  1
  Zn  Zn106  1  0.50150749  -0.00360390  -0.00078176  1
  Zn  Zn107  1  0.50007600  0.87449638  0.87767929  1
  Zn  Zn108  1  0.62337012  0.62756510  0.00062918  1
  Zn  Zn109  1  0.24951217  0.62455334  0.87478559  1
  Zn  Zn110  1  0.12336098  0.75128967  0.37524788  1
  Zn  Zn111  1  0.12481685  0.12574599  0.49786178  1
  Zn  Zn112  1  0.37496223  0.62461457  0.25086806  1
  Zn  Zn113  1  0.87536714  0.62465082  0.25117653  1
  Zn  Zn114  1  0.25210753  0.49902695  0.25075917  1
  Zn  Zn115  1  0.25022095  -0.00107897  0.24990614  1
  Zn  Zn116  1  0.37369877  0.49806975  0.87799891  1
  Zn  Zn117  1  0.12564455  0.25035435  0.37434747  1
  Zn  Zn118  1  0.50082674  0.25050158  0.24992608  1
  Zn  Zn119  1  0.25082865  0.87642888  0.62343303  1
  Zn  Zn120  1  0.75102460  0.87525209  0.12523694  1
  Zn  Zn121  1  0.25106808  0.37560004  0.12451091  1
  Zn  Zn122  1  -0.00018008  0.49966722  -0.00013954  1
  Zn  Zn123  1  0.75093930  -0.00016942  0.75055829  1
  Zn  Zn124  1  0.37528106  -0.00046150  0.37473525  1
  Zn  Zn125  1  0.50010260  0.12486690  0.62447628  1
  Zn  Zn126  1  0.37822020  0.87527123  0.00096185  1
  Zn  Zn127  1  0.12391506  0.49944816  0.62487698  1
  Zn  Zn128  1  0.18756074  0.18726102  0.18635866  1
  Zn  Zn129  1  0.18696648  0.18624885  0.68644881  1
  Zn  Zn130  1  0.18703435  0.68878087  0.18898181  1
  Zn  Zn131  1  0.18581955  0.68725116  0.68444293  1
  Zn  Zn132  1  0.68800206  0.18789480  0.18771773  1
  Zn  Zn133  1  0.68708136  0.18709846  0.68695524  1
  Zn  Zn134  1  0.68668161  0.68664006  0.18713978  1
  Zn  Zn135  1  0.68786318  0.68805469  0.68962226  1
  Zn  Zn136  1  0.31389696  0.31274704  0.31181112  1
  Zn  Zn137  1  0.31332764  0.31309623  0.81391246  1
  Zn  Zn138  1  0.31314049  0.81216204  0.31279072  1
  Zn  Zn139  1  0.30998726  0.81282210  0.81277509  1
  Zn  Zn140  1  0.81366219  0.31321114  0.31155625  1
  Zn  Zn141  1  0.81199658  0.31144045  0.81300832  1
  Zn  Zn142  1  0.81323190  0.81270120  0.31325878  1
  Zn  Zn143  1  0.81525254  0.81216458  0.81206019  1
  Zn  Zn144  1  0.18597826  0.43759523  0.43819274  1
  Zn  Zn145  1  0.18820192  0.43598682  0.93721770  1
  Zn  Zn146  1  0.18654390  0.93953387  0.43617018  1
  Zn  Zn147  1  0.18687043  0.93574981  0.93601839  1
  Zn  Zn148  1  0.68794910  0.43859081  0.43699054  1
  Zn  Zn149  1  0.68566839  0.43773656  0.93837474  1
  Zn  Zn150  1  0.68715131  0.93711375  0.43844333  1
  Zn  Zn151  1  0.69007190  0.93895899  0.93732935  1
  Zn  Zn152  1  0.31092801  0.06233509  0.06112303  1
  Zn  Zn153  1  0.31379816  0.06263118  0.56213206  1
  Zn  Zn154  1  0.31307378  0.56410641  0.06577297  1
  Zn  Zn155  1  0.31340251  0.56274691  0.56404244  1
  Zn  Zn156  1  0.81255245  0.06168885  0.06186842  1
  Zn  Zn157  1  0.81197695  0.06091974  0.56332186  1
  Zn  Zn158  1  0.81408685  0.56211412  0.06324575  1
  Zn  Zn159  1  0.81417929  0.56308995  0.56175623  1
  Zn  Zn160  1  0.43801779  0.43734723  0.18988416  1
  Zn  Zn161  1  0.43624030  0.43639136  0.68784972  1
  Zn  Zn162  1  0.43829208  0.93715109  0.18653442  1
  Zn  Zn163  1  0.43716708  0.93689879  0.68580280  1
  Zn  Zn164  1  0.93697934  0.43837189  0.18660488  1
  Zn  Zn165  1  0.93676429  0.43885959  0.68696879  1
  Zn  Zn166  1  0.93702098  0.93723708  0.18651298  1
  Zn  Zn167  1  0.93681361  0.93783442  0.68699222  1
  Zn  Zn168  1  0.06440606  0.06262328  0.31154342  1
  Zn  Zn169  1  0.06037105  0.06102115  0.81095009  1
  Zn  Zn170  1  0.06204942  0.56260085  0.31334417  1
  Zn  Zn171  1  0.06250681  0.56245607  0.81226942  1
  Zn  Zn172  1  0.56171503  0.06259061  0.31309125  1
  Zn  Zn173  1  0.56163274  0.06245570  0.81190237  1
  Zn  Zn174  1  0.56317670  0.56292835  0.31230326  1
  Zn  Zn175  1  0.56408391  0.56234336  0.81584188  1
  Zn  Zn176  1  0.43823618  0.18817626  0.43782749  1
  Zn  Zn177  1  0.43779748  0.18444503  0.93777921  1
  Zn  Zn178  1  0.43670538  0.68777528  0.43818958  1
  Zn  Zn179  1  0.43565834  0.68534678  0.93779332  1
  Zn  Zn180  1  0.93868780  0.18863831  0.43570217  1
  Zn  Zn181  1  0.93535378  0.18806821  0.93671120  1
  Zn  Zn182  1  0.93536221  0.68839168  0.43710475  1
  Zn  Zn183  1  0.93857132  0.68789397  0.93685579  1
  Zn  Zn184  1  0.06063283  0.31185084  0.06210544  1
  Zn  Zn185  1  0.06449018  0.31298326  0.56179634  1
  Zn  Zn186  1  0.06282606  0.81205571  0.06325663  1
  Zn  Zn187  1  0.06257382  0.81383410  0.56109998  1
  Zn  Zn188  1  0.56170359  0.31223185  0.06307394  1
  Zn  Zn189  1  0.56227375  0.31251745  0.56224244  1
  Zn  Zn190  1  0.56288395  0.81507268  0.06255687  1
  Zn  Zn191  1  0.56138119  0.81235957  0.56561844  1
  O  O192  1  0.11919653  0.11970882  0.11856518  1
  O  O193  1  0.11736467  0.11909464  0.62353914  1
  O  O194  1  0.12165440  0.61769861  0.11917125  1
  O  O195  1  0.11748106  0.62252173  0.61711497  1
  O  O196  1  0.62042517  0.12035700  0.12060631  1
  O  O197  1  0.62406313  0.11908539  0.61782540  1
  O  O198  1  0.61775709  0.61812596  0.12287943  1
  O  O199  1  0.62055959  0.61932487  0.62164059  1
  O  O200  1  0.38091812  0.38328723  0.37647793  1
  O  O201  1  0.38336517  0.37696893  0.87859162  1
  O  O202  1  0.38237335  0.87660331  0.38095948  1
  O  O203  1  0.37422798  0.88691435  0.87516293  1
  O  O204  1  0.88159521  0.37621072  0.38172105  1
  O  O205  1  0.87909910  0.37942185  0.87966533  1
  O  O206  1  0.88138850  0.88329323  0.37624369  1
  O  O207  1  0.88303663  0.87586899  0.88131350  1
  O  O208  1  0.25371357  0.01277248  0.37295647  1
  O  O209  1  0.25597061  0.00517595  0.86868299  1
  O  O210  1  0.25730794  0.50873584  0.37785050  1
  O  O211  1  0.25171043  0.50091772  0.86281545  1
  O  O212  1  0.75472685  0.00619793  0.37063233  1
  O  O213  1  0.75318922  0.00905464  0.87170638  1
  O  O214  1  0.74958198  0.50670568  0.36856477  1
  O  O215  1  0.75408390  0.50661165  0.87156512  1
  O  O216  1  0.23868367  0.49890675  0.12874644  1
  O  O217  1  0.24967014  0.49401474  0.63512502  1
  O  O218  1  0.24286539  0.99354843  0.12484056  1
  O  O219  1  0.24310174  1.00047590  0.63047996  1
  O  O220  1  0.74364402  0.49484486  0.12910910  1
  O  O221  1  0.74480847  0.49517535  0.63065693  1
  O  O222  1  0.74394761  0.99915027  0.13268544  1
  O  O223  1  0.74232049  0.99253870  0.62668444  1
  O  O224  1  0.00771014  0.37057330  0.25349387  1
  O  O225  1  0.00470026  0.36934205  0.75459868  1
  O  O226  1  0.00525405  0.87076427  0.25466678  1
  O  O227  1  0.00542196  0.86948960  0.75366575  1
  O  O228  1  0.50790588  0.37340578  0.25751941  1
  O  O229  1  0.50561718  0.37012734  0.75596167  1
  O  O230  1  0.50610994  0.86967571  0.25605723  1
  O  O231  1  0.50762798  0.86552733  0.75037346  1
  O  O232  1  0.49079840  0.12722375  0.24489294  1
  O  O233  1  0.49330987  0.13249953  0.74822880  1
  O  O234  1  0.49977446  0.63216235  0.24443440  1
  O  O235  1  0.49441935  0.63024801  0.74742916  1
  O  O236  1  0.99552131  0.12975723  0.24433870  1
  O  O237  1  0.99427830  0.13163658  0.74356325  1
  O  O238  1  1.00022025  0.63227884  0.24424277  1
  O  O239  1  0.99996808  0.63110870  0.74301278  1
  O  O240  1  0.36905307  0.24691540  0.00932664  1
  O  O241  1  0.36551626  0.25153657  0.50564132  1
  O  O242  1  0.36463036  0.74877285  0.00603056  1
  O  O243  1  0.36657002  0.75485529  0.50169897  1
  O  O244  1  0.86694159  0.25706119  0.00050703  1
  O  O245  1  0.86945447  0.25560592  0.50484665  1
  O  O246  1  0.86923125  0.75441005  0.00547861  1
  O  O247  1  0.86680247  0.75232404  0.50712584  1
  O  O248  1  0.13860952  0.24833523  0.49809509  1
  O  O249  1  0.12865120  0.24385347  0.99400460  1
  O  O250  1  0.13446877  0.74478529  0.49728915  1
  O  O251  1  0.13421374  0.73984554  1.00292473  1
  O  O252  1  0.63123673  0.24526728  0.49498978  1
  O  O253  1  0.62957838  0.24440210  0.99435804  1
  O  O254  1  0.62878493  0.74435957  0.49620242  1
  O  O255  1  0.63720177  0.74933348  0.99862895  1
  O  O256  1  0.49046986  0.24302901  0.12577126  1
  O  O257  1  0.49387221  0.24998250  0.63182411  1
  O  O258  1  0.49561280  0.74523369  0.13013180  1
  O  O259  1  0.49937289  0.74292306  0.63766813  1
  O  O260  1  0.99779546  0.24240879  0.13056572  1
  O  O261  1  0.99464556  0.24588043  0.62931018  1
  O  O262  1  0.99569231  0.74535308  0.13082835  1
  O  O263  1  0.99480429  0.74509335  0.62838293  1
  O  O264  1  0.00368203  0.25660161  0.36752281  1
  O  O265  1  0.00479418  0.25506816  0.86845524  1
  O  O266  1  0.00056036  0.75754248  0.36926922  1
  O  O267  1  0.00297850  0.75563643  0.86772173  1
  O  O268  1  0.50701563  0.25724152  0.37438562  1
  O  O269  1  0.50493499  0.25436141  0.87000542  1
  O  O270  1  0.50606756  0.75466093  0.37089352  1
  O  O271  1  0.50206287  0.74892682  0.86362765  1
  O  O272  1  0.25166454  0.13395064  0.49045412  1
  O  O273  1  0.24194952  0.13002451  0.99336244  1
  O  O274  1  0.24635135  0.63157496  0.49374646  1
  O  O275  1  0.24233143  0.63283597  1.00129712  1
  O  O276  1  0.74499114  0.13091983  0.49442646  1
  O  O277  1  0.74455845  0.13094024  0.99459602  1
  O  O278  1  0.74296437  0.63010832  0.49590462  1
  O  O279  1  0.75073696  0.63348333  0.99276076  1
  O  O280  1  0.25189308  0.36619766  0.00329456  1
  O  O281  1  0.25138682  0.36602812  0.50505776  1
  O  O282  1  0.24880160  0.86355191  0.00624825  1
  O  O283  1  0.25486448  0.86588013  0.49711134  1
  O  O284  1  0.75349817  0.36991228  0.00459296  1
  O  O285  1  0.75464340  0.37011802  0.50553052  1
  O  O286  1  0.75685530  0.86416926  -0.00045158  1
  O  O287  1  0.74900438  0.86735615  0.50724597  1
  O  O288  1  0.12505126  0.49141448  0.24191210  1
  O  O289  1  0.13432275  0.49415057  0.74884310  1
  O  O290  1  0.12670360  0.99396832  0.24157092  1
  O  O291  1  0.12948403  0.99530658  0.74375581  1
  O  O292  1  0.63019465  0.49404693  0.24448167  1
  O  O293  1  0.63017002  0.49407382  0.74557530  1
  O  O294  1  0.63068121  0.99578685  0.24618960  1
  O  O295  1  0.62412760  0.98980925  0.74420093  1
  O  O296  1  0.37297384  0.01292471  0.25023035  1
  O  O297  1  0.36923520  0.00490613  0.75617920  1
  O  O298  1  0.37287863  0.50246394  0.26171513  1
  O  O299  1  0.36735835  0.50777620  0.75064870  1
  O  O300  1  0.87004705  0.00597473  0.25533876  1
  O  O301  1  0.87254721  0.00901404  0.75093602  1
  O  O302  1  0.86658546  0.50255490  0.25132274  1
  O  O303  1  0.86740696  0.50057878  0.75708467  1
  O  O304  1  0.11965542  0.37479952  0.36415758  1
  O  O305  1  0.11885904  0.36859427  0.86949667  1
  O  O306  1  0.11789615  0.87546878  0.36750436  1
  O  O307  1  0.11861303  0.87283977  0.86648128  1
  O  O308  1  0.62086926  0.37024414  0.37032715  1
  O  O309  1  0.61956677  0.36891454  0.86974084  1
  O  O310  1  0.61952716  0.86897356  0.37033107  1
  O  O311  1  0.62413867  0.87428295  0.86326355  1
  O  O312  1  0.37849460  0.13133678  0.13135355  1
  O  O313  1  0.37663018  0.13185293  0.63192891  1
  O  O314  1  0.38170117  0.63195644  0.12919674  1
  O  O315  1  0.38159905  0.62602326  0.63694975  1
  O  O316  1  0.88139692  0.12574060  0.13137584  1
  O  O317  1  0.87974001  0.13178387  0.62897175  1
  O  O318  1  0.88318167  0.63137334  0.12582858  1
  O  O319  1  0.88141328  0.63183822  0.62645176  1
  O  O320  1  0.25910769  0.24848837  0.11840694  1
  O  O321  1  0.25522671  0.25348503  0.61797220  1
  O  O322  1  0.25501648  0.75389885  0.11815881  1
  O  O323  1  0.25187472  0.75087748  0.61127810  1
  O  O324  1  0.75011846  0.25709584  0.11810641  1
  O  O325  1  0.75496337  0.25623030  0.61916402  1
  O  O326  1  0.75598193  0.74973478  0.11519919  1
  O  O327  1  0.75402974  0.75390388  0.62063437  1
  O  O328  1  0.25131035  0.24294502  0.38280701  1
  O  O329  1  0.24354731  0.24392455  0.87924955  1
  O  O330  1  0.25018485  0.74019015  0.38467058  1
  O  O331  1  0.24719281  0.74712640  0.88687288  1
  O  O332  1  0.74505255  0.24505698  0.38060580  1
  O  O333  1  0.74239236  0.24542835  0.88025343  1
  O  O334  1  0.74313379  0.74543529  0.38093929  1
  O  O335  1  0.75257994  0.74125822  0.88376238  1
  O  O336  1  0.00453238  0.11997608  0.00357161  1
  O  O337  1  0.00161055  0.12051174  0.50531713  1
  O  O338  1  0.01121281  0.62477906  0.00656284  1
  O  O339  1  0.00491572  0.62065251  0.50365371  1
  O  O340  1  0.50800074  0.12200431  0.00602875  1
  O  O341  1  0.50685893  0.11874295  0.50059750  1
  O  O342  1  0.50116863  0.61631742  0.00580229  1
  O  O343  1  0.50577349  0.62029028  0.50681334  1
  O  O344  1  0.49991270  0.38270895  0.49379222  1
  O  O345  1  0.49874766  0.38381899  0.99596740  1
  O  O346  1  0.49577817  0.87861255  0.49527043  1
  O  O347  1  0.49632980  0.87800942  0.99463531  1
  O  O348  1  0.99599542  0.37911878  0.49490326  1
  O  O349  1  0.99362332  0.37582337  0.99245064  1
  O  O350  1  0.99833641  0.88293106  0.49266322  1
  O  O351  1  0.99680761  0.87874149  0.99447741  1
  O  O352  1  0.49451295  0.49647009  0.38118883  1
  O  O353  1  0.50011410  0.49477405  0.88521098  1
  O  O354  1  0.49957976  0.99268285  0.38188981  1
  O  O355  1  0.48683513  0.99977723  0.87454324  1
  O  O356  1  0.99831225  0.49334842  0.38159069  1
  O  O357  1  0.99382256  0.49313792  0.87603963  1
  O  O358  1  0.99472308  0.99690315  0.37898251  1
  O  O359  1  0.99863703  0.99276180  0.88129423  1
  O  O360  1  0.00583060  0.00527257  0.11815843  1
  O  O361  1  0.00446562  0.00629525  0.61885801  1
  O  O362  1  0.01136238  0.50563598  0.12299355  1
  O  O363  1  0.00041317  0.50634500  0.61825613  1
  O  O364  1  0.50760583  0.00670930  0.12408027  1
  O  O365  1  0.50737447  0.00114300  0.61794711  1
  O  O366  1  0.50436674  0.50432102  0.11918562  1
  O  O367  1  0.50630525  0.50458796  0.62161080  1
  O  O368  1  0.23806163  0.37614993  0.24833715  1
  O  O369  1  0.24535251  0.38125873  0.74602447  1
  O  O370  1  0.24371014  0.87569466  0.24415912  1
  O  O371  1  0.24305022  0.88100742  0.74686162  1
  O  O372  1  0.74438719  0.38030322  0.24450148  1
  O  O373  1  0.74391616  0.37972720  0.74486285  1
  O  O374  1  0.74333227  0.88185853  0.25013315  1
  O  O375  1  0.73981171  0.87341383  0.74509006  1
  O  O376  1  0.25862783  0.12624233  0.25736744  1
  O  O377  1  0.25454958  0.11968900  0.75548199  1
  O  O378  1  0.25057647  0.62413235  0.26382162  1
  O  O379  1  0.25687390  0.61778818  0.74837446  1
  O  O380  1  0.75516360  0.11993540  0.25629860  1
  O  O381  1  0.75542444  0.12566420  0.75566414  1
  O  O382  1  0.74950157  0.61901070  0.25640803  1
  O  O383  1  0.75141882  0.61937775  0.75983722  1
  O  O384  1  0.36818576  0.12670105  0.36520535  1
  O  O385  1  0.36803971  0.11759230  0.86901987  1
  O  O386  1  0.36692539  0.61718195  0.37626247  1
  O  O387  1  0.37247615  0.62105088  0.86236319  1
  O  O388  1  0.86942178  0.12035169  0.36906109  1
  O  O389  1  0.86806202  0.12585476  0.86732827  1
  O  O390  1  0.86532610  0.62322533  0.37279204  1
  O  O391  1  0.86557140  0.61864181  0.87464500  1
  O  O392  1  0.12386456  0.38314865  0.13228859  1
  O  O393  1  0.13195061  0.37581414  0.63306979  1
  O  O394  1  0.12982379  0.87991288  0.13021820  1
  O  O395  1  0.12608058  0.88334924  0.63032309  1
  O  O396  1  0.62982220  0.38024694  0.13053751  1
  O  O397  1  0.63072344  0.38060113  0.63068194  1
  O  O398  1  0.62778657  0.88187037  0.13321725  1
  O  O399  1  0.62936257  0.87868626  0.63437255  1
  O  O400  1  0.11953114  0.26013147  0.24803215  1
  O  O401  1  0.11949244  0.25472751  0.75531457  1
  O  O402  1  0.11788928  0.75740460  0.25194925  1
  O  O403  1  0.11938578  0.75621783  0.74908505  1
  O  O404  1  0.62465932  0.25629884  0.25714944  1
  O  O405  1  0.61934066  0.25548441  0.75524824  1
  O  O406  1  0.61998501  0.75574811  0.25584445  1
  O  O407  1  0.61682394  0.75781735  0.75181471  1
  O  O408  1  0.37574817  0.24050729  0.24051283  1
  O  O409  1  0.37921624  0.24452823  0.74588057  1
  O  O410  1  0.38272317  0.74846966  0.24441187  1
  O  O411  1  0.38213361  0.74184156  0.75014542  1
  O  O412  1  0.88129262  0.24318647  0.24794844  1
  O  O413  1  0.88021163  0.24612065  0.74310565  1
  O  O414  1  0.88141667  0.74942348  0.24313450  1
  O  O415  1  0.88286688  0.74780721  0.74270198  1
  O  O416  1  0.38192569  0.49924568  0.49330211  1
  O  O417  1  0.38607843  0.49872696  1.00151595  1
  O  O418  1  0.38184671  0.99383579  0.49806635  1
  O  O419  1  0.37450289  0.99992355  0.98747261  1
  O  O420  1  0.88126349  0.49249146  0.49862891  1
  O  O421  1  0.87661964  0.49277675  0.99337515  1
  O  O422  1  0.88131103  0.99952749  0.49310715  1
  O  O423  1  0.88202719  0.99269301  0.99871943  1
  O  O424  1  0.11927167  0.00520599  0.00430299  1
  O  O425  1  0.11853983  0.00379736  0.50542210  1
  O  O426  1  0.12613054  0.50804363  0.00880461  1
  O  O427  1  0.11818160  0.50601439  0.50264050  1
  O  O428  1  0.62610775  0.00640501  0.00710677  1
  O  O429  1  0.61969654  0.00509355  0.50483294  1
  O  O430  1  0.61439176  0.50087185  0.00656740  1
  O  O431  1  0.62039038  0.50597745  0.50671821  1
  O  O432  1  0.37401373  0.36199242  0.12577212  1
  O  O433  1  0.36787889  0.36790844  0.62410393  1
  O  O434  1  0.36826569  0.86843857  0.12365969  1
  O  O435  1  0.37170677  0.87191558  0.61637760  1
  O  O436  1  0.86773045  0.37401030  0.11790552  1
  O  O437  1  0.86931329  0.36927342  0.61945841  1
  O  O438  1  0.87375520  0.86794782  0.11753618  1
  O  O439  1  0.86756877  0.86825462  0.62393417  1
  O  O440  1  0.13770107  0.12894827  0.37378871  1
  O  O441  1  0.12860892  0.13006318  0.87892358  1
  O  O442  1  0.13506348  0.62552897  0.38148642  1
  O  O443  1  0.12693117  0.62544048  0.88805167  1
  O  O444  1  0.63090270  0.13049602  0.38029099  1
  O  O445  1  0.62953753  0.13037478  0.87972416  1
  O  O446  1  0.62940799  0.63096088  0.38212488  1
  O  O447  1  0.63876279  0.62685451  0.87800760  1
