# generated using pymatgen
data_V3Zn3O8
_symmetry_space_group_name_H-M   'P 1'
_cell_length_a   17.08674795
_cell_length_b   17.08581186
_cell_length_c   17.08671307
_cell_angle_alpha   90.00260451
_cell_angle_beta   89.98983793
_cell_angle_gamma   90.00574704
_symmetry_Int_Tables_number   1
_chemical_formula_structural   V3Zn3O8
_chemical_formula_sum   'V96 Zn96 O256'
_cell_volume   4988.31132118
_cell_formula_units_Z   32
loop_
 _symmetry_equiv_pos_site_id
 _symmetry_equiv_pos_as_xyz
  1  'x, y, z'
loop_
 _atom_site_type_symbol
 _atom_site_label
 _atom_site_symmetry_multiplicity
 _atom_site_fract_x
 _atom_site_fract_y
 _atom_site_fract_z
 _atom_site_occupancy
  V  V0  1  0.37477943  0.24909300  0.12477605  1
  V  V1  1  -0.00011026  0.24823301  0.25086506  1
  V  V2  1  0.50018458  0.37465390  0.37484557  1
  V  V3  1  0.49896878  0.25057784  0.75056388  1
  V  V4  1  0.12425493  0.49893034  0.12496061  1
  V  V5  1  0.49869997  0.74951011  0.24922562  1
  V  V6  1  0.62556852  0.87590510  0.25000892  1
  V  V7  1  0.25006480  0.24945793  0.49982213  1
  V  V8  1  -0.00003323  0.74897560  0.24968582  1
  V  V9  1  0.00023614  0.37451303  0.87342605  1
  V  V10  1  0.37477545  0.87342219  0.00042936  1
  V  V11  1  0.12527889  0.12398146  -0.00021943  1
  V  V12  1  0.12509578  0.24970910  0.87504878  1
  V  V13  1  0.37448175  -0.00053949  0.87481542  1
  V  V14  1  0.87424483  0.87572273  -0.00061934  1
  V  V15  1  0.62578341  0.37609512  0.24968266  1
  V  V16  1  0.25020122  -0.00152330  0.75009956  1
  V  V17  1  0.24986223  0.87471630  0.62512476  1
  V  V18  1  0.87550572  0.00015034  0.37379779  1
  V  V19  1  0.87419058  0.25086542  0.12389112  1
  V  V20  1  0.74944509  0.87558897  0.62395766  1
  V  V21  1  0.87548365  0.50069655  0.37447091  1
  V  V22  1  0.87568846  0.12569628  0.75012145  1
  V  V23  1  0.25046624  -0.00055785  0.25079784  1
  V  V24  1  0.37347792  0.49993617  0.87508863  1
  V  V25  1  0.24859301  0.24882906  -0.00061610  1
  V  V26  1  0.75068305  0.62518202  0.37538648  1
  V  V27  1  0.62419963  0.75111622  0.87490248  1
  V  V28  1  0.74926839  0.62506169  0.87518794  1
  V  V29  1  0.87557740  0.62666738  0.75008822  1
  V  V30  1  0.49896469  0.50078196  0.00145276  1
  V  V31  1  0.24987001  0.74975596  0.00038947  1
  V  V32  1  0.75095516  0.12519573  0.37424037  1
  V  V33  1  0.00075519  -0.00000803  0.00016058  1
  V  V34  1  0.37677554  0.62488797  0.74882630  1
  V  V35  1  0.25075181  0.87419122  0.12427783  1
  V  V36  1  0.62536332  0.00100042  0.62521332  1
  V  V37  1  0.00075125  0.00003793  0.50022351  1
  V  V38  1  0.74970155  0.37683866  0.62683292  1
  V  V39  1  0.62421475  0.87542703  0.75063742  1
  V  V40  1  0.00091765  0.12464941  0.62484146  1
  V  V41  1  0.37455107  0.49979196  0.37404132  1
  V  V42  1  0.00028302  0.37519628  0.37484464  1
  V  V43  1  0.49937959  0.37429082  0.87526747  1
  V  V44  1  0.37615286  0.87465914  0.50073290  1
  V  V45  1  0.62545639  0.12579600  0.50023743  1
  V  V46  1  0.74989998  0.12727824  0.87597823  1
  V  V47  1  0.37347636  0.37511089  0.00043682  1
  V  V48  1  0.00046670  0.50084947  0.50004433  1
  V  V49  1  0.12485234  0.37470985  0.24937416  1
  V  V50  1  0.12607320  0.74995207  0.37509126  1
  V  V51  1  0.87539837  0.24985620  0.62511493  1
  V  V52  1  0.62412037  0.50057955  0.12568699  1
  V  V53  1  0.50085285  -0.00012011  0.50045948  1
  V  V54  1  0.87526592  0.74960718  0.12510962  1
  V  V55  1  0.74938994  0.50065013  0.25029102  1
  V  V56  1  0.74917567  0.75077359  0.00023665  1
  V  V57  1  0.87590419  0.74997802  0.62515049  1
  V  V58  1  -0.00083031  0.62500908  0.12501605  1
  V  V59  1  0.50011555  0.00043851  0.00030644  1
  V  V60  1  0.50014296  0.24883168  0.24919816  1
  V  V61  1  0.49998265  0.12496239  0.12421647  1
  V  V62  1  0.50072401  0.50022165  0.50046052  1
  V  V63  1  0.25037374  0.75052761  0.49898496  1
  V  V64  1  0.74970416  0.00157163  0.74964107  1
  V  V65  1  0.74970351  0.87635283  0.12536833  1
  V  V66  1  0.37567159  0.37434326  0.49940258  1
  V  V67  1  0.87472850  0.00087945  0.87524605  1
  V  V68  1  0.62463687  0.25110933  0.87540638  1
  V  V69  1  -0.00069814  0.87417244  0.87321476  1
  V  V70  1  0.62328554  0.62485912  0.00077664  1
  V  V71  1  0.75050173  0.25117254  0.50052234  1
  V  V72  1  0.24882701  0.49834099  0.74923545  1
  V  V73  1  0.37592358  0.74835389  0.62489337  1
  V  V74  1  0.24826624  0.37446668  0.12528473  1
  V  V75  1  0.74919186  0.49994791  0.75094888  1
  V  V76  1  0.25134537  0.62410932  0.37306249  1
  V  V77  1  0.50140677  0.87540233  0.37489914  1
  V  V78  1  0.62469987  0.62390131  0.50161219  1
  V  V79  1  0.75082892  -0.00002480  0.24994805  1
  V  V80  1  0.37511863  -0.00043719  0.37536423  1
  V  V81  1  0.87487515  0.50032566  0.87595288  1
  V  V82  1  0.12558987  0.87501879  0.24970092  1
  V  V83  1  0.12449438  0.50014059  0.62477441  1
  V  V84  1  0.12472163  -0.00029220  0.12417559  1
  V  V85  1  0.50005210  0.12623449  0.62581543  1
  V  V86  1  0.50059812  0.87453682  0.87504725  1
  V  V87  1  0.62473113  0.12623696  -0.00039561  1
  V  V88  1  0.24971070  0.12464264  0.37550567  1
  V  V89  1  0.74959792  0.74989276  0.49962486  1
  V  V90  1  0.12477614  0.62526119  0.00028623  1
  V  V91  1  0.12364259  0.74983704  0.87308552  1
  V  V92  1  0.00020986  0.87510777  0.37490157  1
  V  V93  1  0.62559661  0.25050393  0.37473651  1
  V  V94  1  -0.00122614  0.49994001  -0.00073609  1
  V  V95  1  0.37583327  0.24968624  0.62500471  1
  Zn  Zn96  1  0.37438044  0.74716560  0.12495380  1
  Zn  Zn97  1  0.37576441  0.12371313  0.24875205  1
  Zn  Zn98  1  0.87400093  0.62474394  0.24934127  1
  Zn  Zn99  1  0.12531687  0.12629721  0.50200577  1
  Zn  Zn100  1  0.12592207  0.37228606  0.74904570  1
  Zn  Zn101  1  0.87532709  0.12471353  0.24909208  1
  Zn  Zn102  1  0.12339325  0.87350657  0.74742602  1
  Zn  Zn103  1  0.12456177  0.25021537  0.37644880  1
  Zn  Zn104  1  0.12525384  0.62616573  0.50001004  1
  Zn  Zn105  1  0.62336675  0.37709089  0.75133606  1
  Zn  Zn106  1  0.87506487  0.37563099  0.50012282  1
  Zn  Zn107  1  0.49691294  0.62597444  0.12545447  1
  Zn  Zn108  1  0.00200641  0.75076025  0.74642426  1
  Zn  Zn109  1  0.24921198  0.62479494  0.87619625  1
  Zn  Zn110  1  0.12501110  -0.00168171  0.62671463  1
  Zn  Zn111  1  0.50087729  0.74947324  0.74844326  1
  Zn  Zn112  1  0.24898665  0.37332203  0.62372301  1
  Zn  Zn113  1  0.25035600  0.12485153  0.87317350  1
  Zn  Zn114  1  0.25126215  0.49918356  0.24895006  1
  Zn  Zn115  1  0.50063028  0.62384093  0.62464806  1
  Zn  Zn116  1  0.00356697  0.24982610  0.74859141  1
  Zn  Zn117  1  0.75018567  0.25214254  0.00088031  1
  Zn  Zn118  1  0.37432735  0.12528511  0.75146175  1
  Zn  Zn119  1  0.62603209  0.75074201  0.37523392  1
  Zn  Zn120  1  0.37650408  0.62282595  0.24761838  1
  Zn  Zn121  1  0.87422196  0.87368953  0.49885208  1
  Zn  Zn122  1  0.87166776  0.37440807  -0.00027577  1
  Zn  Zn123  1  0.62258037  0.49985862  0.62843620  1
  Zn  Zn124  1  0.00078544  0.62649764  0.62523630  1
  Zn  Zn125  1  0.75028844  0.37566295  0.12298382  1
  Zn  Zn126  1  0.62566364  0.00177954  0.12466873  1
  Zn  Zn127  1  -0.00036529  0.12352658  0.12623154  1
  Zn  Zn128  1  0.18634728  0.18641316  0.18734731  1
  Zn  Zn129  1  0.18737890  0.18519543  0.68821472  1
  Zn  Zn130  1  0.18710869  0.68709642  0.18729516  1
  Zn  Zn131  1  0.18911573  0.68540997  0.68657842  1
  Zn  Zn132  1  0.68804313  0.18700969  0.18710919  1
  Zn  Zn133  1  0.68626248  0.19004508  0.68937690  1
  Zn  Zn134  1  0.68522843  0.68733809  0.18789479  1
  Zn  Zn135  1  0.68823610  0.68747888  0.68760319  1
  Zn  Zn136  1  0.31355297  0.31182325  0.31109569  1
  Zn  Zn137  1  0.31229855  0.31232218  0.81229754  1
  Zn  Zn138  1  0.31442492  0.81301843  0.31253916  1
  Zn  Zn139  1  0.31195648  0.81186954  0.81308320  1
  Zn  Zn140  1  0.81379428  0.31520208  0.31179054  1
  Zn  Zn141  1  0.81421102  0.31171617  0.81141254  1
  Zn  Zn142  1  0.81343913  0.81257204  0.31262560  1
  Zn  Zn143  1  0.81116191  0.81313956  0.81139319  1
  Zn  Zn144  1  0.18684954  0.43665130  0.43656506  1
  Zn  Zn145  1  0.18610585  0.43709996  0.93737328  1
  Zn  Zn146  1  0.18615308  0.93784774  0.43910005  1
  Zn  Zn147  1  0.18734695  0.93554009  0.93627670  1
  Zn  Zn148  1  0.68803252  0.43846929  0.43816298  1
  Zn  Zn149  1  0.68730182  0.43546454  0.93999943  1
  Zn  Zn150  1  0.68779956  0.93737333  0.43659774  1
  Zn  Zn151  1  0.68675490  0.93975676  0.93783041  1
  Zn  Zn152  1  0.31237224  0.06230889  0.06146263  1
  Zn  Zn153  1  0.31439546  0.06252796  0.56426078  1
  Zn  Zn154  1  0.31166591  0.56436726  0.06467405  1
  Zn  Zn155  1  0.31214159  0.56247920  0.56111122  1
  Zn  Zn156  1  0.81319224  0.06596082  0.06346297  1
  Zn  Zn157  1  0.81435394  0.06315667  0.56095100  1
  Zn  Zn158  1  0.81123176  0.56218746  0.06296600  1
  Zn  Zn159  1  0.81314782  0.56252602  0.56261886  1
  Zn  Zn160  1  0.43708512  0.43731676  0.18785349  1
  Zn  Zn161  1  0.43694751  0.43621019  0.68561096  1
  Zn  Zn162  1  0.43723166  0.93714316  0.18693042  1
  Zn  Zn163  1  0.43695165  0.93682573  0.68826676  1
  Zn  Zn164  1  0.93620453  0.43617574  0.18815330  1
  Zn  Zn165  1  0.93632349  0.43884552  0.68878535  1
  Zn  Zn166  1  0.93733151  0.93643543  0.18754963  1
  Zn  Zn167  1  0.93633659  0.93610232  0.68866183  1
  Zn  Zn168  1  0.06463211  0.06377097  0.31341966  1
  Zn  Zn169  1  0.06470142  0.06151179  0.81288959  1
  Zn  Zn170  1  0.06403636  0.56283151  0.31152560  1
  Zn  Zn171  1  0.06072141  0.56447791  0.81091008  1
  Zn  Zn172  1  0.56385559  0.06245621  0.31125820  1
  Zn  Zn173  1  0.56162806  0.06410720  0.81316646  1
  Zn  Zn174  1  0.56311441  0.56382072  0.31426233  1
  Zn  Zn175  1  0.56237856  0.56076657  0.81393778  1
  Zn  Zn176  1  0.43719977  0.18672616  0.43736003  1
  Zn  Zn177  1  0.43613261  0.18601449  0.93655951  1
  Zn  Zn178  1  0.43804442  0.68722735  0.43582741  1
  Zn  Zn179  1  0.43710209  0.68742486  0.93615658  1
  Zn  Zn180  1  0.93499339  0.18785486  0.43780786  1
  Zn  Zn181  1  0.93966531  0.18760507  0.93908779  1
  Zn  Zn182  1  0.93752511  0.68584119  0.43785432  1
  Zn  Zn183  1  0.93793063  0.68795559  0.93758857  1
  Zn  Zn184  1  0.06025019  0.31214387  0.06145561  1
  Zn  Zn185  1  0.06399045  0.31358394  0.56183621  1
  Zn  Zn186  1  0.06217449  0.81306062  0.06137363  1
  Zn  Zn187  1  0.06401372  0.81398841  0.56126342  1
  Zn  Zn188  1  0.56271351  0.31321793  0.06242548  1
  Zn  Zn189  1  0.56369317  0.31325621  0.56341269  1
  Zn  Zn190  1  0.56272148  0.81361968  0.06427769  1
  Zn  Zn191  1  0.56240146  0.81034166  0.56429488  1
  O  O192  1  0.12348269  0.11678185  0.11856171  1
  O  O193  1  0.11243489  0.12164585  0.62365734  1
  O  O194  1  0.11887510  0.61974193  0.11971632  1
  O  O195  1  0.12321223  0.61330299  0.62195430  1
  O  O196  1  0.61795264  0.12477532  0.11784364  1
  O  O197  1  0.62055478  0.12066222  0.61943298  1
  O  O198  1  0.62216632  0.61883650  0.11761277  1
  O  O199  1  0.62491092  0.62324118  0.61348915  1
  O  O200  1  0.38102582  0.37897473  0.38012400  1
  O  O201  1  0.37919001  0.38036763  0.88144882  1
  O  O202  1  0.38072418  0.88111172  0.38191799  1
  O  O203  1  0.38100183  0.87905118  0.88083362  1
  O  O204  1  0.88236932  0.38277594  0.37779614  1
  O  O205  1  0.88466739  0.38116916  0.87481892  1
  O  O206  1  0.88298306  0.88130226  0.37638249  1
  O  O207  1  0.87824597  0.88085792  0.87998565  1
  O  O208  1  0.25475635  0.00635575  0.37198613  1
  O  O209  1  0.25583898  -0.00225706  0.86600187  1
  O  O210  1  0.25499448  0.50865681  0.37486636  1
  O  O211  1  0.25406941  0.50094209  0.86581194  1
  O  O212  1  0.75577993  0.00502984  0.37039018  1
  O  O213  1  0.75546760  0.00645632  0.86916034  1
  O  O214  1  0.75555078  0.50519051  0.37058488  1
  O  O215  1  0.75473808  0.50588580  0.87088813  1
  O  O216  1  0.24202435  0.49227922  0.12562452  1
  O  O217  1  0.24176190  0.49885891  0.63115855  1
  O  O218  1  0.24458861  0.99407836  0.13056194  1
  O  O219  1  0.25077918  0.99376234  0.63282402  1
  O  O220  1  0.74254797  0.49988731  0.13227614  1
  O  O221  1  0.75104133  0.49124290  0.63126068  1
  O  O222  1  0.75055966  0.99397126  0.13125233  1
  O  O223  1  0.74507716  0.99657598  0.62946174  1
  O  O224  1  0.00518932  0.36672666  0.25498107  1
  O  O225  1  0.00210327  0.37538529  0.76220586  1
  O  O226  1  0.00649500  0.86911627  0.25529273  1
  O  O227  1  0.00210421  0.87214682  0.75763120  1
  O  O228  1  0.50580296  0.36868623  0.25624277  1
  O  O229  1  0.49932052  0.36918251  0.75735607  1
  O  O230  1  0.50527574  0.86978845  0.25542390  1
  O  O231  1  0.50697446  0.87474954  0.75690572  1
  O  O232  1  0.49904639  0.13116330  0.24392327  1
  O  O233  1  0.49865293  0.13169556  0.74292233  1
  O  O234  1  0.50038291  0.63733710  0.25136471  1
  O  O235  1  0.48733941  0.62376170  0.74865918  1
  O  O236  1  0.99999569  0.13676804  0.25080152  1
  O  O237  1  0.99426559  0.12276992  0.73979787  1
  O  O238  1  0.99965820  0.63169525  0.24285651  1
  O  O239  1  0.99061415  0.62912739  0.74630711  1
  O  O240  1  0.36910394  0.25576140  0.00501715  1
  O  O241  1  0.36842089  0.25424840  0.50407115  1
  O  O242  1  0.36781677  0.75630635  -0.00081567  1
  O  O243  1  0.37023873  0.75562521  0.50430299  1
  O  O244  1  0.87595715  0.25059464  0.01153976  1
  O  O245  1  0.86778580  0.25222647  0.50705356  1
  O  O246  1  0.86897909  0.75621674  0.00459321  1
  O  O247  1  0.86892366  0.75008459  0.50952769  1
  O  O248  1  0.13711298  0.24846309  0.49806122  1
  O  O249  1  0.12926428  0.24451315  0.99515558  1
  O  O250  1  0.13233854  0.74929723  0.49261808  1
  O  O251  1  0.12892925  0.74527089  0.99231494  1
  O  O252  1  0.63026715  0.24492243  0.49434409  1
  O  O253  1  0.62437441  0.24342747  0.99283920  1
  O  O254  1  0.63083708  0.74041408  0.50006494  1
  O  O255  1  0.63023915  0.74587743  0.99471658  1
  O  O256  1  0.49412392  0.24495810  0.12959568  1
  O  O257  1  0.49588273  0.24580160  0.62980741  1
  O  O258  1  0.49856765  0.75038187  0.13652534  1
  O  O259  1  0.49154809  0.74641045  0.62867550  1
  O  O260  1  0.99331231  0.24959173  0.13506764  1
  O  O261  1  0.99532032  0.24074653  0.62401772  1
  O  O262  1  0.99544683  0.74543123  0.12930285  1
  O  O263  1  0.98838334  0.74925313  0.62326927  1
  O  O264  1  0.00026361  0.25527659  0.36733854  1
  O  O265  1  0.00571886  0.25870702  0.87395820  1
  O  O266  1  0.00566144  0.75460477  0.37058309  1
  O  O267  1  0.00855385  0.75550968  0.87518653  1
  O  O268  1  0.50566379  0.25445971  0.37034500  1
  O  O269  1  0.50354799  0.25522472  0.87030520  1
  O  O270  1  0.50186024  0.75777499  0.36710431  1
  O  O271  1  0.50685218  0.75699470  0.87280919  1
  O  O272  1  0.25102830  0.13208978  0.49272024  1
  O  O273  1  0.24295825  0.13099175  0.99823763  1
  O  O274  1  0.24956777  0.63115721  0.48864968  1
  O  O275  1  0.24220101  0.63069663  0.99834255  1
  O  O276  1  0.74449352  0.13076464  0.49510511  1
  O  O277  1  0.74344931  0.12701728  0.99287346  1
  O  O278  1  0.74273873  0.62881235  0.49578685  1
  O  O279  1  0.74365906  0.63130640  0.99430801  1
  O  O280  1  0.25397694  0.36912845  0.00556910  1
  O  O281  1  0.25669197  0.36439808  0.49819495  1
  O  O282  1  0.25493606  0.86966960  0.00514829  1
  O  O283  1  0.25689180  0.87051371  0.50427052  1
  O  O284  1  0.75391088  0.37013965  0.00430612  1
  O  O285  1  0.75135389  0.37007595  0.50958536  1
  O  O286  1  0.75503069  0.87059999  0.00433142  1
  O  O287  1  0.75088642  0.86939919  0.50643988  1
  O  O288  1  0.12548725  0.49232595  0.24215107  1
  O  O289  1  0.13352276  0.50170837  0.74280882  1
  O  O290  1  0.13055044  0.99396892  0.24544298  1
  O  O291  1  0.13703266  0.99556287  0.74981040  1
  O  O292  1  0.62896660  0.49542714  0.24626315  1
  O  O293  1  0.63307730  0.49820393  0.74873768  1
  O  O294  1  0.63249386  0.99369080  0.24838709  1
  O  O295  1  0.63048614  0.99599919  0.74455863  1
  O  O296  1  0.36802392  0.00034737  0.25759824  1
  O  O297  1  0.36622713  -0.00065259  0.75583846  1
  O  O298  1  0.37216583  0.50037908  0.25903997  1
  O  O299  1  0.36727998  0.50607354  0.75337891  1
  O  O300  1  0.86957572  0.00100275  0.25617244  1
  O  O301  1  0.86853242  0.00558664  0.75568530  1
  O  O302  1  0.86864274  0.50199847  0.25625427  1
  O  O303  1  0.86924293  0.50718877  0.75668518  1
  O  O304  1  0.11819121  0.37286368  0.36785077  1
  O  O305  1  0.11548743  0.36912971  0.87452520  1
  O  O306  1  0.12044215  0.87001920  0.36895440  1
  O  O307  1  0.11842786  0.86382706  0.87529470  1
  O  O308  1  0.61961331  0.36963491  0.37054534  1
  O  O309  1  0.61650161  0.36919658  0.87477400  1
  O  O310  1  0.61869007  0.87422365  0.36875222  1
  O  O311  1  0.62084388  0.87077697  0.87000006  1
  O  O312  1  0.38105559  0.13135064  0.12559989  1
  O  O313  1  0.38362215  0.13214746  0.62533627  1
  O  O314  1  0.37830847  0.62905031  0.13010984  1
  O  O315  1  0.37478468  0.62925522  0.63319152  1
  O  O316  1  0.87957227  0.13548624  0.12899565  1
  O  O317  1  0.88239907  0.12973043  0.62964722  1
  O  O318  1  0.88142587  0.63210394  0.12518829  1
  O  O319  1  0.87360025  0.63572310  0.63057366  1
  O  O320  1  0.25442371  0.25461610  0.11937599  1
  O  O321  1  0.25541839  0.24906738  0.61508353  1
  O  O322  1  0.24898512  0.75697146  0.11836084  1
  O  O323  1  0.25593851  0.75416365  0.61857784  1
  O  O324  1  0.76173950  0.25146169  0.12614777  1
  O  O325  1  0.75467158  0.25705752  0.62096605  1
  O  O326  1  0.75499131  0.75579408  0.11948745  1
  O  O327  1  0.75733923  0.75553066  0.61984364  1
  O  O328  1  0.25205249  0.24103934  0.38314890  1
  O  O329  1  0.24314778  0.25000249  0.88186917  1
  O  O330  1  0.24632358  0.74400824  0.37945467  1
  O  O331  1  0.23924484  0.74894063  0.88103151  1
  O  O332  1  0.74497665  0.24627893  0.38024983  1
  O  O333  1  0.74399883  0.24363289  0.87475449  1
  O  O334  1  0.74970799  0.74401406  0.38196867  1
  O  O335  1  0.74442502  0.74547111  0.88086897  1
  O  O336  1  0.00759785  0.11658924  0.00136688  1
  O  O337  1  -0.00056297  0.11741172  0.50804103  1
  O  O338  1  0.00523848  0.62003741  0.00568105  1
  O  O339  1  0.00347629  0.61209594  0.50046131  1
  O  O340  1  0.50476358  0.11973445  0.00449315  1
  O  O341  1  0.50629994  0.11976871  0.50489477  1
  O  O342  1  0.50596520  0.61842239  -0.00070292  1
  O  O343  1  0.50895151  0.61954039  0.49908205  1
  O  O344  1  0.49589041  0.37907429  0.49352412  1
  O  O345  1  0.49251735  0.38075450  0.99505200  1
  O  O346  1  0.49610091  0.88064461  0.49574070  1
  O  O347  1  0.49547105  0.88031832  0.99457353  1
  O  O348  1  0.99964602  0.38555403  0.49462181  1
  O  O349  1  0.99889590  0.38117153  0.98839264  1
  O  O350  1  0.99854206  0.88456728  0.49363179  1
  O  O351  1  0.99322415  0.88039131  0.99401992  1
  O  O352  1  0.49488145  0.49365797  0.38062639  1
  O  O353  1  0.49305855  0.49395233  0.88130659  1
  O  O354  1  0.49540358  0.99608935  0.38109370  1
  O  O355  1  0.49509309  0.99406569  0.88032723  1
  O  O356  1  0.99677788  0.49590080  0.38190189  1
  O  O357  1  0.99550048  0.49372832  0.87940843  1
  O  O358  1  0.99653886  0.99613106  0.38168773  1
  O  O359  1  0.99399139  0.99446302  0.88006850  1
  O  O360  1  0.00682791  -0.00109491  0.11858161  1
  O  O361  1  -0.00289380  0.00749984  0.61667358  1
  O  O362  1  0.00431495  0.50477752  0.11945364  1
  O  O363  1  0.00645397  0.50036971  0.61701090  1
  O  O364  1  0.50081949  0.00648682  0.11800543  1
  O  O365  1  0.50582169  0.00518903  0.61962657  1
  O  O366  1  0.50592072  0.50075849  0.11866410  1
  O  O367  1  0.50237484  0.50134299  0.61595399  1
  O  O368  1  0.24293335  0.37381822  0.24295516  1
  O  O369  1  0.24998113  0.38820931  0.74728672  1
  O  O370  1  0.24456936  0.88006607  0.24574067  1
  O  O371  1  0.25104681  0.88313369  0.74360013  1
  O  O372  1  0.74225704  0.38273844  0.24984310  1
  O  O373  1  0.75003752  0.38067468  0.74176497  1
  O  O374  1  0.74558893  0.87993040  0.24496847  1
  O  O375  1  0.74385695  0.88239836  0.74442318  1
  O  O376  1  0.25131064  0.11915687  0.25943177  1
  O  O377  1  0.25257979  0.11157229  0.75052343  1
  O  O378  1  0.25103400  0.62459733  0.26247592  1
  O  O379  1  0.25939573  0.61435850  0.75055329  1
  O  O380  1  0.75035845  0.11837934  0.25763526  1
  O  O381  1  0.75526936  0.12035893  0.75496305  1
  O  O382  1  0.74938875  0.61904263  0.25756636  1
  O  O383  1  0.75512775  0.62028612  0.75630118  1
  O  O384  1  0.36541133  0.11857420  0.37440202  1
  O  O385  1  0.37153257  0.11538249  0.87290416  1
  O  O386  1  0.36588706  0.61913406  0.37415781  1
  O  O387  1  0.37218588  0.61854857  0.86514684  1
  O  O388  1  0.86764937  0.11854882  0.37336887  1
  O  O389  1  0.87081063  0.11999884  0.87017339  1
  O  O390  1  0.86846051  0.61837775  0.37336780  1
  O  O391  1  0.86843492  0.62115701  0.87070637  1
  O  O392  1  0.12872373  0.37952471  0.12866256  1
  O  O393  1  0.12679070  0.38737021  0.62812618  1
  O  O394  1  0.13054737  0.88012159  0.13005264  1
  O  O395  1  0.13401134  0.87699990  0.62710567  1
  O  O396  1  0.62487418  0.38189127  0.13271755  1
  O  O397  1  0.63805390  0.37595658  0.62768802  1
  O  O398  1  0.63293586  0.87817552  0.13098112  1
  O  O399  1  0.62973482  0.88142321  0.63015496  1
  O  O400  1  0.11503520  0.25539769  0.25043832  1
  O  O401  1  0.12396367  0.25247239  0.75777237  1
  O  O402  1  0.11967451  0.75624686  0.25517022  1
  O  O403  1  0.12484315  0.74946867  0.76075757  1
  O  O404  1  0.61976882  0.25553280  0.25588655  1
  O  O405  1  0.61703568  0.25264243  0.75756072  1
  O  O406  1  0.61620332  0.75742956  0.25216418  1
  O  O407  1  0.62494910  0.75670823  0.75651582  1
  O  O408  1  0.38238136  0.24821034  0.24279594  1
  O  O409  1  0.38032844  0.24871286  0.74318393  1
  O  O410  1  0.38739420  0.75093615  0.24924456  1
  O  O411  1  0.37351715  0.73917959  0.74524922  1
  O  O412  1  0.88523634  0.25056682  0.24376524  1
  O  O413  1  0.87904761  0.24239273  0.74302481  1
  O  O414  1  0.88232311  0.74901598  0.24275023  1
  O  O415  1  0.87341521  0.74576091  0.73970856  1
  O  O416  1  0.38016525  0.49386358  0.49398942  1
  O  O417  1  0.37803870  0.49453244  0.99487602  1
  O  O418  1  0.38172577  0.99414040  0.49568410  1
  O  O419  1  0.37998213  0.99314975  0.99426916  1
  O  O420  1  0.88542213  0.49938564  0.49514892  1
  O  O421  1  0.88170189  0.50016391  0.99321974  1
  O  O422  1  0.88553822  0.99857864  0.49376423  1
  O  O423  1  0.87990221  0.99510353  0.99440340  1
  O  O424  1  0.12021698  0.00307732  0.00418254  1
  O  O425  1  0.11204912  0.00256701  0.50190273  1
  O  O426  1  0.11847053  0.50552715  0.00492502  1
  O  O427  1  0.11771348  0.49979490  0.50784463  1
  O  O428  1  0.61781259  0.00774742  0.00051395  1
  O  O429  1  0.62056412  0.00610060  0.50577962  1
  O  O430  1  0.61859853  0.50563002  0.00499428  1
  O  O431  1  0.62006356  0.50942891  0.50096168  1
  O  O432  1  0.36884004  0.36918940  0.11924799  1
  O  O433  1  0.37300099  0.36737187  0.61627858  1
  O  O434  1  0.36753483  0.87380685  0.11771524  1
  O  O435  1  0.37037085  0.86876268  0.61919775  1
  O  O436  1  0.87464644  0.36397324  0.12333811  1
  O  O437  1  0.86546426  0.36965578  0.62475329  1
  O  O438  1  0.86980520  0.86906845  0.11860734  1
  O  O439  1  0.86795780  0.86596093  0.62399200  1
  O  O440  1  0.13860496  0.12681452  0.37866380  1
  O  O441  1  0.12640463  0.13180976  0.88181199  1
  O  O442  1  0.13482931  0.63112427  0.37561932  1
  O  O443  1  0.12445289  0.63413167  0.88126726  1
  O  O444  1  0.63040249  0.13090347  0.38121734  1
  O  O445  1  0.62991383  0.13111805  0.87987668  1
  O  O446  1  0.63158063  0.62629542  0.38718076  1
  O  O447  1  0.63011131  0.63082776  0.88059595  1
