# generated using pymatgen
data_V3Zn3O8
_symmetry_space_group_name_H-M   'P 1'
_cell_length_a   17.08829591
_cell_length_b   17.08943477
_cell_length_c   17.08873781
_cell_angle_alpha   89.98903733
_cell_angle_beta   89.99079206
_cell_angle_gamma   89.98632453
_symmetry_Int_Tables_number   1
_chemical_formula_structural   V3Zn3O8
_chemical_formula_sum   'V96 Zn96 O256'
_cell_volume   4990.41215785
_cell_formula_units_Z   32
loop_
 _symmetry_equiv_pos_site_id
 _symmetry_equiv_pos_as_xyz
  1  'x, y, z'
loop_
 _atom_site_type_symbol
 _atom_site_label
 _atom_site_symmetry_multiplicity
 _atom_site_fract_x
 _atom_site_fract_y
 _atom_site_fract_z
 _atom_site_occupancy
  V  V0  1  0.12570101  0.00031140  0.12735630  1
  V  V1  1  0.37585127  0.87732375  0.00219813  1
  V  V2  1  0.50233064  0.87326480  0.37566379  1
  V  V3  1  0.74916437  0.24876565  0.49952953  1
  V  V4  1  0.37514718  0.00226819  0.87585410  1
  V  V5  1  0.87637778  0.74780615  0.62565257  1
  V  V6  1  0.12478784  0.62232365  0.50085021  1
  V  V7  1  0.49863511  0.37786408  0.87553525  1
  V  V8  1  0.37750493  0.75150498  0.12775242  1
  V  V9  1  0.50018497  0.00245318  0.00023144  1
  V  V10  1  0.12457203  0.74931354  0.37409921  1
  V  V11  1  0.37622617  0.49906392  0.37614701  1
  V  V12  1  0.49873366  0.25156223  0.74985543  1
  V  V13  1  0.12350689  0.24980704  0.87342742  1
  V  V14  1  0.50050757  0.87698837  0.87449116  1
  V  V15  1  0.87370455  -0.00049977  0.87440310  1
  V  V16  1  0.12450995  0.24894583  0.37426289  1
  V  V17  1  0.87327871  0.12387563  0.74961453  1
  V  V18  1  0.87568878  0.87340278  0.49910715  1
  V  V19  1  0.49988343  0.37461842  0.37497453  1
  V  V20  1  0.24833873  0.50106406  0.75059512  1
  V  V21  1  0.37410415  0.12451213  0.25096265  1
  V  V22  1  0.87468598  -0.00169058  0.37431293  1
  V  V23  1  0.87416670  0.24780364  0.62512491  1
  V  V24  1  0.87463666  0.87511047  -0.00003571  1
  V  V25  1  0.37413791  0.12627214  0.74992956  1
  V  V26  1  0.00052074  0.49799359  0.50030244  1
  V  V27  1  0.75059702  0.50055290  0.75047860  1
  V  V28  1  0.49928201  0.50077478  -0.00032803  1
  V  V29  1  -0.00050909  0.37408232  0.37462642  1
  V  V30  1  0.00004022  0.00072117  0.00016068  1
  V  V31  1  0.49840114  0.75116310  0.74921210  1
  V  V32  1  0.24943074  0.24956499  0.50019911  1
  V  V33  1  0.87642229  0.74882007  0.12566549  1
  V  V34  1  0.62330608  0.12401606  0.50071697  1
  V  V35  1  0.25053260  0.37508223  0.12363111  1
  V  V36  1  0.87534279  0.50040853  0.87481820  1
  V  V37  1  0.37422593  0.37420630  0.49959710  1
  V  V38  1  0.74904502  0.12393757  0.37499979  1
  V  V39  1  0.12549938  0.37454583  0.24948770  1
  V  V40  1  0.49982256  0.12666387  0.12560276  1
  V  V41  1  -0.00011059  0.24919912  0.75003895  1
  V  V42  1  0.37382770  0.87401391  0.50300732  1
  V  V43  1  0.74868453  0.37398691  0.62481731  1
  V  V44  1  0.00053484  0.87351972  0.87453150  1
  V  V45  1  0.12485469  0.87382955  0.75062253  1
  V  V46  1  0.62625668  0.75084727  0.87522325  1
  V  V47  1  0.25088828  0.62403784  0.37626889  1
  V  V48  1  0.62553583  -0.00011781  0.12536083  1
  V  V49  1  0.62629969  0.50071119  0.12476722  1
  V  V50  1  0.62460411  0.50037157  0.62505853  1
  V  V51  1  0.12355886  0.12291865  0.49918802  1
  V  V52  1  0.74897311  -0.00110030  0.24960152  1
  V  V53  1  0.75051635  0.87500151  0.62484663  1
  V  V54  1  0.25031687  0.74931849  0.50150009  1
  V  V55  1  0.87460949  0.12487540  0.24914880  1
  V  V56  1  0.00136820  0.50204689  0.00030670  1
  V  V57  1  0.74969711  0.37632785  0.12474987  1
  V  V58  1  0.50114157  0.62642088  0.12643608  1
  V  V59  1  0.24862093  -0.00036741  0.74968285  1
  V  V60  1  0.87449412  0.49935936  0.37380253  1
  V  V61  1  -0.00089423  0.24934371  0.24852967  1
  V  V62  1  0.37337496  0.25096139  0.62424156  1
  V  V63  1  0.00024672  -0.00038496  0.49977921  1
  V  V64  1  0.87421503  0.37303782  0.49923829  1
  V  V65  1  0.50074381  0.25018965  0.25000667  1
  V  V66  1  0.25031128  0.12439504  0.37429154  1
  V  V67  1  0.62480572  0.12695845  -0.00027884  1
  V  V68  1  0.37740539  0.62564215  0.25148955  1
  V  V69  1  0.74989495  -0.00106732  0.74905217  1
  V  V70  1  0.87505526  0.24955958  0.12416856  1
  V  V71  1  0.75118074  0.50046526  0.24932594  1
  V  V72  1  0.49852282  0.62599023  0.62501006  1
  V  V73  1  0.24962690  0.25185391  -0.00101193  1
  V  V74  1  0.00003873  0.62238491  0.62528822  1
  V  V75  1  0.87549685  0.37578115  -0.00109675  1
  V  V76  1  0.62381980  0.37580067  0.74987281  1
  V  V77  1  0.62484417  0.25101916  0.87541173  1
  V  V78  1  0.37472023  0.37651740  -0.00007792  1
  V  V79  1  0.49949114  0.12490401  0.62469173  1
  V  V80  1  0.24950733  0.12599603  0.87472569  1
  V  V81  1  0.74993614  0.25049118  -0.00087857  1
  V  V82  1  0.12464579  0.12526075  -0.00015107  1
  V  V83  1  0.62666652  0.62469912  0.49970752  1
  V  V84  1  0.87610797  0.62353772  0.74968753  1
  V  V85  1  0.25070161  0.49917514  0.25015937  1
  V  V86  1  0.75118316  0.74831766  0.49900759  1
  V  V87  1  0.24970320  0.74899887  0.00003923  1
  V  V88  1  0.49924532  0.00000846  0.50137177  1
  V  V89  1  0.12489832  0.50146647  0.12405908  1
  V  V90  1  0.74992586  0.87574502  0.12416215  1
  V  V91  1  0.75101550  0.62381979  0.37481711  1
  V  V92  1  0.25142599  0.87742844  0.12732073  1
  V  V93  1  0.00141704  0.87188097  0.37366266  1
  V  V94  1  0.62486118  0.62644294  -0.00065738  1
  V  V95  1  0.62405239  0.24991593  0.37446694  1
  Zn  Zn96  1  0.87781102  0.62567309  0.24918042  1
  Zn  Zn97  1  0.62466390  0.87278254  0.24998110  1
  Zn  Zn98  1  0.00138422  0.37542472  0.87356842  1
  Zn  Zn99  1  0.12391655  -0.00082073  0.62391133  1
  Zn  Zn100  1  0.75134897  0.62633120  0.87516988  1
  Zn  Zn101  1  0.24763802  0.87397419  0.62572088  1
  Zn  Zn102  1  0.62502839  0.37494791  0.24995937  1
  Zn  Zn103  1  0.12410015  0.49543860  0.62539387  1
  Zn  Zn104  1  0.37275900  -0.00140010  0.37588551  1
  Zn  Zn105  1  0.62482711  0.87724135  0.74742978  1
  Zn  Zn106  1  0.00332291  0.74813728  0.24833525  1
  Zn  Zn107  1  0.12687821  0.62632175  0.00031520  1
  Zn  Zn108  1  -0.00071152  0.12511529  0.12417366  1
  Zn  Zn109  1  0.49971378  0.49987132  0.50029893  1
  Zn  Zn110  1  0.50398635  0.75019579  0.25164057  1
  Zn  Zn111  1  0.74916952  0.12453362  0.87468944  1
  Zn  Zn112  1  0.75089628  0.74956476  -0.00078436  1
  Zn  Zn113  1  0.24986832  -0.00110221  0.25260439  1
  Zn  Zn114  1  0.62739272  0.74909280  0.37262713  1
  Zn  Zn115  1  0.62472841  -0.00134915  0.62654537  1
  Zn  Zn116  1  0.37087685  0.74917048  0.62817231  1
  Zn  Zn117  1  0.25045891  0.62615008  0.87590688  1
  Zn  Zn118  1  0.00292310  0.62743952  0.12742958  1
  Zn  Zn119  1  0.37400126  0.50453578  0.87539289  1
  Zn  Zn120  1  0.00167656  0.74690171  0.75227118  1
  Zn  Zn121  1  0.37523710  0.25093354  0.12385201  1
  Zn  Zn122  1  0.12531886  0.37362630  0.74769464  1
  Zn  Zn123  1  0.37291599  0.62552968  0.75321858  1
  Zn  Zn124  1  0.12516395  0.74756288  0.87716561  1
  Zn  Zn125  1  0.12709440  0.87363066  0.25146630  1
  Zn  Zn126  1  -0.00022783  0.12191435  0.62364331  1
  Zn  Zn127  1  0.24766903  0.37553588  0.62441103  1
  Zn  Zn128  1  0.18830348  0.18759430  0.18574727  1
  Zn  Zn129  1  0.18548314  0.18508653  0.68410772  1
  Zn  Zn130  1  0.18873522  0.68707246  0.18720592  1
  Zn  Zn131  1  0.18542367  0.68661724  0.68662045  1
  Zn  Zn132  1  0.68780106  0.18765664  0.18719581  1
  Zn  Zn133  1  0.68626484  0.18596518  0.68801965  1
  Zn  Zn134  1  0.68937730  0.68937706  0.18931134  1
  Zn  Zn135  1  0.68782763  0.68768348  0.68751955  1
  Zn  Zn136  1  0.31298964  0.31103373  0.31266069  1
  Zn  Zn137  1  0.31185057  0.31692168  0.81285740  1
  Zn  Zn138  1  0.31294700  0.81191012  0.31376847  1
  Zn  Zn139  1  0.31313162  0.81537315  0.81509265  1
  Zn  Zn140  1  0.81122601  0.31277318  0.31109551  1
  Zn  Zn141  1  0.81295566  0.31356849  0.81338196  1
  Zn  Zn142  1  0.81255045  0.81159587  0.31024782  1
  Zn  Zn143  1  0.81360032  0.81261151  0.80989154  1
  Zn  Zn144  1  0.18764757  0.43635464  0.43703858  1
  Zn  Zn145  1  0.18516513  0.43619539  0.93338068  1
  Zn  Zn146  1  0.18741105  0.93752349  0.43656695  1
  Zn  Zn147  1  0.18801975  0.93641144  0.93812468  1
  Zn  Zn148  1  0.68611555  0.43798605  0.43711366  1
  Zn  Zn149  1  0.68738170  0.43885252  0.93713418  1
  Zn  Zn150  1  0.68652430  0.93726262  0.43965700  1
  Zn  Zn151  1  0.68772767  0.93707205  0.93745858  1
  Zn  Zn152  1  0.31189137  0.06497112  0.06375032  1
  Zn  Zn153  1  0.31058990  0.06056127  0.56360963  1
  Zn  Zn154  1  0.31491853  0.56349304  0.06491169  1
  Zn  Zn155  1  0.31291304  0.56106960  0.56486722  1
  Zn  Zn156  1  0.81156921  0.06300657  0.06197895  1
  Zn  Zn157  1  0.81301030  0.06115085  0.56287541  1
  Zn  Zn158  1  0.81212240  0.56566055  0.06068218  1
  Zn  Zn159  1  0.81347020  0.56097234  0.56217859  1
  Zn  Zn160  1  0.43808747  0.43765963  0.18721092  1
  Zn  Zn161  1  0.43344396  0.43903731  0.68696344  1
  Zn  Zn162  1  0.43896012  0.93919844  0.18925544  1
  Zn  Zn163  1  0.43660060  0.93851491  0.68724554  1
  Zn  Zn164  1  0.93739999  0.43745665  0.18631251  1
  Zn  Zn165  1  0.93678693  0.43526828  0.68677938  1
  Zn  Zn166  1  0.93934014  0.93482711  0.18853311  1
  Zn  Zn167  1  0.93812230  0.93655240  0.68651547  1
  Zn  Zn168  1  0.06076943  0.06225893  0.31248857  1
  Zn  Zn169  1  0.06140018  0.06181158  0.81242977  1
  Zn  Zn170  1  0.06117802  0.56413815  0.31125202  1
  Zn  Zn171  1  0.06690197  0.56520429  0.81616208  1
  Zn  Zn172  1  0.56073328  0.05969785  0.31361315  1
  Zn  Zn173  1  0.56401312  0.06408073  0.81165831  1
  Zn  Zn174  1  0.56436521  0.56101899  0.31234084  1
  Zn  Zn175  1  0.56243461  0.56422998  0.81240375  1
  Zn  Zn176  1  0.43658747  0.18790621  0.43672497  1
  Zn  Zn177  1  0.43686024  0.19034043  0.93732120  1
  Zn  Zn178  1  0.43802312  0.68929685  0.43900194  1
  Zn  Zn179  1  0.43510237  0.68698584  0.93749539  1
  Zn  Zn180  1  0.93751190  0.18588628  0.43618503  1
  Zn  Zn181  1  0.93699716  0.18542736  0.93589820  1
  Zn  Zn182  1  0.93827145  0.68531471  0.43741645  1
  Zn  Zn183  1  0.93783035  0.68711909  0.93777274  1
  Zn  Zn184  1  0.06220336  0.31442805  0.06222900  1
  Zn  Zn185  1  0.06324891  0.31110180  0.56470719  1
  Zn  Zn186  1  0.06300373  0.81546476  0.06346336  1
  Zn  Zn187  1  0.06252339  0.81041061  0.56337054  1
  Zn  Zn188  1  0.56218071  0.31407436  0.06319655  1
  Zn  Zn189  1  0.56078402  0.31215135  0.56167270  1
  Zn  Zn190  1  0.56252631  0.81364181  0.06233158  1
  Zn  Zn191  1  0.56556526  0.81189695  0.56158504  1
  O  O192  1  0.12421125  0.11662495  0.11819736  1
  O  O193  1  0.12088673  0.12108877  0.61441410  1
  O  O194  1  0.12446231  0.61624583  0.12123366  1
  O  O195  1  0.11688916  0.62167299  0.61747790  1
  O  O196  1  0.61968057  0.12006845  0.11918334  1
  O  O197  1  0.61662119  0.12555093  0.61796296  1
  O  O198  1  0.62090391  0.62046686  0.11917509  1
  O  O199  1  0.61781602  0.62006979  0.62062462  1
  O  O200  1  0.38011067  0.37915195  0.37955288  1
  O  O201  1  0.38240810  0.37795965  0.88242951  1
  O  O202  1  0.38309268  0.87540148  0.38664017  1
  O  O203  1  0.38177285  0.88361227  0.88181004  1
  O  O204  1  0.87965165  0.37859505  0.38016443  1
  O  O205  1  0.87664211  0.38231968  0.88171079  1
  O  O206  1  0.88023216  0.87930344  0.38028068  1
  O  O207  1  0.88139508  0.87989199  0.87943644  1
  O  O208  1  0.25245344  0.00882056  0.37214625  1
  O  O209  1  0.25618374  0.00652215  0.87101465  1
  O  O210  1  0.25608388  0.50434252  0.36915535  1
  O  O211  1  0.25068838  0.50034961  0.86221972  1
  O  O212  1  0.75518632  0.00468260  0.37048961  1
  O  O213  1  0.75635144  -0.00005204  0.86751362  1
  O  O214  1  0.75556006  0.50354639  0.36995871  1
  O  O215  1  0.75601007  0.50132655  0.86764907  1
  O  O216  1  0.24539163  0.49442968  0.13098087  1
  O  O217  1  0.24798540  0.49882053  0.63721629  1
  O  O218  1  0.24096672  0.99622749  0.12455073  1
  O  O219  1  0.24669285  0.99611392  0.63471950  1
  O  O220  1  0.74619971  0.49566980  0.12877384  1
  O  O221  1  0.74498115  0.49308873  0.63026567  1
  O  O222  1  0.74488167  0.99581867  0.13000944  1
  O  O223  1  0.75046167  0.99280265  0.63125383  1
  O  O224  1  0.00554760  0.36935826  0.25518059  1
  O  O225  1  -0.00162747  0.35973946  0.75081591  1
  O  O226  1  0.00410542  0.87185102  0.25975648  1
  O  O227  1  0.00804623  0.87494779  0.75788573  1
  O  O228  1  0.50084791  0.36802842  0.25644692  1
  O  O229  1  0.50446634  0.37101718  0.75442748  1
  O  O230  1  0.49983125  0.87559233  0.26342970  1
  O  O231  1  0.50109160  0.86746134  0.75524866  1
  O  O232  1  0.49286402  0.12985457  0.24620448  1
  O  O233  1  0.49345985  0.13191956  0.74555197  1
  O  O234  1  0.49438549  0.62493860  0.24428201  1
  O  O235  1  0.50082465  0.63453637  0.74109380  1
  O  O236  1  0.99215259  0.13184306  0.24871267  1
  O  O237  1  0.99273275  0.13346861  0.74902506  1
  O  O238  1  0.99518753  0.62884254  0.24574517  1
  O  O239  1  0.99420449  0.62414549  0.74362982  1
  O  O240  1  0.36773266  0.25753335  0.00082940  1
  O  O241  1  0.36906926  0.25409615  0.50444223  1
  O  O242  1  0.37016604  0.75821255  0.00783300  1
  O  O243  1  0.36899060  0.75879441  0.50221262  1
  O  O244  1  0.87018829  0.25481812  0.00404729  1
  O  O245  1  0.86844725  0.25368199  0.50376215  1
  O  O246  1  0.87358135  0.75722688  0.00743870  1
  O  O247  1  0.87033371  0.75391047  0.50575407  1
  O  O248  1  0.12890494  0.24364799  0.49246889  1
  O  O249  1  0.12938475  0.24522796  0.99433811  1
  O  O250  1  0.13067468  0.74238058  0.49449645  1
  O  O251  1  0.13898728  0.75281728  1.00284523  1
  O  O252  1  0.62995181  0.24394646  0.49459367  1
  O  O253  1  0.62985654  0.24669461  0.99505678  1
  O  O254  1  0.63433530  0.74182572  0.49872091  1
  O  O255  1  0.62347282  0.74574656  0.98912917  1
  O  O256  1  0.49931163  0.24377182  0.13132122  1
  O  O257  1  0.49350113  0.24494675  0.63082700  1
  O  O258  1  0.49441203  0.74450826  0.12593574  1
  O  O259  1  0.50233701  0.74234824  0.63402168  1
  O  O260  1  0.99331121  0.24941924  0.13091752  1
  O  O261  1  0.99188060  0.24657269  0.63337098  1
  O  O262  1  0.98940136  0.75127555  0.12426817  1
  O  O263  1  0.99294026  0.74083977  0.62598077  1
  O  O264  1  0.00436383  0.25528052  0.36848334  1
  O  O265  1  0.00415753  0.24911507  0.86535474  1
  O  O266  1  0.00669111  0.75514580  0.37604329  1
  O  O267  1  0.00170114  0.76076764  0.87488388  1
  O  O268  1  0.50526150  0.25460349  0.36984279  1
  O  O269  1  0.50505722  0.25737299  0.86925158  1
  O  O270  1  0.50262569  0.76118279  0.37595934  1
  O  O271  1  0.50673842  0.75595647  0.86787869  1
  O  O272  1  0.24494133  0.13012666  0.49365007  1
  O  O273  1  0.24506966  0.13146099  0.99350944  1
  O  O274  1  0.24564828  0.62855554  0.49503307  1
  O  O275  1  0.25281663  0.63935261  1.00357998  1
  O  O276  1  0.74450265  0.12949523  0.49427087  1
  O  O277  1  0.74264197  0.13250572  0.99858650  1
  O  O278  1  0.74616338  0.62854106  0.49537519  1
  O  O279  1  0.74043096  0.62884301  0.99509983  1
  O  O280  1  0.25467994  0.37114131  0.00415479  1
  O  O281  1  0.25672535  0.36673024  0.49871454  1
  O  O282  1  0.25767905  0.87023418  0.00710738  1
  O  O283  1  0.25903996  0.86914366  0.49950929  1
  O  O284  1  0.75549067  0.37045426  0.00533678  1
  O  O285  1  0.75425755  0.36815141  0.50503766  1
  O  O286  1  0.75735415  0.87483288  0.00650229  1
  O  O287  1  0.75727917  0.86911632  0.50419023  1
  O  O288  1  0.13122055  0.49343843  0.24572734  1
  O  O289  1  0.13642732  0.49810910  0.74919944  1
  O  O290  1  0.12623582  1.00130624  0.23779744  1
  O  O291  1  0.13004599  0.99082693  0.75089131  1
  O  O292  1  0.63290200  0.49787636  0.24220333  1
  O  O293  1  0.63005374  0.49500686  0.74480404  1
  O  O294  1  0.63119890  0.99955475  0.24302943  1
  O  O295  1  0.63337333  0.99843262  0.74794242  1
  O  O296  1  0.37457387  0.01450512  0.25144203  1
  O  O297  1  0.37000328  0.00653907  0.75662963  1
  O  O298  1  0.36962538  0.50505987  0.25585917  1
  O  O299  1  0.36194706  0.50190905  0.75168343  1
  O  O300  1  0.86950058  0.00496443  0.25494699  1
  O  O301  1  0.86975432  0.00411463  0.75462725  1
  O  O302  1  0.86886296  0.49917600  0.25644649  1
  O  O303  1  0.86990157  0.50336866  0.75450221  1
  O  O304  1  0.11933440  0.36849636  0.36875246  1
  O  O305  1  0.12128493  0.36377136  0.86977575  1
  O  O306  1  0.11899479  0.86702714  0.37548205  1
  O  O307  1  0.11793399  0.87552908  0.86739287  1
  O  O308  1  0.61853732  0.36771547  0.37447670  1
  O  O309  1  0.61863319  0.37069290  0.86925912  1
  O  O310  1  0.61389594  0.87370202  0.37649925  1
  O  O311  1  0.61798234  0.86651782  0.87432613  1
  O  O312  1  0.38092891  0.12772761  0.13359975  1
  O  O313  1  0.37995469  0.13096841  0.63081551  1
  O  O314  1  0.38217893  0.63076693  0.13238644  1
  O  O315  1  0.38848856  0.62786248  0.62713086  1
  O  O316  1  0.87557144  0.13149003  0.13119318  1
  O  O317  1  0.87511554  0.13155393  0.63080708  1
  O  O318  1  0.87581061  0.63803927  0.12385512  1
  O  O319  1  0.88047320  0.62802792  0.62964356  1
  O  O320  1  0.25008377  0.25759870  0.11688175  1
  O  O321  1  0.25698436  0.24893623  0.61764275  1
  O  O322  1  0.25793575  0.75743152  0.11937655  1
  O  O323  1  0.25180073  0.75231301  0.61736604  1
  O  O324  1  0.75514718  0.25590190  0.11908220  1
  O  O325  1  0.75343582  0.25500848  0.61934845  1
  O  O326  1  0.75886654  0.75775165  0.12214093  1
  O  O327  1  0.75685146  0.75392089  0.61919367  1
  O  O328  1  0.24350320  0.24422211  0.38005055  1
  O  O329  1  0.24440635  0.24479892  0.87919998  1
  O  O330  1  0.24539018  0.74269216  0.38167427  1
  O  O331  1  0.25169009  0.75388695  0.89059124  1
  O  O332  1  0.74471822  0.24374459  0.38000483  1
  O  O333  1  0.74266820  0.25017257  0.88137459  1
  O  O334  1  0.75218023  0.74252957  0.38202907  1
  O  O335  1  0.73725128  0.75045681  0.87421699  1
  O  O336  1  0.00664598  0.11837585  0.00104298  1
  O  O337  1  0.00535790  0.11755692  0.49782464  1
  O  O338  1  0.00029377  0.61136228  0.00301681  1
  O  O339  1  0.00483936  0.61665129  0.50470254  1
  O  O340  1  0.50437969  0.12170979  0.00537306  1
  O  O341  1  0.50332674  0.12060701  0.50477165  1
  O  O342  1  0.50517608  0.62050789  0.00674149  1
  O  O343  1  0.50653322  0.62547298  0.51048072  1
  O  O344  1  0.49246251  0.37549378  0.49319379  1
  O  O345  1  0.49518464  0.38125497  0.99533951  1
  O  O346  1  0.49299916  0.87869418  0.49532357  1
  O  O347  1  0.49469781  0.88332928  0.99491596  1
  O  O348  1  0.99356953  0.37704902  0.49377526  1
  O  O349  1  0.99362048  0.38529548  0.99879245  1
  O  O350  1  0.99422639  0.87884473  0.49360119  1
  O  O351  1  0.99505032  0.88218758  0.99310038  1
  O  O352  1  0.49365058  0.49327341  0.37660286  1
  O  O353  1  0.50057535  0.49451871  0.88153081  1
  O  O354  1  0.49705675  0.99059304  0.38319472  1
  O  O355  1  0.49479419  0.99724319  0.88037034  1
  O  O356  1  0.99466810  0.49248858  0.38023348  1
  O  O357  1  0.99477786  0.49801945  0.88424785  1
  O  O358  1  0.99361561  0.99301388  0.37974224  1
  O  O359  1  0.99376626  0.99314952  0.88044050  1
  O  O360  1  0.00952680  0.00022610  0.11891275  1
  O  O361  1  0.00022408  0.00139730  0.61474622  1
  O  O362  1  0.00596098  0.49864175  0.11546316  1
  O  O363  1  -0.00108166  0.50439433  0.61724646  1
  O  O364  1  0.50546384  0.00690666  0.11923114  1
  O  O365  1  0.50055485  0.00761141  0.61963784  1
  O  O366  1  0.50626067  0.50607878  0.11961099  1
  O  O367  1  0.50565867  0.51038992  0.62574596  1
  O  O368  1  0.24504219  0.37932595  0.24510095  1
  O  O369  1  0.24904851  0.38741079  0.74740609  1
  O  O370  1  0.24995569  0.87889098  0.24304549  1
  O  O371  1  0.24128773  0.88110180  0.75193552  1
  O  O372  1  0.74845352  0.38142953  0.24244651  1
  O  O373  1  0.74361237  0.37972115  0.74393380  1
  O  O374  1  0.74924539  0.88327848  0.24312383  1
  O  O375  1  0.75022241  0.88170542  0.74233427  1
  O  O376  1  0.25933762  0.12654649  0.25488058  1
  O  O377  1  0.25497943  0.12062621  0.75585816  1
  O  O378  1  0.25736811  0.61826674  0.25630528  1
  O  O379  1  0.25055536  0.61342694  0.74994939  1
  O  O380  1  0.75493433  0.11938973  0.25583480  1
  O  O381  1  0.75556975  0.11794827  0.75139415  1
  O  O382  1  0.75375736  0.61746405  0.25662878  1
  O  O383  1  0.75687956  0.61754964  0.75022011  1
  O  O384  1  0.36970487  0.12463858  0.36614493  1
  O  O385  1  0.36983575  0.12146683  0.86950602  1
  O  O386  1  0.37057019  0.61931967  0.37189344  1
  O  O387  1  0.37018000  0.62237219  0.87136033  1
  O  O388  1  0.86814532  0.11878632  0.36917999  1
  O  O389  1  0.87199824  0.11665298  0.86826716  1
  O  O390  1  0.86841341  0.61598054  0.37570354  1
  O  O391  1  0.87396219  0.61837487  0.86802769  1
  O  O392  1  0.13119257  0.38074396  0.13088166  1
  O  O393  1  0.12912780  0.37689177  0.62859071  1
  O  O394  1  0.13185588  0.88661246  0.12571932  1
  O  O395  1  0.12452468  0.87653679  0.63760963  1
  O  O396  1  0.63205479  0.38279990  0.12512533  1
  O  O397  1  0.62891863  0.37953756  0.63032535  1
  O  O398  1  0.63073526  0.88336923  0.12438553  1
  O  O399  1  0.63504509  0.87690132  0.62603930  1
  O  O400  1  0.11964238  0.25478340  0.25433829  1
  O  O401  1  0.11454968  0.24553783  0.75482453  1
  O  O402  1  0.12551774  0.75174519  0.25869871  1
  O  O403  1  0.12397182  0.76186315  0.75390743  1
  O  O404  1  0.61923880  0.25037560  0.25698424  1
  O  O405  1  0.61866529  0.25641217  0.75472582  1
  O  O406  1  0.62214944  0.75481639  0.25451458  1
  O  O407  1  0.61536904  0.75135989  0.75845161  1
  O  O408  1  0.38096656  0.23957362  0.24899145  1
  O  O409  1  0.37955195  0.24555931  0.74550890  1
  O  O410  1  0.37759867  0.74277194  0.24507682  1
  O  O411  1  0.38793898  0.75093668  0.74970003  1
  O  O412  1  0.87910637  0.24489871  0.24444787  1
  O  O413  1  0.88030618  0.24439530  0.74561307  1
  O  O414  1  0.87679797  0.75024286  0.23666261  1
  O  O415  1  0.87699796  0.74194748  0.74313099  1
  O  O416  1  0.37606834  0.49300419  0.49338296  1
  O  O417  1  0.38202126  0.49393646  1.00019722  1
  O  O418  1  0.38017142  0.99043144  0.49982013  1
  O  O419  1  0.38048770  0.99786738  0.99524427  1
  O  O420  1  0.87977918  0.49146898  0.49412628  1
  O  O421  1  0.88198630  0.49557493  0.99557860  1
  O  O422  1  0.87912082  0.99343360  0.49265163  1
  O  O423  1  0.88004948  0.99531302  0.99516236  1
  O  O424  1  0.12080173  0.00507270  0.00740664  1
  O  O425  1  0.11763598  0.00547955  0.49901895  1
  O  O426  1  0.11600166  0.49784362  0.00546247  1
  O  O427  1  0.11814059  0.50482274  0.49918418  1
  O  O428  1  0.61927144  0.00700524  0.00462063  1
  O  O429  1  0.61822215  0.00761762  0.50275645  1
  O  O430  1  0.61918346  0.50611337  0.00499808  1
  O  O431  1  0.62347052  0.50611670  0.50807058  1
  O  O432  1  0.36828792  0.37372805  0.11878728  1
  O  O433  1  0.37363562  0.36761664  0.61727284  1
  O  O434  1  0.37209272  0.87254744  0.12071041  1
  O  O435  1  0.37444406  0.87244317  0.61343400  1
  O  O436  1  0.86911548  0.36909928  0.11859086  1
  O  O437  1  0.86746192  0.36788585  0.61864789  1
  O  O438  1  0.87039036  0.86935589  0.11906824  1
  O  O439  1  0.87081974  0.86774537  0.61833813  1
  O  O440  1  0.12988396  0.13073175  0.37861183  1
  O  O441  1  0.13067423  0.12931813  0.88050530  1
  O  O442  1  0.13185449  0.62835303  0.38121326  1
  O  O443  1  0.13207438  0.63127102  0.88292936  1
  O  O444  1  0.62951076  0.12966171  0.38075212  1
  O  O445  1  0.62507441  0.13357885  0.88198406  1
  O  O446  1  0.63288562  0.62374416  0.38255397  1
  O  O447  1  0.62381448  0.63632069  0.87999778  1
