# generated using pymatgen
data_V3Zn3O8
_symmetry_space_group_name_H-M   'P 1'
_cell_length_a   17.08721448
_cell_length_b   17.08713336
_cell_length_c   17.08635616
_cell_angle_alpha   89.99776050
_cell_angle_beta   90.00629370
_cell_angle_gamma   90.00069701
_symmetry_Int_Tables_number   1
_chemical_formula_structural   V3Zn3O8
_chemical_formula_sum   'V96 Zn96 O256'
_cell_volume   4988.72921922
_cell_formula_units_Z   32
loop_
 _symmetry_equiv_pos_site_id
 _symmetry_equiv_pos_as_xyz
  1  'x, y, z'
loop_
 _atom_site_type_symbol
 _atom_site_label
 _atom_site_symmetry_multiplicity
 _atom_site_fract_x
 _atom_site_fract_y
 _atom_site_fract_z
 _atom_site_occupancy
  V  V0  1  0.37440028  0.49978527  0.37488822  1
  V  V1  1  -0.00006951  0.50017431  0.49996979  1
  V  V2  1  0.74984057  0.74958639  -0.00007977  1
  V  V3  1  0.75026578  0.49957561  0.75051077  1
  V  V4  1  0.62500435  0.74983455  0.87577788  1
  V  V5  1  0.37539100  0.50018206  0.87614357  1
  V  V6  1  0.12438780  0.75285954  0.87457508  1
  V  V7  1  0.75007751  0.12577300  0.37487238  1
  V  V8  1  0.37485566  0.62528176  0.75044733  1
  V  V9  1  0.87592680  0.74954481  0.62538500  1
  V  V10  1  0.62423540  0.75017090  0.37548641  1
  V  V11  1  0.62466386  0.25084445  0.37466026  1
  V  V12  1  0.74926037  0.37448307  0.62581567  1
  V  V13  1  0.12464164  0.25030203  0.37467909  1
  V  V14  1  0.00035727  0.75098393  0.74894266  1
  V  V15  1  0.87623540  0.87625949  -0.00191627  1
  V  V16  1  0.12592724  -0.00003285  0.12429018  1
  V  V17  1  0.87447080  0.24961231  0.62510133  1
  V  V18  1  0.74972748  0.25033654  0.50082460  1
  V  V19  1  0.87410960  0.62454398  0.24998282  1
  V  V20  1  0.75025946  0.74988152  0.50065114  1
  V  V21  1  0.12539561  0.87415457  0.24952873  1
  V  V22  1  0.37535021  0.37494545  -0.00059205  1
  V  V23  1  0.37534206  0.24962926  0.62582792  1
  V  V24  1  0.37571833  0.00041192  0.87481164  1
  V  V25  1  0.50046420  0.37478448  0.87544253  1
  V  V26  1  0.87466840  0.50097972  0.87431399  1
  V  V27  1  0.87519551  0.87514245  0.49920024  1
  V  V28  1  0.50028745  0.62416328  0.62540024  1
  V  V29  1  -0.00060216  0.24905151  0.24988095  1
  V  V30  1  0.00004909  0.12572933  0.12463798  1
  V  V31  1  0.12559535  0.25033272  0.87507264  1
  V  V32  1  0.37461859  0.75004775  0.62475508  1
  V  V33  1  0.49978975  0.24974927  0.75034756  1
  V  V34  1  0.12429462  0.62518253  -0.00035057  1
  V  V35  1  0.50009165  0.24904506  0.24949450  1
  V  V36  1  -0.00020123  0.12578412  0.62469851  1
  V  V37  1  -0.00013336  0.24982746  0.74875549  1
  V  V38  1  0.37500163  0.87545136  0.00095222  1
  V  V39  1  0.87566942  0.12467650  0.24873277  1
  V  V40  1  0.12620731  -0.00059670  0.62469146  1
  V  V41  1  0.12545688  0.62563754  0.49867445  1
  V  V42  1  0.25099346  0.12499118  0.87415738  1
  V  V43  1  0.00002089  0.37570291  0.87449494  1
  V  V44  1  0.24995964  0.37527648  0.62531529  1
  V  V45  1  0.62537173  -0.00030133  0.12591617  1
  V  V46  1  0.62521853  0.49986099  0.62616020  1
  V  V47  1  0.87518224  0.00005905  0.37433541  1
  V  V48  1  0.74968221  0.37551798  0.12503791  1
  V  V49  1  0.12383384  0.50083063  0.62431825  1
  V  V50  1  -0.00008141  0.00026290  0.49980555  1
  V  V51  1  0.75284831  0.12382108  0.87369048  1
  V  V52  1  0.37515840  0.87463964  0.49970913  1
  V  V53  1  0.37500019  0.12501069  0.75033604  1
  V  V54  1  0.62509950  0.12320509  0.00083455  1
  V  V55  1  0.87548490  0.74943846  0.12545985  1
  V  V56  1  0.50011871  0.62264277  0.12390452  1
  V  V57  1  0.00052438  0.50040022  -0.00102989  1
  V  V58  1  0.62390648  0.62473696  0.00139029  1
  V  V59  1  0.87395890  0.49974015  0.37569174  1
  V  V60  1  0.24942042  0.87623168  0.62461797  1
  V  V61  1  0.75016295  0.62395675  0.87499120  1
  V  V62  1  0.12498543  0.37599601  0.75016621  1
  V  V63  1  0.37506839  0.37531467  0.49996110  1
  V  V64  1  0.49978437  0.74997512  0.75042372  1
  V  V65  1  0.25088176  0.12449210  0.37446409  1
  V  V66  1  0.75010420  0.87475220  0.62498784  1
  V  V67  1  0.12434791  0.12524709  -0.00016887  1
  V  V68  1  0.50037735  0.00033490  0.50076317  1
  V  V69  1  0.62526825  0.87434821  0.75044056  1
  V  V70  1  0.49973557  0.37417178  0.37549757  1
  V  V71  1  0.24953803  0.50060243  0.74999106  1
  V  V72  1  0.62541630  0.24966163  0.87458269  1
  V  V73  1  0.12466311  0.37535665  0.24917142  1
  V  V74  1  0.49993733  0.87562966  0.87535142  1
  V  V75  1  0.37571493  0.24887056  0.12506214  1
  V  V76  1  0.24959936  0.62619868  0.87490346  1
  V  V77  1  0.87471678  0.37446045  0.00022989  1
  V  V78  1  0.12518244  0.49937435  0.12544483  1
  V  V79  1  0.75102233  -0.00075289  0.75054148  1
  V  V80  1  0.00073421  0.87432687  0.37386584  1
  V  V81  1  0.74959004  -0.00010834  0.25031498  1
  V  V82  1  0.12442361  0.12557507  0.49922597  1
  V  V83  1  0.37310412  0.75085035  0.12512620  1
  V  V84  1  0.62463204  -0.00040006  0.62446596  1
  V  V85  1  0.37346860  0.62403979  0.25073488  1
  V  V86  1  0.24932604  0.74870228  0.49822432  1
  V  V87  1  0.74898747  0.62373661  0.37598927  1
  V  V88  1  0.50038921  0.87493746  0.37552822  1
  V  V89  1  0.62535732  0.87523864  0.25098618  1
  V  V90  1  0.25096589  0.25060909  0.00006965  1
  V  V91  1  0.24946139  0.25067155  0.50011577  1
  V  V92  1  0.62464326  0.12418947  0.50049327  1
  V  V93  1  0.62428956  0.62460606  0.50110523  1
  V  V94  1  0.37409653  0.00105450  0.37476625  1
  V  V95  1  -0.00114471  0.37522996  0.37526665  1
  Zn  Zn96  1  0.00084974  0.74903887  0.25094341  1
  Zn  Zn97  1  0.74575067  0.49829661  0.25103541  1
  Zn  Zn98  1  0.25085246  0.87692718  0.12614756  1
  Zn  Zn99  1  0.62487883  0.37442578  0.75139111  1
  Zn  Zn100  1  0.50104273  0.49853902  -0.00050965  1
  Zn  Zn101  1  0.49957952  0.12498211  0.62569536  1
  Zn  Zn102  1  0.00197201  0.87940144  0.87428740  1
  Zn  Zn103  1  0.87696391  0.12192923  0.75032596  1
  Zn  Zn104  1  0.74915947  0.87484432  0.12563530  1
  Zn  Zn105  1  0.24944745  -0.00069453  0.74931091  1
  Zn  Zn106  1  0.87878829  -0.00129757  0.87302848  1
  Zn  Zn107  1  0.00026955  0.62492307  0.12571300  1
  Zn  Zn108  1  0.87410337  0.37550798  0.49970021  1
  Zn  Zn109  1  0.87566805  0.62490471  0.74897420  1
  Zn  Zn110  1  0.50099524  -0.00017139  0.00226143  1
  Zn  Zn111  1  0.24735090  0.75183649  -0.00004646  1
  Zn  Zn112  1  0.24850327  0.62487838  0.37391311  1
  Zn  Zn113  1  0.50018202  0.49913030  0.50116696  1
  Zn  Zn114  1  -0.00156795  0.62452070  0.62459586  1
  Zn  Zn115  1  0.62497228  0.49848488  0.12571226  1
  Zn  Zn116  1  0.75201177  0.24987451  -0.00011132  1
  Zn  Zn117  1  0.25041315  0.37493781  0.12605182  1
  Zn  Zn118  1  0.87483900  0.24939057  0.12323536  1
  Zn  Zn119  1  0.50078501  0.12362839  0.12561086  1
  Zn  Zn120  1  0.37372397  0.12285646  0.24885102  1
  Zn  Zn121  1  0.12547743  0.74777087  0.37254796  1
  Zn  Zn122  1  0.62596918  0.37727539  0.24877477  1
  Zn  Zn123  1  0.24855115  0.49768267  0.25059010  1
  Zn  Zn124  1  0.50001938  0.75048714  0.25180463  1
  Zn  Zn125  1  0.25236789  0.00098419  0.25016307  1
  Zn  Zn126  1  0.12670689  0.87792938  0.75040098  1
  Zn  Zn127  1  -0.00076392  0.00078683  -0.00374332  1
  Zn  Zn128  1  0.18877556  0.18708048  0.18834116  1
  Zn  Zn129  1  0.18765005  0.18656258  0.68790543  1
  Zn  Zn130  1  0.18854613  0.68702905  0.18652231  1
  Zn  Zn131  1  0.18670382  0.68805303  0.68575127  1
  Zn  Zn132  1  0.68875255  0.19014648  0.18654455  1
  Zn  Zn133  1  0.68642568  0.18668054  0.68854369  1
  Zn  Zn134  1  0.68794250  0.68858164  0.18877411  1
  Zn  Zn135  1  0.68848471  0.68632895  0.68860234  1
  Zn  Zn136  1  0.31136268  0.31289707  0.31102779  1
  Zn  Zn137  1  0.31333826  0.31257457  0.81260107  1
  Zn  Zn138  1  0.31031288  0.81267019  0.31252256  1
  Zn  Zn139  1  0.31093207  0.81396661  0.81128914  1
  Zn  Zn140  1  0.81314023  0.31256591  0.31058961  1
  Zn  Zn141  1  0.81291872  0.31180768  0.81136011  1
  Zn  Zn142  1  0.81115951  0.81210313  0.31268783  1
  Zn  Zn143  1  0.81326681  0.81148261  0.81301989  1
  Zn  Zn144  1  0.18775152  0.43879041  0.43621953  1
  Zn  Zn145  1  0.18897551  0.43725970  0.93852937  1
  Zn  Zn146  1  0.18796186  0.93696130  0.43717698  1
  Zn  Zn147  1  0.19053083  0.93840217  0.93865108  1
  Zn  Zn148  1  0.68651415  0.43695114  0.43927681  1
  Zn  Zn149  1  0.68626979  0.43838165  0.94041141  1
  Zn  Zn150  1  0.68786317  0.93762243  0.43711565  1
  Zn  Zn151  1  0.69017349  0.93762295  0.93858686  1
  Zn  Zn152  1  0.31163676  0.06336582  0.06123565  1
  Zn  Zn153  1  0.31248709  0.06320199  0.56209751  1
  Zn  Zn154  1  0.30993234  0.56262076  0.06075910  1
  Zn  Zn155  1  0.31173234  0.56235357  0.56165443  1
  Zn  Zn156  1  0.81152836  0.06069445  0.06307592  1
  Zn  Zn157  1  0.81275076  0.06300934  0.56313050  1
  Zn  Zn158  1  0.81139364  0.56061581  0.06242488  1
  Zn  Zn159  1  0.81345382  0.56263703  0.56346646  1
  Zn  Zn160  1  0.43734820  0.43631231  0.18831383  1
  Zn  Zn161  1  0.43843985  0.43693464  0.68932129  1
  Zn  Zn162  1  0.44101741  0.93913311  0.18913216  1
  Zn  Zn163  1  0.43701528  0.93831358  0.68787946  1
  Zn  Zn164  1  0.93626191  0.43777214  0.18765390  1
  Zn  Zn165  1  0.93574077  0.43675094  0.68649358  1
  Zn  Zn166  1  0.93903177  0.93747017  0.18531641  1
  Zn  Zn167  1  0.93825640  0.93687648  0.68802105  1
  Zn  Zn168  1  0.06325103  0.06145600  0.31137780  1
  Zn  Zn169  1  0.06280628  0.06166372  0.81158536  1
  Zn  Zn170  1  0.06022558  0.56287932  0.31295941  1
  Zn  Zn171  1  0.06177572  0.56536398  0.81178763  1
  Zn  Zn172  1  0.56170633  0.06310430  0.31290009  1
  Zn  Zn173  1  0.56227678  0.06216923  0.81267150  1
  Zn  Zn174  1  0.56181117  0.56016389  0.31092991  1
  Zn  Zn175  1  0.56308294  0.56136779  0.81276149  1
  Zn  Zn176  1  0.43725759  0.18668752  0.43796978  1
  Zn  Zn177  1  0.43939931  0.18743551  0.93745688  1
  Zn  Zn178  1  0.43826837  0.68699019  0.43811733  1
  Zn  Zn179  1  0.43742546  0.68853215  0.93886312  1
  Zn  Zn180  1  0.93620699  0.18841185  0.43780379  1
  Zn  Zn181  1  0.93775677  0.18885498  0.93827565  1
  Zn  Zn182  1  0.93965111  0.68775634  0.43666478  1
  Zn  Zn183  1  0.93843208  0.68736562  0.93714440  1
  Zn  Zn184  1  0.06147001  0.31272057  0.06280658  1
  Zn  Zn185  1  0.06174026  0.31417019  0.56179625  1
  Zn  Zn186  1  0.05960592  0.81291136  0.06244864  1
  Zn  Zn187  1  0.06355901  0.81235817  0.56197359  1
  Zn  Zn188  1  0.56421845  0.31119361  0.06081022  1
  Zn  Zn189  1  0.56238093  0.31294581  0.56336184  1
  Zn  Zn190  1  0.56114619  0.81216090  0.06431890  1
  Zn  Zn191  1  0.56230063  0.81212239  0.56266785  1
  O  O192  1  0.12068363  0.11836601  0.12051104  1
  O  O193  1  0.11975178  0.12106924  0.61780450  1
  O  O194  1  0.12303387  0.61652134  0.11978374  1
  O  O195  1  0.12380700  0.61794193  0.61690160  1
  O  O196  1  0.62702626  0.12012810  0.11547612  1
  O  O197  1  0.62405034  0.11723261  0.61813879  1
  O  O198  1  0.61389147  0.62898293  0.12086535  1
  O  O199  1  0.62000361  0.62072140  0.62059849  1
  O  O200  1  0.37927565  0.38037810  0.37990934  1
  O  O201  1  0.37993537  0.38030338  0.87976640  1
  O  O202  1  0.38043745  0.88001529  0.38094774  1
  O  O203  1  0.37952243  0.87877606  0.88222100  1
  O  O204  1  0.88125520  0.38115737  0.37598974  1
  O  O205  1  0.88098516  0.38084722  0.87964924  1
  O  O206  1  0.87930112  0.88097212  0.37988159  1
  O  O207  1  0.87580438  0.87357356  0.88707575  1
  O  O208  1  0.25663004  0.00700476  0.37638246  1
  O  O209  1  0.25736080  0.00762240  0.87374254  1
  O  O210  1  0.26138114  0.50216379  0.37229708  1
  O  O211  1  0.25470651  0.50578104  0.86884710  1
  O  O212  1  0.75563987  0.00628868  0.37078844  1
  O  O213  1  0.75041119  0.00882473  0.86875027  1
  O  O214  1  0.75596643  0.50684156  0.37569637  1
  O  O215  1  0.75497442  0.50462124  0.87056790  1
  O  O216  1  0.23658450  0.49785912  0.12518546  1
  O  O217  1  0.24467476  0.49420656  0.63094713  1
  O  O218  1  0.23757656  1.00086128  0.12697386  1
  O  O219  1  0.24385985  0.99410540  0.62333307  1
  O  O220  1  0.74917983  0.48858012  0.12672629  1
  O  O221  1  0.74515975  0.49495206  0.63035089  1
  O  O222  1  0.74327378  0.99790954  0.13364804  1
  O  O223  1  0.74446043  0.99356406  0.62930578  1
  O  O224  1  0.00456904  0.36922883  0.25579112  1
  O  O225  1  0.00621206  0.37013434  0.75519194  1
  O  O226  1  0.00939145  0.87505353  0.25481841  1
  O  O227  1  0.00367736  0.86276576  0.75187092  1
  O  O228  1  0.49976560  0.36307345  0.25565836  1
  O  O229  1  0.50084269  0.36751030  0.75775924  1
  O  O230  1  0.50767034  0.87324103  0.25867608  1
  O  O231  1  0.50548502  0.86888974  0.75504611  1
  O  O232  1  0.49773763  0.13832531  0.24996152  1
  O  O233  1  0.49304065  0.13148324  0.74920617  1
  O  O234  1  0.48904489  0.62709571  0.24150771  1
  O  O235  1  0.49443459  0.63105439  0.74565418  1
  O  O236  1  0.99536857  0.12939434  0.24504203  1
  O  O237  1  1.00014788  0.13277229  0.74235975  1
  O  O238  1  0.98568423  0.62752143  0.24870058  1
  O  O239  1  0.99844091  0.63797400  0.74749288  1
  O  O240  1  0.37149193  0.25429064  0.00695028  1
  O  O241  1  0.36873881  0.25554735  0.50546289  1
  O  O242  1  0.37413529  0.75810859  0.00808460  1
  O  O243  1  0.37046278  0.75486787  0.50595407  1
  O  O244  1  0.87337517  0.25938322  0.00171343  1
  O  O245  1  0.86730123  0.25082648  0.50642554  1
  O  O246  1  0.87018551  0.75495322  0.00729604  1
  O  O247  1  0.86962362  0.75599545  0.50440329  1
  O  O248  1  0.12979319  0.24559402  0.49445884  1
  O  O249  1  0.13030593  0.24561231  0.99443942  1
  O  O250  1  0.13119977  0.74251582  0.49913883  1
  O  O251  1  0.12412712  0.74492092  0.99122706  1
  O  O252  1  0.62978838  0.24363157  0.49490477  1
  O  O253  1  0.62815234  0.23866527  0.99317165  1
  O  O254  1  0.63120262  0.74501891  0.49595398  1
  O  O255  1  0.62968319  0.74558599  0.99492686  1
  O  O256  1  0.49272764  0.24920193  0.13246446  1
  O  O257  1  0.49262146  0.24895103  0.63151322  1
  O  O258  1  0.48901436  0.74031582  0.12682408  1
  O  O259  1  0.49462709  0.74490528  0.63115820  1
  O  O260  1  0.99972662  0.24342227  0.13250890  1
  O  O261  1  0.99564515  0.24563847  0.62901990  1
  O  O262  1  0.98622999  0.74666244  0.12687198  1
  O  O263  1  0.99490129  0.75039125  0.63305665  1
  O  O264  1  0.00567260  0.25456481  0.37021493  1
  O  O265  1  0.00645812  0.25586262  0.86904271  1
  O  O266  1  0.00273969  0.75954902  0.37198443  1
  O  O267  1  0.00970352  0.75018325  0.86699863  1
  O  O268  1  0.50370352  0.25419558  0.36797616  1
  O  O269  1  0.50512977  0.25523580  0.86965153  1
  O  O270  1  0.50666490  0.75712260  0.37569997  1
  O  O271  1  0.50518433  0.75511102  0.86927718  1
  O  O272  1  0.24347971  0.13212303  0.49512195  1
  O  O273  1  0.24430052  0.13186070  0.99345888  1
  O  O274  1  0.24315269  0.63072002  0.49948501  1
  O  O275  1  0.24263095  0.62827370  0.99217969  1
  O  O276  1  0.74445396  0.12969032  0.49402105  1
  O  O277  1  0.74166645  0.12404254  0.99101663  1
  O  O278  1  0.74407804  0.63116315  0.49573231  1
  O  O279  1  0.74412799  0.63026482  0.99469893  1
  O  O280  1  0.25706019  0.36738616  0.00085016  1
  O  O281  1  0.25447989  0.36974689  0.50574541  1
  O  O282  1  0.26298696  0.87259659  0.00375991  1
  O  O283  1  0.25642883  0.86893374  0.50459499  1
  O  O284  1  0.75700792  0.37423940  0.00720727  1
  O  O285  1  0.75073959  0.36713643  0.50721973  1
  O  O286  1  0.75856802  0.86718887  0.00205171  1
  O  O287  1  0.75542630  0.86983239  0.50488724  1
  O  O288  1  0.12340424  0.49540036  0.24073438  1
  O  O289  1  0.13005478  0.49550698  0.74530712  1
  O  O290  1  0.12534607  0.99180141  0.24071896  1
  O  O291  1  0.12816641  0.99843524  0.74037988  1
  O  O292  1  0.62726516  0.49598336  0.24462422  1
  O  O293  1  0.63219351  0.49872101  0.74392086  1
  O  O294  1  0.63042173  0.99583769  0.24655041  1
  O  O295  1  0.63022335  0.99307753  0.74460621  1
  O  O296  1  0.37351659  0.00234625  0.25809804  1
  O  O297  1  0.37380167  0.00686410  0.75657099  1
  O  O298  1  0.37377101  0.50762247  0.25606153  1
  O  O299  1  0.36861080  0.50587803  0.75548342  1
  O  O300  1  0.87029642  0.00464405  0.25519034  1
  O  O301  1  0.86654966  0.00126282  0.75144637  1
  O  O302  1  0.87338805  0.51048385  0.25620321  1
  O  O303  1  0.86906858  0.50149395  0.75693561  1
  O  O304  1  0.11906588  0.36978825  0.36967102  1
  O  O305  1  0.12017684  0.37035069  0.86975706  1
  O  O306  1  0.11938334  0.87621358  0.36470636  1
  O  O307  1  0.12635457  0.86330003  0.87518065  1
  O  O308  1  0.61804332  0.36746232  0.37489519  1
  O  O309  1  0.61887674  0.36789430  0.87555991  1
  O  O310  1  0.62017266  0.86998209  0.37155149  1
  O  O311  1  0.62063562  0.86923145  0.87026710  1
  O  O312  1  0.37788950  0.13723305  0.12414112  1
  O  O313  1  0.37552007  0.13243819  0.63098025  1
  O  O314  1  0.38038306  0.63120942  0.12989606  1
  O  O315  1  0.37971331  0.63011498  0.63116210  1
  O  O316  1  0.88148331  0.12459423  0.13121709  1
  O  O317  1  0.88217113  0.13108940  0.62592697  1
  O  O318  1  0.87376039  0.63208007  0.13279611  1
  O  O319  1  0.87743055  0.63414014  0.62737122  1
  O  O320  1  0.25960205  0.25019499  0.11898883  1
  O  O321  1  0.25453062  0.25627809  0.61993220  1
  O  O322  1  0.26323208  0.75126563  0.12246615  1
  O  O323  1  0.25643488  0.75527205  0.61910812  1
  O  O324  1  0.75397608  0.26072492  0.12206852  1
  O  O325  1  0.75410614  0.25394255  0.62070382  1
  O  O326  1  0.75997922  0.75036023  0.11899925  1
  O  O327  1  0.75453086  0.75597270  0.62014570  1
  O  O328  1  0.24394995  0.24586214  0.38133085  1
  O  O329  1  0.24489164  0.24535955  0.88010632  1
  O  O330  1  0.24790352  0.74652793  0.38312639  1
  O  O331  1  0.24005785  0.74439475  0.87379688  1
  O  O332  1  0.74485972  0.24462409  0.37994197  1
  O  O333  1  0.74452413  0.23922428  0.87430719  1
  O  O334  1  0.74455712  0.74419952  0.38212194  1
  O  O335  1  0.74358910  0.74389580  0.87979877  1
  O  O336  1  0.00737434  0.12510356  0.00637109  1
  O  O337  1  0.00519371  0.12005372  0.50433990  1
  O  O338  1  0.00662283  0.61762486  0.00086957  1
  O  O339  1  0.00796658  0.61849051  0.50096601  1
  O  O340  1  0.51452897  0.12303005  -0.00072472  1
  O  O341  1  0.50697667  0.11832668  0.50142736  1
  O  O342  1  0.50415990  0.62544940  0.00908063  1
  O  O343  1  0.50636390  0.62406931  0.50824683  1
  O  O344  1  0.49221314  0.37530641  0.49371772  1
  O  O345  1  0.49281280  0.37544475  0.99337229  1
  O  O346  1  0.49483216  0.88023400  0.49551768  1
  O  O347  1  0.49067759  0.87478930  0.99378628  1
  O  O348  1  0.99891272  0.38164895  0.49254665  1
  O  O349  1  0.99584466  0.38061815  0.99300127  1
  O  O350  1  0.99424502  0.88119905  0.49472895  1
  O  O351  1  0.98788062  0.87580796  0.99815358  1
  O  O352  1  0.49016878  0.49306961  0.37642670  1
  O  O353  1  0.49225816  0.49409942  0.87534462  1
  O  O354  1  0.49526865  0.99460245  0.38176747  1
  O  O355  1  0.49419771  0.99220355  0.87687513  1
  O  O356  1  0.99381976  0.49409131  0.38029993  1
  O  O357  1  0.99569483  0.49466938  0.87853261  1
  O  O358  1  0.99417494  0.99555266  0.38061577  1
  O  O359  1  0.99714964  0.99718138  0.87807183  1
  O  O360  1  0.01122417  0.00673698  0.12304161  1
  O  O361  1  0.00496628  0.00542944  0.61841921  1
  O  O362  1  0.00989848  0.50036724  0.11829439  1
  O  O363  1  0.00651257  0.50000645  0.61907581  1
  O  O364  1  0.50926883  0.00466552  0.12306320  1
  O  O365  1  0.50708467  0.00021907  0.61844116  1
  O  O366  1  0.49760248  0.51298715  0.12293889  1
  O  O367  1  0.50592656  0.50680653  0.62576725  1
  O  O368  1  0.24051353  0.37663916  0.24672291  1
  O  O369  1  0.24459057  0.38076106  0.74539694  1
  O  O370  1  0.23839380  0.87849309  0.24736349  1
  O  O371  1  0.24838524  0.87770254  0.73991102  1
  O  O372  1  0.74936474  0.37577747  0.23910089  1
  O  O373  1  0.74789532  0.38144439  0.74404336  1
  O  O374  1  0.74336497  0.88249793  0.25073351  1
  O  O375  1  0.74395987  0.87822556  0.74471815  1
  O  O376  1  0.25212783  0.12334373  0.25960609  1
  O  O377  1  0.25705782  0.12529897  0.75713798  1
  O  O378  1  0.26343107  0.62245104  0.24985466  1
  O  O379  1  0.25547108  0.61998461  0.75437601  1
  O  O380  1  0.75525087  0.12020264  0.25613700  1
  O  O381  1  0.74979700  0.11825121  0.75917020  1
  O  O382  1  0.75975656  0.62480233  0.25686170  1
  O  O383  1  0.75154672  0.61858196  0.75773047  1
  O  O384  1  0.36824911  0.11895293  0.37575365  1
  O  O385  1  0.37039725  0.12043557  0.87112019  1
  O  O386  1  0.37726648  0.61815237  0.36576666  1
  O  O387  1  0.37014262  0.62133227  0.86967113  1
  O  O388  1  0.86996245  0.11895706  0.36953949  1
  O  O389  1  0.86296803  0.12410288  0.87501466  1
  O  O390  1  0.86920776  0.62144525  0.36810252  1
  O  O391  1  0.86772195  0.61872854  0.87488224  1
  O  O392  1  0.12487735  0.38372347  0.12980792  1
  O  O393  1  0.13082446  0.38022817  0.63070328  1
  O  O394  1  0.12445593  0.88305513  0.13113388  1
  O  O395  1  0.13212914  0.88217098  0.62340327  1
  O  O396  1  0.63584865  0.37536793  0.12404595  1
  O  O397  1  0.63118914  0.38161166  0.62709211  1
  O  O398  1  0.62623625  0.88013683  0.13231371  1
  O  O399  1  0.63076156  0.87906357  0.63046279  1
  O  O400  1  0.11885081  0.25470376  0.25563878  1
  O  O401  1  0.12040887  0.25658148  0.75507786  1
  O  O402  1  0.12303281  0.76104154  0.24796022  1
  O  O403  1  0.11780913  0.75031730  0.75798550  1
  O  O404  1  0.61555714  0.25099665  0.25594078  1
  O  O405  1  0.61773994  0.25030030  0.75697050  1
  O  O406  1  0.62393796  0.75626698  0.25812702  1
  O  O407  1  0.61974762  0.75503627  0.75567242  1
  O  O408  1  0.38248317  0.24980508  0.24140408  1
  O  O409  1  0.37971047  0.24488286  0.74530359  1
  O  O410  1  0.37642184  0.74251633  0.24212798  1
  O  O411  1  0.38040803  0.74476569  0.74495331  1
  O  O412  1  0.88265394  0.24143507  0.24957169  1
  O  O413  1  0.88285545  0.24747116  0.74337295  1
  O  O414  1  0.87305982  0.74236834  0.24194838  1
  O  O415  1  0.88396082  0.75007696  0.74460547  1
  O  O416  1  0.37626787  0.49373543  0.49277343  1
  O  O417  1  0.37508289  0.49389356  0.99314086  1
  O  O418  1  0.38099279  0.99399059  0.49560138  1
  O  O419  1  0.37724540  0.99157941  0.99516384  1
  O  O420  1  0.88167388  0.49933745  0.49352281  1
  O  O421  1  0.88144657  0.49496924  0.99352354  1
  O  O422  1  0.87993063  0.99482628  0.49432419  1
  O  O423  1  0.87482839  0.98750598  0.99996821  1
  O  O424  1  0.12521004  0.00593815  0.00901642  1
  O  O425  1  0.11854957  0.00615852  0.50393136  1
  O  O426  1  0.12025846  0.50406829  0.00618691  1
  O  O427  1  0.12050258  0.50540395  0.50497554  1
  O  O428  1  0.62592771  0.00728943  0.00606233  1
  O  O429  1  0.62047358  0.00421631  0.50476414  1
  O  O430  1  0.62081573  0.51007848  0.00394855  1
  O  O431  1  0.62288902  0.50749426  0.50771793  1
  O  O432  1  0.37447464  0.36441598  0.11930136  1
  O  O433  1  0.36873057  0.37022268  0.62074482  1
  O  O434  1  0.37764733  0.86703198  0.11892290  1
  O  O435  1  0.37099598  0.86921386  0.61884962  1
  O  O436  1  0.86804214  0.37474098  0.11829506  1
  O  O437  1  0.86760442  0.36759528  0.62264218  1
  O  O438  1  0.87313396  0.86573885  0.11804748  1
  O  O439  1  0.86911584  0.87013116  0.61803511  1
  O  O440  1  0.12911201  0.13072535  0.38054467  1
  O  O441  1  0.13078094  0.13171472  0.88004549  1
  O  O442  1  0.12717832  0.62573157  0.38274783  1
  O  O443  1  0.13000509  0.63336878  0.87932871  1
  O  O444  1  0.63098313  0.13053612  0.38058495  1
  O  O445  1  0.63360596  0.12757800  0.88183204  1
  O  O446  1  0.62857642  0.63019701  0.38091855  1
  O  O447  1  0.62926976  0.63108768  0.88091209  1
