# generated using pymatgen
data_V3Zn3O8
_symmetry_space_group_name_H-M   'P 1'
_cell_length_a   17.08782874
_cell_length_b   17.08817814
_cell_length_c   17.08778534
_cell_angle_alpha   90.00062165
_cell_angle_beta   90.00163697
_cell_angle_gamma   90.00200811
_symmetry_Int_Tables_number   1
_chemical_formula_structural   V3Zn3O8
_chemical_formula_sum   'V96 Zn96 O256'
_cell_volume   4989.63094501
_cell_formula_units_Z   32
loop_
 _symmetry_equiv_pos_site_id
 _symmetry_equiv_pos_as_xyz
  1  'x, y, z'
loop_
 _atom_site_type_symbol
 _atom_site_label
 _atom_site_symmetry_multiplicity
 _atom_site_fract_x
 _atom_site_fract_y
 _atom_site_fract_z
 _atom_site_occupancy
  V  V0  1  0.25076565  0.37409843  0.12436515  1
  V  V1  1  0.00131936  0.87454140  0.87427432  1
  V  V2  1  0.12442854  0.49963126  0.62544849  1
  V  V3  1  0.62546843  0.87508553  0.24971230  1
  V  V4  1  0.87452820  0.87478721  0.00134323  1
  V  V5  1  0.24938989  0.74922080  0.50001947  1
  V  V6  1  0.12632894  -0.00041608  0.12510636  1
  V  V7  1  0.50075077  0.50070837  0.00039274  1
  V  V8  1  0.62478127  0.62564966  0.50036081  1
  V  V9  1  0.37531348  0.75021888  0.12489464  1
  V  V10  1  0.25076003  -0.00133355  0.75017317  1
  V  V11  1  0.12540897  0.37533669  0.25058672  1
  V  V12  1  0.37593356  0.87468838  0.00003872  1
  V  V13  1  0.75127505  0.00187939  0.75003950  1
  V  V14  1  0.12538930  0.62334507  -0.00018814  1
  V  V15  1  0.00020845  0.87505632  0.37354490  1
  V  V16  1  0.87429228  0.37500571  0.50096919  1
  V  V17  1  0.75075358  0.75101548  0.00032337  1
  V  V18  1  0.87510730  0.87569860  0.49838371  1
  V  V19  1  0.24923917  0.62388472  0.87488196  1
  V  V20  1  0.37393736  0.49983973  0.87555779  1
  V  V21  1  0.12460922  0.37545050  0.74948330  1
  V  V22  1  0.75054021  0.25040054  0.00021821  1
  V  V23  1  0.00034232  0.74950064  0.24915666  1
  V  V24  1  0.49963850  0.12503492  0.12495799  1
  V  V25  1  0.37600637  0.49834588  0.37622577  1
  V  V26  1  0.75010436  0.12565076  0.37593517  1
  V  V27  1  0.62466025  0.37593028  0.75065597  1
  V  V28  1  0.75102403  0.62483007  0.87477274  1
  V  V29  1  0.74890538  0.75019668  0.49885151  1
  V  V30  1  0.49961135  0.62557723  0.62671100  1
  V  V31  1  0.62569056  0.75061795  0.87435518  1
  V  V32  1  0.12535365  0.49933451  0.12564195  1
  V  V33  1  0.12480524  0.12467972  0.50101050  1
  V  V34  1  0.25118565  0.50015985  0.25087054  1
  V  V35  1  0.37509519  0.12339988  0.75001770  1
  V  V36  1  0.37521727  0.62553287  0.74998094  1
  V  V37  1  0.25031871  0.87494748  0.12514525  1
  V  V38  1  0.75064802  0.87562805  0.62414805  1
  V  V39  1  0.87470949  0.50122283  0.87431162  1
  V  V40  1  -0.00190385  0.62651987  0.62460420  1
  V  V41  1  0.00085427  0.00004364  -0.00022759  1
  V  V42  1  0.75043061  0.12550702  0.87398346  1
  V  V43  1  0.12434578  0.74904488  0.87486943  1
  V  V44  1  0.12534200  0.62563162  0.49990010  1
  V  V45  1  0.12546151  0.25040092  0.37596493  1
  V  V46  1  0.87474565  0.50031548  0.37401479  1
  V  V47  1  0.00021468  0.50036757  0.49989358  1
  V  V48  1  0.00020746  0.12537012  0.12549240  1
  V  V49  1  0.62459529  0.50094299  0.12482794  1
  V  V50  1  0.87577772  0.12490410  0.25030383  1
  V  V51  1  0.37555805  -0.00096904  0.87487419  1
  V  V52  1  0.50007667  0.37447168  0.87495072  1
  V  V53  1  0.62411313  0.87403594  0.74964985  1
  V  V54  1  0.87582956  -0.00034758  0.37465413  1
  V  V55  1  0.12514234  0.12547376  -0.00044389  1
  V  V56  1  0.37423841  0.24967740  0.62591031  1
  V  V57  1  0.62434617  0.25124702  0.87506500  1
  V  V58  1  0.74992482  -0.00029870  0.24908873  1
  V  V59  1  0.25058392  0.25048318  0.50106594  1
  V  V60  1  0.74995407  0.49998702  0.25028025  1
  V  V61  1  0.75038071  0.37452474  0.12508919  1
  V  V62  1  0.37517078  0.24970370  0.12419503  1
  V  V63  1  0.50041718  -0.00055272  -0.00068821  1
  V  V64  1  0.87589472  0.74985242  0.62427510  1
  V  V65  1  0.12492753  0.87476116  0.24920681  1
  V  V66  1  0.62581703  -0.00046243  0.12501053  1
  V  V67  1  -0.00194765  0.25028221  0.74924550  1
  V  V68  1  0.37452881  0.37448865  -0.00009690  1
  V  V69  1  0.62520251  0.62534465  -0.00001234  1
  V  V70  1  0.62569995  0.12487316  -0.00025822  1
  V  V71  1  0.37539525  0.62470184  0.24941757  1
  V  V72  1  0.12595053  0.24960845  0.87608330  1
  V  V73  1  0.75005676  0.37485425  0.62434026  1
  V  V74  1  0.87466303  0.37484621  0.00067384  1
  V  V75  1  -0.00032318  0.24953014  0.25044108  1
  V  V76  1  0.62480289  0.37489603  0.25040048  1
  V  V77  1  -0.00149812  0.12435104  0.62551891  1
  V  V78  1  -0.00013640  0.49881559  0.00052171  1
  V  V79  1  0.62451561  0.74957747  0.37540296  1
  V  V80  1  0.49904704  0.12506217  0.62431457  1
  V  V81  1  0.12546654  -0.00054584  0.62608180  1
  V  V82  1  0.37491720  0.87491113  0.49962716  1
  V  V83  1  0.25145714  0.12313869  0.37288879  1
  V  V84  1  0.62521482  0.12651517  0.49916368  1
  V  V85  1  0.49932112  0.49913712  0.50047516  1
  V  V86  1  0.00005890  0.62469229  0.12633008  1
  V  V87  1  0.49894228  -0.00034044  0.49901501  1
  V  V88  1  0.62453820  0.50004067  0.62569213  1
  V  V89  1  0.49907756  0.87539704  0.37580405  1
  V  V90  1  0.49965374  0.74988591  0.25004392  1
  V  V91  1  0.24961221  0.87536501  0.62474885  1
  V  V92  1  0.50088836  0.24999919  0.25123698  1
  V  V93  1  0.87526050  0.62451419  0.24956880  1
  V  V94  1  0.24986437  0.37464732  0.62518208  1
  V  V95  1  0.00048854  0.37523952  0.37572341  1
  Zn  Zn96  1  0.87330511  0.12653823  0.75030256  1
  Zn  Zn97  1  0.62664091  0.25229841  0.37512275  1
  Zn  Zn98  1  0.87354237  0.74911097  0.12587938  1
  Zn  Zn99  1  0.49878844  0.24928857  0.75051324  1
  Zn  Zn100  1  0.87479616  0.24944426  0.12510189  1
  Zn  Zn101  1  0.25203426  0.74908291  0.00034002  1
  Zn  Zn102  1  -0.00046180  0.37559815  0.87535069  1
  Zn  Zn103  1  0.12509485  0.87386264  0.74909754  1
  Zn  Zn104  1  0.74999724  0.87363122  0.12511947  1
  Zn  Zn105  1  0.75104030  0.24989635  0.49891102  1
  Zn  Zn106  1  0.37457786  -0.00021117  0.37185314  1
  Zn  Zn107  1  0.87729256  0.00325185  0.87461369  1
  Zn  Zn108  1  0.12529432  0.74899214  0.37349395  1
  Zn  Zn109  1  0.37425330  0.12274161  0.24855161  1
  Zn  Zn110  1  -0.00139252  0.75021755  0.74796374  1
  Zn  Zn111  1  0.87461998  0.62747221  0.74934315  1
  Zn  Zn112  1  0.50190267  0.37337923  0.37779836  1
  Zn  Zn113  1  0.75069360  0.50261998  0.74943617  1
  Zn  Zn114  1  0.74911376  0.62484892  0.37391834  1
  Zn  Zn115  1  0.49969626  0.75085209  0.75022436  1
  Zn  Zn116  1  0.25053809  0.24843110  0.00022563  1
  Zn  Zn117  1  0.25227322  -0.00058773  0.24976856  1
  Zn  Zn118  1  0.49996962  0.62587362  0.12440035  1
  Zn  Zn119  1  0.50024947  0.87368396  0.87482320  1
  Zn  Zn120  1  0.24875645  0.62510199  0.37527737  1
  Zn  Zn121  1  0.62479155  0.00086034  0.62441036  1
  Zn  Zn122  1  -0.00006852  -0.00041884  0.50002510  1
  Zn  Zn123  1  0.37616820  0.75045822  0.62632298  1
  Zn  Zn124  1  0.87299916  0.24957563  0.62436137  1
  Zn  Zn125  1  0.24812056  0.49952214  0.74964350  1
  Zn  Zn126  1  0.37680443  0.37441067  0.50149104  1
  Zn  Zn127  1  0.25081215  0.12360039  0.87647413  1
  Zn  Zn128  1  0.18678659  0.18832803  0.18749024  1
  Zn  Zn129  1  0.18813765  0.18606686  0.68911494  1
  Zn  Zn130  1  0.18913724  0.68821544  0.18783634  1
  Zn  Zn131  1  0.18704716  0.68710771  0.68779400  1
  Zn  Zn132  1  0.68785165  0.18721316  0.18727310  1
  Zn  Zn133  1  0.68418391  0.18968360  0.68684180  1
  Zn  Zn134  1  0.68851501  0.68752064  0.18621802  1
  Zn  Zn135  1  0.69035989  0.68738776  0.68789576  1
  Zn  Zn136  1  0.31425987  0.31195056  0.31189926  1
  Zn  Zn137  1  0.31155861  0.31165907  0.81090099  1
  Zn  Zn138  1  0.31189220  0.81248243  0.31292907  1
  Zn  Zn139  1  0.31140796  0.81236540  0.81363201  1
  Zn  Zn140  1  0.81235446  0.31143233  0.31369860  1
  Zn  Zn141  1  0.81142613  0.31472588  0.81240203  1
  Zn  Zn142  1  0.81257871  0.81143673  0.31207611  1
  Zn  Zn143  1  0.81325218  0.81231636  0.81221936  1
  Zn  Zn144  1  0.18943780  0.43770548  0.43896269  1
  Zn  Zn145  1  0.18808674  0.43632429  0.93673950  1
  Zn  Zn146  1  0.18524663  0.93759233  0.43791125  1
  Zn  Zn147  1  0.18986119  0.93711870  0.93883272  1
  Zn  Zn148  1  0.68656502  0.43803077  0.43679159  1
  Zn  Zn149  1  0.68833864  0.43805581  0.93820698  1
  Zn  Zn150  1  0.68667077  0.93912479  0.43608426  1
  Zn  Zn151  1  0.68844691  0.93824864  0.93540819  1
  Zn  Zn152  1  0.31184854  0.06259991  0.06146515  1
  Zn  Zn153  1  0.31315154  0.06160480  0.56140399  1
  Zn  Zn154  1  0.31273598  0.56313635  0.06267674  1
  Zn  Zn155  1  0.31176689  0.56195550  0.56409732  1
  Zn  Zn156  1  0.81343114  0.06183169  0.06263428  1
  Zn  Zn157  1  0.81302090  0.06175491  0.56265854  1
  Zn  Zn158  1  0.81203725  0.56261218  0.06261633  1
  Zn  Zn159  1  0.81186008  0.56278851  0.56088976  1
  Zn  Zn160  1  0.43837033  0.43666960  0.18716149  1
  Zn  Zn161  1  0.43718134  0.43757032  0.68863618  1
  Zn  Zn162  1  0.43628630  0.93849995  0.18873510  1
  Zn  Zn163  1  0.43750864  0.93845745  0.68516132  1
  Zn  Zn164  1  0.93695324  0.43690838  0.18749087  1
  Zn  Zn165  1  0.93730999  0.43860731  0.68785878  1
  Zn  Zn166  1  0.93859546  0.93797900  0.18686179  1
  Zn  Zn167  1  0.93666019  0.93725434  0.68810686  1
  Zn  Zn168  1  0.06360930  0.06094060  0.31197554  1
  Zn  Zn169  1  0.06478356  0.06218868  0.81154271  1
  Zn  Zn170  1  0.06331538  0.56364247  0.31389902  1
  Zn  Zn171  1  0.05908097  0.56374231  0.81006082  1
  Zn  Zn172  1  0.56269565  0.06248438  0.31338863  1
  Zn  Zn173  1  0.56200151  0.06200764  0.81259388  1
  Zn  Zn174  1  0.56122679  0.56322493  0.31289712  1
  Zn  Zn175  1  0.56252542  0.56203587  0.81300787  1
  Zn  Zn176  1  0.43625785  0.18775871  0.43754604  1
  Zn  Zn177  1  0.43747346  0.18671679  0.93692620  1
  Zn  Zn178  1  0.43641874  0.68648944  0.43789181  1
  Zn  Zn179  1  0.43968704  0.68895437  0.93636657  1
  Zn  Zn180  1  0.93644315  0.18857421  0.43892212  1
  Zn  Zn181  1  0.93658462  0.18748476  0.93682763  1
  Zn  Zn182  1  0.93740384  0.68839161  0.43585701  1
  Zn  Zn183  1  0.93790222  0.68724648  0.93976536  1
  Zn  Zn184  1  0.06105240  0.31240555  0.06283821  1
  Zn  Zn185  1  0.06331103  0.31224345  0.56259104  1
  Zn  Zn186  1  0.06307711  0.81067420  0.06269345  1
  Zn  Zn187  1  0.06236815  0.81341016  0.56040103  1
  Zn  Zn188  1  0.56271236  0.31321272  0.06312880  1
  Zn  Zn189  1  0.56086730  0.31166469  0.56339612  1
  Zn  Zn190  1  0.56195641  0.81308870  0.06322584  1
  Zn  Zn191  1  0.56130799  0.81140385  0.56439431  1
  O  O192  1  0.11923734  0.12034937  0.11977780  1
  O  O193  1  0.11739832  0.12032042  0.62098800  1
  O  O194  1  0.12063656  0.61803177  0.12031864  1
  O  O195  1  0.11870541  0.61963119  0.61938050  1
  O  O196  1  0.62009382  0.11925857  0.11863281  1
  O  O197  1  0.61881190  0.12427997  0.61534090  1
  O  O198  1  0.62395550  0.61829058  0.11777300  1
  O  O199  1  0.62048879  0.61984225  0.62058160  1
  O  O200  1  0.37693465  0.38747307  0.37597999  1
  O  O201  1  0.37932084  0.37952156  0.87945621  1
  O  O202  1  0.38189791  0.87505709  0.38202282  1
  O  O203  1  0.37710681  0.88080132  0.88112885  1
  O  O204  1  0.88130798  0.38077754  0.38006255  1
  O  O205  1  0.87561575  0.38484765  0.88164303  1
  O  O206  1  0.88014250  0.88059496  0.37871432  1
  O  O207  1  0.88502362  0.87512324  0.88482233  1
  O  O208  1  0.24850977  0.01255980  0.37482065  1
  O  O209  1  0.25686517  0.00014387  0.86838949  1
  O  O210  1  0.25931944  0.50041494  0.36958286  1
  O  O211  1  0.25596951  0.50582431  0.87272745  1
  O  O212  1  0.75592669  0.00566223  0.36845005  1
  O  O213  1  0.75075060  0.00674417  0.86499788  1
  O  O214  1  0.75693908  0.50089633  0.36805683  1
  O  O215  1  0.75987649  0.50569164  0.87660869  1
  O  O216  1  0.24482067  0.49405979  0.13087709  1
  O  O217  1  0.24188632  0.49333951  0.62625913  1
  O  O218  1  0.24300134  0.99336061  0.12541094  1
  O  O219  1  0.24492913  0.99472032  0.62967614  1
  O  O220  1  0.74423021  0.49412004  0.13029964  1
  O  O221  1  0.74380411  0.49065968  0.62509833  1
  O  O222  1  0.74355279  0.99889667  0.13141001  1
  O  O223  1  0.74850860  0.99470216  0.63433977  1
  O  O224  1  0.00574538  0.37022800  0.25623553  1
  O  O225  1  0.00577140  0.36485098  0.74943121  1
  O  O226  1  0.00482789  0.86937395  0.25341711  1
  O  O227  1  0.00141913  0.87394509  0.76324479  1
  O  O228  1  0.50640125  0.36466458  0.24843124  1
  O  O229  1  0.50640025  0.37387577  0.75751951  1
  O  O230  1  0.50604400  0.86944011  0.25580308  1
  O  O231  1  0.51331921  0.87547672  0.74955847  1
  O  O232  1  0.50145148  0.13457109  0.24353658  1
  O  O233  1  0.49390812  0.12487868  0.74269975  1
  O  O234  1  0.49339629  0.63222989  0.24833227  1
  O  O235  1  0.49081583  0.62481291  0.74584044  1
  O  O236  1  0.99569658  0.13007863  0.24563681  1
  O  O237  1  1.00043806  0.13335854  0.74177499  1
  O  O238  1  0.99556430  0.62892039  0.24508804  1
  O  O239  1  0.99580330  0.62879736  0.73997108  1
  O  O240  1  0.37456524  0.25700969  0.00600775  1
  O  O241  1  0.36822142  0.25140461  0.50738453  1
  O  O242  1  0.37513594  0.75610148  0.00588640  1
  O  O243  1  0.36534417  0.75461883  0.50208484  1
  O  O244  1  0.86848580  0.25667337  0.00074739  1
  O  O245  1  0.87319165  0.25959696  0.50390564  1
  O  O246  1  0.87015536  0.75915448  0.00100035  1
  O  O247  1  0.86844726  0.75642635  0.50346180  1
  O  O248  1  0.13031535  0.24459663  0.49480925  1
  O  O249  1  0.12322191  0.24537616  0.99030630  1
  O  O250  1  0.13435543  0.74463254  0.49881595  1
  O  O251  1  0.12576002  0.74234731  0.99023701  1
  O  O252  1  0.62453945  0.23714059  0.49782459  1
  O  O253  1  0.63074253  0.24491930  0.99508571  1
  O  O254  1  0.62951737  0.74553594  0.49500404  1
  O  O255  1  0.63080116  0.74601355  0.99448028  1
  O  O256  1  0.49582999  0.24496261  0.13171170  1
  O  O257  1  0.49226619  0.24280247  0.62701563  1
  O  O258  1  0.49346418  0.74928516  0.13260600  1
  O  O259  1  0.49686117  0.74122582  0.62926135  1
  O  O260  1  0.99918265  0.24332706  0.13273119  1
  O  O261  1  1.00214665  0.24141919  0.63421680  1
  O  O262  1  0.99884187  0.74193913  0.13071396  1
  O  O263  1  0.99350401  0.74480447  0.62339460  1
  O  O264  1  0.00621168  0.25556802  0.37074190  1
  O  O265  1  0.00850231  0.25046123  0.86553529  1
  O  O266  1  0.00123858  0.75727026  0.36728859  1
  O  O267  1  0.00826057  0.75779525  0.87653256  1
  O  O268  1  0.50048384  0.25087649  0.36242944  1
  O  O269  1  0.50691921  0.25694953  0.87507816  1
  O  O270  1  0.50516642  0.75542516  0.37042240  1
  O  O271  1  0.51018055  0.75345596  0.87081264  1
  O  O272  1  0.24414171  0.13091299  0.49289877  1
  O  O273  1  0.24084271  0.12847217  0.99726657  1
  O  O274  1  0.24447296  0.63418267  0.50155766  1
  O  O275  1  0.24262437  0.62500820  0.99324787  1
  O  O276  1  0.74101539  0.12486998  0.49585823  1
  O  O277  1  0.74481205  0.12992441  0.99475298  1
  O  O278  1  0.74237479  0.63187191  0.49812126  1
  O  O279  1  0.74460761  0.63081121  0.99462994  1
  O  O280  1  0.25655533  0.37367154  0.00689283  1
  O  O281  1  0.25100797  0.36760910  0.50734223  1
  O  O282  1  0.25781966  0.87283238  0.00724127  1
  O  O283  1  0.25392925  0.86784252  0.50466178  1
  O  O284  1  0.75449879  0.36973051  0.00580895  1
  O  O285  1  0.75424460  0.37524641  0.50920017  1
  O  O286  1  0.76025438  0.87086822  -0.00162471  1
  O  O287  1  0.75439624  0.87092701  0.50435783  1
  O  O288  1  0.13050023  0.49432179  0.24546041  1
  O  O289  1  0.12382097  0.49341639  0.74334072  1
  O  O290  1  0.12582966  0.99283978  0.24172128  1
  O  O291  1  0.13246838  0.99765670  0.74389725  1
  O  O292  1  0.62960756  0.49529194  0.24484416  1
  O  O293  1  0.62673709  0.49378356  0.74375228  1
  O  O294  1  0.63004983  0.99493859  0.24502219  1
  O  O295  1  0.63498113  0.99162423  0.74923169  1
  O  O296  1  0.37069938  0.00498065  0.25424360  1
  O  O297  1  0.37032109  0.00395153  0.75492172  1
  O  O298  1  0.37131739  0.50391058  0.25660903  1
  O  O299  1  0.37348588  0.51010437  0.75688318  1
  O  O300  1  0.87030049  0.00528681  0.25476424  1
  O  O301  1  0.86213050  0.00068920  0.75247002  1
  O  O302  1  0.87008611  0.50426777  0.25508967  1
  O  O303  1  0.87462067  0.50125247  0.76338545  1
  O  O304  1  0.12022398  0.37045867  0.37050747  1
  O  O305  1  0.12201375  0.36627052  0.86940539  1
  O  O306  1  0.11777923  0.87425405  0.36777100  1
  O  O307  1  0.11672804  0.86600949  0.87779101  1
  O  O308  1  0.62225886  0.37267752  0.36636219  1
  O  O309  1  0.62043888  0.37100579  0.87112234  1
  O  O310  1  0.61911885  0.86936994  0.36963599  1
  O  O311  1  0.62654870  0.86971275  0.86442044  1
  O  O312  1  0.38218351  0.13171130  0.12473990  1
  O  O313  1  0.37947613  0.12968207  0.62987029  1
  O  O314  1  0.37661054  0.63134801  0.13123042  1
  O  O315  1  0.37979135  0.62388744  0.63546463  1
  O  O316  1  0.88245408  0.12557023  0.13185221  1
  O  O317  1  0.88591358  0.12751938  0.62711516  1
  O  O318  1  0.88274590  0.62398433  0.13131672  1
  O  O319  1  0.88061760  0.63134385  0.62324674  1
  O  O320  1  0.25621178  0.25704144  0.12458826  1
  O  O321  1  0.25385742  0.25392765  0.62015140  1
  O  O322  1  0.25720747  0.75652661  0.12273779  1
  O  O323  1  0.25020148  0.75566362  0.61523382  1
  O  O324  1  0.75103187  0.25626829  0.11812662  1
  O  O325  1  0.75044027  0.26314973  0.62363512  1
  O  O326  1  0.75296331  0.75366596  0.11633886  1
  O  O327  1  0.75541726  0.75625430  0.61776805  1
  O  O328  1  0.24458225  0.24377430  0.37992967  1
  O  O329  1  0.23621844  0.24820228  0.87539660  1
  O  O330  1  0.24855140  0.74831651  0.38829226  1
  O  O331  1  0.23952449  0.74370440  0.87731939  1
  O  O332  1  0.74740512  0.24132348  0.37781313  1
  O  O333  1  0.74392066  0.24586025  0.88022131  1
  O  O334  1  0.74247350  0.74880201  0.38123323  1
  O  O335  1  0.74563642  0.74494760  0.88099166  1
  O  O336  1  0.00494212  0.11967726  0.00492409  1
  O  O337  1  0.00557844  0.12555669  0.51054940  1
  O  O338  1  0.00602479  0.61837577  0.00652925  1
  O  O339  1  0.00493902  0.61940750  0.50450770  1
  O  O340  1  0.50673737  0.11954244  0.00537095  1
  O  O341  1  0.50655538  0.11990352  0.50335501  1
  O  O342  1  0.50746918  0.61806289  0.00028143  1
  O  O343  1  0.50524379  0.61957250  0.50675193  1
  O  O344  1  0.49753325  0.38310271  0.49844322  1
  O  O345  1  0.49477626  0.38092091  0.99471179  1
  O  O346  1  0.49549352  0.87931000  0.49555047  1
  O  O347  1  0.49428239  0.88263304  0.99901551  1
  O  O348  1  0.99585544  0.38065481  0.49511327  1
  O  O349  1  0.99333746  0.38157556  0.99946992  1
  O  O350  1  0.99254054  0.87706293  0.49245442  1
  O  O351  1  0.99412702  0.87918113  0.99303312  1
  O  O352  1  0.49087666  0.49895341  0.38087229  1
  O  O353  1  0.49435194  0.49382707  0.88139460  1
  O  O354  1  0.49949612  0.99293023  0.38140495  1
  O  O355  1  0.49429509  0.99793809  0.88195840  1
  O  O356  1  0.99521514  0.49382796  0.38026191  1
  O  O357  1  0.99088842  0.49950076  0.88193550  1
  O  O358  1  0.99308613  0.99399886  0.37583671  1
  O  O359  1  1.00152994  0.99033881  0.88060624  1
  O  O360  1  0.00642275  0.00566594  0.11902427  1
  O  O361  1  0.00494949  0.01008936  0.62638629  1
  O  O362  1  0.00658099  0.50442991  0.12101732  1
  O  O363  1  0.00452745  0.50507214  0.61825975  1
  O  O364  1  0.50629187  0.00573451  0.11950324  1
  O  O365  1  0.50235708  0.00714998  0.61671253  1
  O  O366  1  0.50675061  0.50088567  0.11802496  1
  O  O367  1  0.50521396  0.50559768  0.62022999  1
  O  O368  1  0.24459450  0.38015800  0.24458939  1
  O  O369  1  0.24186731  0.37592776  0.74305589  1
  O  O370  1  0.24282764  0.87508284  0.24335717  1
  O  O371  1  0.24888753  0.88054069  0.74285919  1
  O  O372  1  0.74542629  0.38012196  0.24455055  1
  O  O373  1  0.74410097  0.37812287  0.74069757  1
  O  O374  1  0.74382835  0.88189696  0.24917105  1
  O  O375  1  0.74345455  0.88284777  0.74547023  1
  O  O376  1  0.24905846  0.12563118  0.26175417  1
  O  O377  1  0.25695198  0.11645517  0.75124768  1
  O  O378  1  0.25684771  0.61768856  0.25176827  1
  O  O379  1  0.25837742  0.62286873  0.75580340  1
  O  O380  1  0.75553586  0.11934288  0.25505313  1
  O  O381  1  0.74831293  0.11716693  0.75352894  1
  O  O382  1  0.75659369  0.61763309  0.25071086  1
  O  O383  1  0.75389789  0.62222178  0.75844838  1
  O  O384  1  0.36184091  0.12540981  0.37399719  1
  O  O385  1  0.37400334  0.11760785  0.86884017  1
  O  O386  1  0.37364338  0.61362522  0.36942175  1
  O  O387  1  0.37014276  0.61982265  0.86905675  1
  O  O388  1  0.87084687  0.11917502  0.37031619  1
  O  O389  1  0.86697406  0.12310957  0.87121156  1
  O  O390  1  0.87406294  0.61746451  0.36799266  1
  O  O391  1  0.87038741  0.61590682  0.87768516  1
  O  O392  1  0.12989512  0.38014574  0.13102243  1
  O  O393  1  0.12964361  0.37993951  0.62976405  1
  O  O394  1  0.12975126  0.87983780  0.12858342  1
  O  O395  1  0.13051475  0.88152771  0.62616642  1
  O  O396  1  0.63119862  0.38141859  0.12980606  1
  O  O397  1  0.63167078  0.38001195  0.62967861  1
  O  O398  1  0.62628704  0.88231192  0.13192411  1
  O  O399  1  0.63212035  0.87617560  0.63365736  1
  O  O400  1  0.11917251  0.25645116  0.25629043  1
  O  O401  1  0.11657842  0.25373729  0.75691989  1
  O  O402  1  0.11846623  0.75620821  0.25059627  1
  O  O403  1  0.12229924  0.75130455  0.76310763  1
  O  O404  1  0.61559260  0.25554274  0.24854974  1
  O  O405  1  0.62248147  0.25770942  0.75779627  1
  O  O406  1  0.62014195  0.75477871  0.25518781  1
  O  O407  1  0.62790271  0.76048129  0.75518674  1
  O  O408  1  0.38530127  0.24937410  0.24285903  1
  O  O409  1  0.37560614  0.24166163  0.74412982  1
  O  O410  1  0.38016810  0.74482324  0.24557941  1
  O  O411  1  0.37554967  0.73700584  0.75036414  1
  O  O412  1  0.88234068  0.24297466  0.24954880  1
  O  O413  1  0.88704265  0.25025243  0.74859407  1
  O  O414  1  0.88156616  0.74322280  0.24791508  1
  O  O415  1  0.87707100  0.74975683  0.74045462  1
  O  O416  1  0.38010721  0.50014365  0.49185859  1
  O  O417  1  0.38050695  0.49465086  0.99494013  1
  O  O418  1  0.38111834  0.99290447  0.49656018  1
  O  O419  1  0.38113971  0.99483333  0.99503747  1
  O  O420  1  0.88104691  0.49462312  0.49383754  1
  O  O421  1  0.87964348  0.49517125  0.99274490  1
  O  O422  1  0.87581572  0.99334784  0.49262303  1
  O  O423  1  0.88161132  0.99133769  0.99740699  1
  O  O424  1  0.11931710  0.00494620  0.00520944  1
  O  O425  1  0.12226060  0.00714265  0.50814996  1
  O  O426  1  0.11965655  0.50353272  0.00570504  1
  O  O427  1  0.11921457  0.50479220  0.50554971  1
  O  O428  1  0.62121126  0.00541532  0.00433312  1
  O  O429  1  0.61917396  0.01051342  0.50083774  1
  O  O430  1  0.62047885  0.50531342  0.00487533  1
  O  O431  1  0.61914891  0.50597638  0.50588276  1
  O  O432  1  0.37021360  0.37014833  0.11930812  1
  O  O433  1  0.36766281  0.36846837  0.62592300  1
  O  O434  1  0.37023347  0.86980275  0.11988158  1
  O  O435  1  0.36795823  0.87295475  0.61788421  1
  O  O436  1  0.86806177  0.37400312  0.11889984  1
  O  O437  1  0.86564015  0.37674503  0.61980800  1
  O  O438  1  0.87537604  0.87418392  0.11156610  1
  O  O439  1  0.87000961  0.87073563  0.61822578  1
  O  O440  1  0.13121510  0.13098414  0.38049341  1
  O  O441  1  0.12458021  0.13426814  0.88048366  1
  O  O442  1  0.12819067  0.62697300  0.38388907  1
  O  O443  1  0.12766815  0.63083406  0.87961781  1
  O  O444  1  0.63124220  0.12536669  0.38423351  1
  O  O445  1  0.63021911  0.13084660  0.88057552  1
  O  O446  1  0.62508656  0.63176334  0.38224246  1
  O  O447  1  0.63112677  0.62978457  0.88052036  1
