# generated using pymatgen
data_V3Zn3O8
_symmetry_space_group_name_H-M   'P 1'
_cell_length_a   17.09022758
_cell_length_b   17.08900028
_cell_length_c   17.08973378
_cell_angle_alpha   90.00075212
_cell_angle_beta   89.99221623
_cell_angle_gamma   89.99350048
_symmetry_Int_Tables_number   1
_chemical_formula_structural   V3Zn3O8
_chemical_formula_sum   'V96 Zn96 O256'
_cell_volume   4991.14047708
_cell_formula_units_Z   32
loop_
 _symmetry_equiv_pos_site_id
 _symmetry_equiv_pos_as_xyz
  1  'x, y, z'
loop_
 _atom_site_type_symbol
 _atom_site_label
 _atom_site_symmetry_multiplicity
 _atom_site_fract_x
 _atom_site_fract_y
 _atom_site_fract_z
 _atom_site_occupancy
  V  V0  1  0.74882254  0.49980056  0.75039554  1
  V  V1  1  0.49996994  0.50049775  0.50065751  1
  V  V2  1  0.24944199  0.87452947  0.12485828  1
  V  V3  1  0.49957211  0.12710826  0.12592782  1
  V  V4  1  0.62392386  0.75133133  0.87438934  1
  V  V5  1  -0.00131262  0.50036577  0.00021719  1
  V  V6  1  0.24980512  0.12317374  0.37394527  1
  V  V7  1  0.12489687  0.49892658  0.62500526  1
  V  V8  1  0.62313256  0.75132430  0.37440835  1
  V  V9  1  0.12249602  0.12349698  0.00157173  1
  V  V10  1  0.87674752  0.74846760  0.62588455  1
  V  V11  1  0.37413674  0.50022338  0.37432379  1
  V  V12  1  0.25396054  0.12313008  0.87374637  1
  V  V13  1  0.74909833  0.50115478  0.25055997  1
  V  V14  1  0.87443471  0.75096230  0.12414887  1
  V  V15  1  0.37456300  0.49887318  0.87523665  1
  V  V16  1  0.50058144  0.75111911  0.74958745  1
  V  V17  1  0.75023802  0.12585019  0.87419399  1
  V  V18  1  0.87408916  0.50030856  0.87529650  1
  V  V19  1  0.74973447  0.62569389  0.87546815  1
  V  V20  1  0.87569620  0.62550941  0.74972010  1
  V  V21  1  -0.00010835  0.24906389  0.75000066  1
  V  V22  1  -0.00037850  0.62509614  0.12489382  1
  V  V23  1  0.75000062  0.37544431  0.12510917  1
  V  V24  1  0.37448610  0.37404448  0.49988530  1
  V  V25  1  0.49723888  0.00043810  -0.00246304  1
  V  V26  1  0.49988856  0.50030575  0.00090906  1
  V  V27  1  0.50075903  -0.00070925  0.49701108  1
  V  V28  1  0.50038993  0.62475577  0.62457667  1
  V  V29  1  0.12434273  0.49900973  0.12608533  1
  V  V30  1  0.37382650  0.37437698  0.00150328  1
  V  V31  1  0.37505275  0.75058409  0.62351982  1
  V  V32  1  0.12480467  0.74864387  0.37557420  1
  V  V33  1  0.37542576  0.62452787  0.74954872  1
  V  V34  1  0.62483912  0.37624102  0.75062626  1
  V  V35  1  0.62404414  0.50169740  0.12501306  1
  V  V36  1  0.62449427  0.37673140  0.25059724  1
  V  V37  1  0.87334170  0.00071170  0.37340122  1
  V  V38  1  0.62579174  0.87449650  0.74912076  1
  V  V39  1  0.62396032  0.87602741  0.24945203  1
  V  V40  1  0.75049518  0.74973924  0.49966471  1
  V  V41  1  0.12410082  -0.00001192  0.12470614  1
  V  V42  1  0.87593043  -0.00094641  0.87403979  1
  V  V43  1  0.75049246  0.25040690  0.50041442  1
  V  V44  1  0.87420361  0.50032187  0.37622030  1
  V  V45  1  0.12906807  0.87525595  0.74940796  1
  V  V46  1  0.24961991  0.49805079  0.74943345  1
  V  V47  1  0.12659076  -0.00006767  0.62484730  1
  V  V48  1  0.62444627  0.00041591  0.12423861  1
  V  V49  1  0.87625057  0.87418844  0.49973822  1
  V  V50  1  0.12466620  0.62453662  -0.00016586  1
  V  V51  1  0.00180670  0.87515437  0.87513506  1
  V  V52  1  0.49982722  0.37559734  0.37535866  1
  V  V53  1  0.24870257  0.37452981  0.12581261  1
  V  V54  1  0.62410315  0.50027871  0.62563345  1
  V  V55  1  0.87432586  0.62578309  0.24990661  1
  V  V56  1  0.74931587  0.87667109  0.12346777  1
  V  V57  1  0.25063467  0.75098081  0.50001537  1
  V  V58  1  0.37547484  0.74966560  0.12485789  1
  V  V59  1  0.87545606  0.87525776  -0.00171919  1
  V  V60  1  0.74887303  0.75106155  -0.00083105  1
  V  V61  1  0.50010080  0.12606226  0.62470810  1
  V  V62  1  0.75138470  -0.00135433  0.74879419  1
  V  V63  1  0.87462494  0.37463985  0.50101212  1
  V  V64  1  0.49968032  0.25049380  0.24985486  1
  V  V65  1  -0.00033109  0.37476155  0.87591339  1
  V  V66  1  0.25042861  0.37404266  0.62486190  1
  V  V67  1  0.12451003  0.87376976  0.24948250  1
  V  V68  1  0.62607097  0.25134517  0.37621193  1
  V  V69  1  -0.00228003  0.24835601  0.25005302  1
  V  V70  1  0.87437383  0.24940743  0.12613272  1
  V  V71  1  -0.00028211  0.74973266  0.24976708  1
  V  V72  1  0.62376333  0.62563397  0.00057164  1
  V  V73  1  0.75184672  0.87509200  0.62522798  1
  V  V74  1  -0.00091341  0.87433128  0.37532341  1
  V  V75  1  0.12446240  0.37505040  0.25035245  1
  V  V76  1  0.12395262  0.25005587  0.87570681  1
  V  V77  1  0.00001913  0.49994478  0.50171158  1
  V  V78  1  0.12438714  0.62422483  0.50067571  1
  V  V79  1  0.24980173  0.62365548  0.87461603  1
  V  V80  1  0.62627418  0.24985630  0.87499669  1
  V  V81  1  0.62653028  0.12679434  0.49889039  1
  V  V82  1  0.49977719  0.24928241  0.74960579  1
  V  V83  1  0.24983752  0.00006466  0.25158265  1
  V  V84  1  0.12601777  0.75016668  0.87407970  1
  V  V85  1  0.12393339  0.24922124  0.37566936  1
  V  V86  1  0.74939110  0.62602800  0.37524455  1
  V  V87  1  0.25026720  0.74981152  0.00002766  1
  V  V88  1  0.87360996  0.37505425  0.00105578  1
  V  V89  1  0.50002753  0.37431295  0.87569632  1
  V  V90  1  0.12522628  0.12379173  0.50108789  1
  V  V91  1  -0.00047729  0.37442484  0.37586846  1
  V  V92  1  0.87512688  0.24880833  0.62571766  1
  V  V93  1  0.25032833  0.24985254  0.50003885  1
  V  V94  1  0.37392021  0.62427413  0.25011986  1
  V  V95  1  0.24937829  0.25064197  0.00166557  1
  Zn  Zn96  1  0.12627512  0.37481894  0.75063053  1
  Zn  Zn97  1  0.24848501  0.62259969  0.37449082  1
  Zn  Zn98  1  0.49789577  0.75144313  0.24973403  1
  Zn  Zn99  1  0.25558690  0.00083835  0.74839448  1
  Zn  Zn100  1  0.00103939  0.12356780  0.62510044  1
  Zn  Zn101  1  0.37680056  0.12342654  0.75013019  1
  Zn  Zn102  1  0.62470439  0.62566756  0.50021562  1
  Zn  Zn103  1  0.50022508  0.62669911  0.12512103  1
  Zn  Zn104  1  0.74876298  0.37561230  0.62602071  1
  Zn  Zn105  1  0.37502827  0.87530589  -0.00284142  1
  Zn  Zn106  1  0.49787604  0.87662453  0.37384620  1
  Zn  Zn107  1  -0.00043625  0.00090897  0.50105878  1
  Zn  Zn108  1  0.25448917  0.87718890  0.62429158  1
  Zn  Zn109  1  0.24850354  0.49889773  0.25195505  1
  Zn  Zn110  1  0.49780002  0.87659559  0.87365671  1
  Zn  Zn111  1  0.37394360  0.24964183  0.62683060  1
  Zn  Zn112  1  0.37793125  0.87471024  0.49792868  1
  Zn  Zn113  1  0.75177961  0.12646927  0.37249936  1
  Zn  Zn114  1  0.62783563  -0.00016367  0.62333743  1
  Zn  Zn115  1  -0.00366126  0.12220521  0.12617390  1
  Zn  Zn116  1  0.87291584  0.12350488  0.24836120  1
  Zn  Zn117  1  0.62502048  0.12704297  -0.00032350  1
  Zn  Zn118  1  0.74884325  0.24984291  0.00052173  1
  Zn  Zn119  1  0.00275311  0.74706219  0.74827416  1
  Zn  Zn120  1  0.37572511  -0.00425477  0.87009796  1
  Zn  Zn121  1  -0.00105972  -0.00014289  0.00036240  1
  Zn  Zn122  1  0.37411304  0.12468760  0.25188251  1
  Zn  Zn123  1  0.37357918  0.25036292  0.12783090  1
  Zn  Zn124  1  0.37438131  -0.00266286  0.37379753  1
  Zn  Zn125  1  0.00038634  0.62441462  0.62680095  1
  Zn  Zn126  1  0.87651120  0.12231272  0.74887233  1
  Zn  Zn127  1  0.75006140  0.00399265  0.24819839  1
  Zn  Zn128  1  0.18560034  0.18734880  0.18830674  1
  Zn  Zn129  1  0.18774314  0.18752542  0.68803325  1
  Zn  Zn130  1  0.18901197  0.68635750  0.18803109  1
  Zn  Zn131  1  0.18834808  0.68656955  0.68554300  1
  Zn  Zn132  1  0.68792935  0.18681400  0.18961912  1
  Zn  Zn133  1  0.68695945  0.18726788  0.68807697  1
  Zn  Zn134  1  0.68761723  0.68909160  0.18709753  1
  Zn  Zn135  1  0.68790994  0.68718230  0.68718155  1
  Zn  Zn136  1  0.31251288  0.31102506  0.31213413  1
  Zn  Zn137  1  0.31366678  0.30975373  0.81212066  1
  Zn  Zn138  1  0.31239632  0.81401398  0.31499521  1
  Zn  Zn139  1  0.31463400  0.81293655  0.81297567  1
  Zn  Zn140  1  0.81201889  0.31293135  0.31252915  1
  Zn  Zn141  1  0.81262453  0.31291221  0.81176424  1
  Zn  Zn142  1  0.81034893  0.81504850  0.31148822  1
  Zn  Zn143  1  0.81356716  0.81205767  0.81145017  1
  Zn  Zn144  1  0.18828103  0.43712167  0.43761651  1
  Zn  Zn145  1  0.18656659  0.43665782  0.93807210  1
  Zn  Zn146  1  0.18635223  0.93631304  0.43755359  1
  Zn  Zn147  1  0.18956181  0.93834948  0.93800479  1
  Zn  Zn148  1  0.68726141  0.43726148  0.43993043  1
  Zn  Zn149  1  0.68702760  0.43754245  0.93855336  1
  Zn  Zn150  1  0.68871278  0.93821678  0.43829408  1
  Zn  Zn151  1  0.68499269  0.93952366  0.93653574  1
  Zn  Zn152  1  0.31333309  0.06292596  0.06399819  1
  Zn  Zn153  1  0.31457082  0.06232092  0.56053461  1
  Zn  Zn154  1  0.31087888  0.56133441  0.06343235  1
  Zn  Zn155  1  0.31174838  0.56286235  0.56216735  1
  Zn  Zn156  1  0.81198601  0.06267648  0.06006292  1
  Zn  Zn157  1  0.81322220  0.06294866  0.56009340  1
  Zn  Zn158  1  0.81093100  0.56326487  0.06244797  1
  Zn  Zn159  1  0.81101207  0.56369934  0.56396200  1
  Zn  Zn160  1  0.43686462  0.43787241  0.18708388  1
  Zn  Zn161  1  0.43718754  0.43623111  0.68684401  1
  Zn  Zn162  1  0.43605843  0.93914996  0.18700488  1
  Zn  Zn163  1  0.43777713  0.93871807  0.68510967  1
  Zn  Zn164  1  0.93733140  0.43644194  0.18883395  1
  Zn  Zn165  1  0.93746117  0.43613370  0.68838631  1
  Zn  Zn166  1  0.93857326  0.93799687  0.18711020  1
  Zn  Zn167  1  0.94090900  0.93512509  0.68846635  1
  Zn  Zn168  1  0.06029145  0.06257810  0.31209025  1
  Zn  Zn169  1  0.06433325  0.06166452  0.81249015  1
  Zn  Zn170  1  0.06145194  0.56220684  0.31382120  1
  Zn  Zn171  1  0.06211090  0.56170660  0.81121187  1
  Zn  Zn172  1  0.56469797  0.06467772  0.31244885  1
  Zn  Zn173  1  0.56522569  0.06159700  0.81058631  1
  Zn  Zn174  1  0.55963027  0.56498177  0.31201346  1
  Zn  Zn175  1  0.56191348  0.56338183  0.81312669  1
  Zn  Zn176  1  0.43581249  0.18598573  0.43632640  1
  Zn  Zn177  1  0.43719697  0.18852993  0.93977428  1
  Zn  Zn178  1  0.43756632  0.68634522  0.43681300  1
  Zn  Zn179  1  0.43812456  0.68719085  0.93683280  1
  Zn  Zn180  1  0.93868736  0.18440051  0.43910841  1
  Zn  Zn181  1  0.93508887  0.18751850  0.93816479  1
  Zn  Zn182  1  0.93833247  0.68655216  0.43882084  1
  Zn  Zn183  1  0.93867769  0.68927963  0.93557070  1
  Zn  Zn184  1  0.06077435  0.31141039  0.06352966  1
  Zn  Zn185  1  0.06363261  0.31299260  0.56326220  1
  Zn  Zn186  1  0.06219842  0.81279526  0.06126384  1
  Zn  Zn187  1  0.06204137  0.81251950  0.56364951  1
  Zn  Zn188  1  0.56398736  0.31233246  0.06180226  1
  Zn  Zn189  1  0.56241943  0.31305071  0.56337457  1
  Zn  Zn190  1  0.56013976  0.81449576  0.06177297  1
  Zn  Zn191  1  0.56390188  0.81377247  0.56312402  1
  O  O192  1  0.12434636  0.11967015  0.11486910  1
  O  O193  1  0.12554945  0.11598092  0.62032249  1
  O  O194  1  0.11898853  0.62011742  0.11994154  1
  O  O195  1  0.12380234  0.61662290  0.61876270  1
  O  O196  1  0.61491722  0.12024997  0.12406649  1
  O  O197  1  0.61604353  0.12547256  0.61813195  1
  O  O198  1  0.62416061  0.62000815  0.11894916  1
  O  O199  1  0.61807952  0.61879731  0.62427908  1
  O  O200  1  0.38080584  0.38028428  0.37994943  1
  O  O201  1  0.38016431  0.37999097  0.88133574  1
  O  O202  1  0.38086506  0.87792754  0.37900941  1
  O  O203  1  0.37962828  0.87719060  0.87978692  1
  O  O204  1  0.88001833  0.38128572  0.38082159  1
  O  O205  1  0.87955679  0.38097885  0.88090533  1
  O  O206  1  0.87940184  0.88025636  0.37952939  1
  O  O207  1  0.88064530  0.87883300  0.87933598  1
  O  O208  1  0.24735385  0.00580914  0.36882722  1
  O  O209  1  0.25133035  0.01244645  0.87525670  1
  O  O210  1  0.25809647  0.50192103  0.37313208  1
  O  O211  1  0.25507077  0.50410982  0.87037920  1
  O  O212  1  0.76259775  -0.00055387  0.37364334  1
  O  O213  1  0.75522408  0.00679166  0.86898277  1
  O  O214  1  0.75454993  0.50544938  0.37010484  1
  O  O215  1  0.75457682  0.50622495  0.87090490  1
  O  O216  1  0.24123815  0.49264650  0.12606355  1
  O  O217  1  0.24535024  0.49415318  0.62996199  1
  O  O218  1  0.24350168  0.99423587  0.13030722  1
  O  O219  1  0.23937420  0.99820879  0.62512115  1
  O  O220  1  0.74436578  0.49604996  0.13134664  1
  O  O221  1  0.74292900  0.49890026  0.63259255  1
  O  O222  1  0.74259925  0.99349687  0.12329610  1
  O  O223  1  0.75137426  0.99339513  0.63039338  1
  O  O224  1  0.00462176  0.36956923  0.25686926  1
  O  O225  1  0.00088993  0.36490265  0.75722258  1
  O  O226  1  0.00529958  0.86732264  0.25444951  1
  O  O227  1  0.01395685  0.87228457  0.75638082  1
  O  O228  1  0.50588914  0.37159907  0.25565922  1
  O  O229  1  0.50491645  0.37051265  0.75687121  1
  O  O230  1  0.51308686  0.87393642  0.24955362  1
  O  O231  1  0.50802623  0.86795308  0.74900192  1
  O  O232  1  0.50107550  0.13117101  0.24072447  1
  O  O233  1  0.50353014  0.13049128  0.73969287  1
  O  O234  1  0.48702908  0.62839361  0.24653818  1
  O  O235  1  0.49418459  0.63014712  0.74473478  1
  O  O236  1  0.99629802  0.13387143  0.24717278  1
  O  O237  1  0.99842645  0.13782522  0.74994835  1
  O  O238  1  0.99354727  0.63000783  0.24455270  1
  O  O239  1  0.99154157  0.62603811  0.74853602  1
  O  O240  1  0.36783210  0.25788305  0.00282865  1
  O  O241  1  0.36789787  0.25701524  0.50001628  1
  O  O242  1  0.36837542  0.74707320  0.00994882  1
  O  O243  1  0.36616825  0.74815910  0.50475476  1
  O  O244  1  0.87312192  0.25756487  0.00810501  1
  O  O245  1  0.87170870  0.25483132  0.50771795  1
  O  O246  1  0.86873763  0.75471489  0.00466583  1
  O  O247  1  0.86931353  0.75432390  0.50426271  1
  O  O248  1  0.13052038  0.24497720  0.49473119  1
  O  O249  1  0.12877235  0.24227470  0.99598964  1
  O  O250  1  0.13150720  0.74449144  0.49586784  1
  O  O251  1  0.13075903  0.74347318  0.99509734  1
  O  O252  1  0.63068738  0.24744847  0.49533661  1
  O  O253  1  0.62903373  0.24857921  0.99077031  1
  O  O254  1  0.63167389  0.75008869  0.48970765  1
  O  O255  1  0.62960229  0.74577873  0.99514924  1
  O  O256  1  0.50112813  0.24231732  0.13033622  1
  O  O257  1  0.50011746  0.24179164  0.63003227  1
  O  O258  1  0.48749498  0.74868585  0.12560955  1
  O  O259  1  0.49566637  0.74400917  0.62947891  1
  O  O260  1  0.99036353  0.25046806  0.13151209  1
  O  O261  1  0.99288393  0.25084333  0.63358172  1
  O  O262  1  0.99430963  0.74443490  0.12989738  1
  O  O263  1  0.99224594  0.74646279  0.62721159  1
  O  O264  1  0.00417246  0.25581248  0.37125453  1
  O  O265  1  0.00267383  0.25491931  0.86841397  1
  O  O266  1  0.00414191  0.75423245  0.36873472  1
  O  O267  1  0.00884623  0.75644049  0.87332823  1
  O  O268  1  0.50622462  0.25652853  0.37065561  1
  O  O269  1  0.50596708  0.25517233  0.87044799  1
  O  O270  1  0.51264054  0.75170216  0.37364387  1
  O  O271  1  0.50684630  0.74947172  0.86751014  1
  O  O272  1  0.24417642  0.13043157  0.49433743  1
  O  O273  1  0.24117526  0.13021154  0.99472773  1
  O  O274  1  0.24382714  0.63496238  0.49882893  1
  O  O275  1  0.24352337  0.62866610  0.99411054  1
  O  O276  1  0.74396557  0.13312866  0.49793081  1
  O  O277  1  0.74756262  0.12637319  0.98580063  1
  O  O278  1  0.74784307  0.63128634  0.49254992  1
  O  O279  1  0.74399186  0.63105490  0.99485431  1
  O  O280  1  0.25370518  0.36995148  0.00549090  1
  O  O281  1  0.25499551  0.36907348  0.50503407  1
  O  O282  1  0.25087320  0.86754060  0.00710311  1
  O  O283  1  0.24939511  0.86044097  0.50108308  1
  O  O284  1  0.75643772  0.37559749  0.00715912  1
  O  O285  1  0.75713174  0.36917986  0.50326088  1
  O  O286  1  0.75466578  0.86950998  0.00352673  1
  O  O287  1  0.75652993  0.86866681  0.50549103  1
  O  O288  1  0.12368616  0.49343188  0.24397067  1
  O  O289  1  0.13204372  0.49752795  0.74460367  1
  O  O290  1  0.12902582  0.99261019  0.24467577  1
  O  O291  1  0.12859492  0.99220807  0.74270618  1
  O  O292  1  0.62950917  0.49652744  0.24566974  1
  O  O293  1  0.62910466  0.49550416  0.74623319  1
  O  O294  1  0.62580261  0.99068774  0.24396163  1
  O  O295  1  0.63359298  0.99214623  0.74696424  1
  O  O296  1  0.36486842  0.00215279  0.25132238  1
  O  O297  1  0.37258518  0.00576155  0.75174339  1
  O  O298  1  0.37401213  0.50834027  0.25502225  1
  O  O299  1  0.36996268  0.50471736  0.75578327  1
  O  O300  1  0.87303203  -0.00173241  0.26051430  1
  O  O301  1  0.86990925  -0.00002750  0.75591167  1
  O  O302  1  0.86953882  0.50575252  0.25597316  1
  O  O303  1  0.86894250  0.50394544  0.75645130  1
  O  O304  1  0.11854514  0.36913826  0.37094729  1
  O  O305  1  0.11724460  0.36793456  0.87549294  1
  O  O306  1  0.11865714  0.86797319  0.36893241  1
  O  O307  1  0.12280174  0.87043640  0.86818175  1
  O  O308  1  0.61906605  0.37182102  0.36977498  1
  O  O309  1  0.61910825  0.37091875  0.87020666  1
  O  O310  1  0.62677341  0.86690366  0.36569208  1
  O  O311  1  0.62376827  0.86795025  0.86739523  1
  O  O312  1  0.38779547  0.12776505  0.12770309  1
  O  O313  1  0.38917982  0.12794279  0.62366567  1
  O  O314  1  0.37346280  0.63298216  0.13251271  1
  O  O315  1  0.38075296  0.62946929  0.63089483  1
  O  O316  1  0.87590934  0.13524894  0.12421026  1
  O  O317  1  0.87798827  0.13726518  0.62582242  1
  O  O318  1  0.87948082  0.63092209  0.12988129  1
  O  O319  1  0.87529476  0.63062462  0.63210584  1
  O  O320  1  0.24951950  0.25624381  0.11921751  1
  O  O321  1  0.25086905  0.25548658  0.61808638  1
  O  O322  1  0.25624016  0.75416642  0.11984929  1
  O  O323  1  0.25628538  0.74969710  0.61535390  1
  O  O324  1  0.75679193  0.25797395  0.12480069  1
  O  O325  1  0.75964758  0.25181156  0.62123861  1
  O  O326  1  0.75525658  0.75599953  0.11850438  1
  O  O327  1  0.75624878  0.75461635  0.61923154  1
  O  O328  1  0.24220072  0.24472341  0.38011158  1
  O  O329  1  0.24357986  0.24351258  0.88192378  1
  O  O330  1  0.24281041  0.74722664  0.38378742  1
  O  O331  1  0.24540963  0.74259442  0.88022044  1
  O  O332  1  0.74365611  0.25192685  0.38270194  1
  O  O333  1  0.74587943  0.24126932  0.87371689  1
  O  O334  1  0.74261380  0.74588441  0.37887943  1
  O  O335  1  0.74442234  0.74484087  0.88033156  1
  O  O336  1  0.01284132  0.12459067  -0.00057709  1
  O  O337  1  0.01038030  0.12229711  0.50412481  1
  O  O338  1  0.00461936  0.62027269  0.00540050  1
  O  O339  1  0.00600924  0.61685847  0.50153380  1
  O  O340  1  0.50189327  0.11917979  0.00936221  1
  O  O341  1  0.50645755  0.12044876  0.50631551  1
  O  O342  1  0.50625684  0.61789046  0.00094177  1
  O  O343  1  0.50159676  0.61834075  0.50651171  1
  O  O344  1  0.49461570  0.38054006  0.49440239  1
  O  O345  1  0.49474550  0.38065914  0.99475403  1
  O  O346  1  0.50335290  0.88778135  0.49886324  1
  O  O347  1  0.49822897  0.88740094  0.99890640  1
  O  O348  1  0.99434454  0.37968487  0.49444405  1
  O  O349  1  0.99369186  0.38110938  0.99547369  1
  O  O350  1  0.99354435  0.87459082  0.49244401  1
  O  O351  1  0.99354738  0.87534778  0.99291285  1
  O  O352  1  0.49475054  0.49496302  0.38058434  1
  O  O353  1  0.49425026  0.49443535  0.88053712  1
  O  O354  1  0.50128241  1.00194979  0.38601274  1
  O  O355  1  0.49991418  1.00252844  0.88607393  1
  O  O356  1  0.99324640  0.49418239  0.38103018  1
  O  O357  1  0.99383787  0.49510708  0.88113987  1
  O  O358  1  0.99119593  0.99179754  0.37587240  1
  O  O359  1  0.99435572  0.99325262  0.87596939  1
  O  O360  1  0.00799644  0.00191470  0.12114142  1
  O  O361  1  0.01293815  0.00143261  0.62488262  1
  O  O362  1  0.00360768  0.50559892  0.11983906  1
  O  O363  1  0.00605363  0.49867077  0.61866559  1
  O  O364  1  0.50449879  0.00826240  0.11874534  1
  O  O365  1  0.50479881  0.00998642  0.61544811  1
  O  O366  1  0.50667706  0.50141267  0.11836860  1
  O  O367  1  0.50438281  0.50547471  0.62047340  1
  O  O368  1  0.24164652  0.37534070  0.24427690  1
  O  O369  1  0.24964263  0.38037124  0.74435365  1
  O  O370  1  0.24226580  0.87878743  0.24461626  1
  O  O371  1  0.23855964  0.87618344  0.74900358  1
  O  O372  1  0.74399498  0.38264762  0.24548278  1
  O  O373  1  0.74301926  0.38247290  0.75028873  1
  O  O374  1  0.73879469  0.87601959  0.24203571  1
  O  O375  1  0.74618697  0.87926905  0.74444926  1
  O  O376  1  0.24766750  0.11799665  0.25632461  1
  O  O377  1  0.25082809  0.12625641  0.76270210  1
  O  O378  1  0.26117855  0.62191224  0.25178517  1
  O  O379  1  0.25601007  0.61842420  0.75517554  1
  O  O380  1  0.75404223  0.12130777  0.25474835  1
  O  O381  1  0.75206458  0.11890460  0.75884085  1
  O  O382  1  0.75565908  0.62060626  0.25466418  1
  O  O383  1  0.75492950  0.61941593  0.75702748  1
  O  O384  1  0.36470699  0.12145391  0.37253864  1
  O  O385  1  0.36294895  0.12554023  0.87680423  1
  O  O386  1  0.37422056  0.61965799  0.36544275  1
  O  O387  1  0.36935042  0.61871635  0.86940864  1
  O  O388  1  0.87509991  0.11276964  0.37496445  1
  O  O389  1  0.86621271  0.11926264  0.87341772  1
  O  O390  1  0.86953567  0.62018896  0.36908457  1
  O  O391  1  0.86889451  0.61976037  0.87140475  1
  O  O392  1  0.12819558  0.37990035  0.13020174  1
  O  O393  1  0.13271686  0.38127920  0.62623276  1
  O  O394  1  0.12989523  0.87858895  0.13010476  1
  O  O395  1  0.12689992  0.88214232  0.63343167  1
  O  O396  1  0.63011002  0.38190332  0.13081145  1
  O  O397  1  0.62495671  0.38222339  0.63298821  1
  O  O398  1  0.62951351  0.87874177  0.13175455  1
  O  O399  1  0.63503484  0.87485446  0.63135402  1
  O  O400  1  0.11781729  0.25571796  0.25622731  1
  O  O401  1  0.11507348  0.25166524  0.75612387  1
  O  O402  1  0.11921150  0.75346868  0.25439941  1
  O  O403  1  0.12669860  0.75791742  0.75538952  1
  O  O404  1  0.61969205  0.25823603  0.25593016  1
  O  O405  1  0.61968130  0.25685626  0.75566631  1
  O  O406  1  0.62469114  0.75853872  0.25721456  1
  O  O407  1  0.62057567  0.75428645  0.75498540  1
  O  O408  1  0.38429710  0.24787907  0.24800019  1
  O  O409  1  0.38472934  0.24609346  0.74771329  1
  O  O410  1  0.37377476  0.74247536  0.24132705  1
  O  O411  1  0.38010810  0.74307207  0.74417325  1
  O  O412  1  0.88026199  0.25169234  0.24245027  1
  O  O413  1  0.88300522  0.25031591  0.74200268  1
  O  O414  1  0.87921323  0.74561673  0.24408056  1
  O  O415  1  0.87651673  0.74339860  0.74417822  1
  O  O416  1  0.38036592  0.49454548  0.49464992  1
  O  O417  1  0.37925040  0.49485792  0.99432407  1
  O  O418  1  0.38814725  0.99849829  0.49824740  1
  O  O419  1  0.38658495  0.99909225  1.00096155  1
  O  O420  1  0.87898228  0.49503547  0.49531655  1
  O  O421  1  0.87968119  0.49601175  0.99524790  1
  O  O422  1  0.87743890  0.99240593  0.49164759  1
  O  O423  1  0.87613642  0.99234216  0.99220317  1
  O  O424  1  0.12499862  0.00918997  0.00558590  1
  O  O425  1  0.12400034  0.00396947  0.50907270  1
  O  O426  1  0.11804804  0.50537062  0.00516035  1
  O  O427  1  0.11979628  0.50399104  0.50485733  1
  O  O428  1  0.61481061  0.00263501  0.00614951  1
  O  O429  1  0.61899075  0.00766316  0.50102632  1
  O  O430  1  0.61990513  0.50590698  0.00525089  1
  O  O431  1  0.61785273  0.50170405  0.50652316  1
  O  O432  1  0.36763586  0.37463058  0.11865342  1
  O  O433  1  0.36882808  0.37376681  0.61745389  1
  O  O434  1  0.36801932  0.86374638  0.12504548  1
  O  O435  1  0.37338568  0.86565636  0.62019821  1
  O  O436  1  0.86962026  0.37011550  0.12085572  1
  O  O437  1  0.87411757  0.36432639  0.61988522  1
  O  O438  1  0.86985984  0.86946323  0.11896132  1
  O  O439  1  0.87111794  0.86880525  0.61981658  1
  O  O440  1  0.12943635  0.13034822  0.38088100  1
  O  O441  1  0.13251741  0.12978176  0.88349610  1
  O  O442  1  0.12519811  0.63118360  0.38143253  1
  O  O443  1  0.13049107  0.62882162  0.88044544  1
  O  O444  1  0.62683016  0.13454144  0.38165878  1
  O  O445  1  0.63558156  0.13114288  0.87379556  1
  O  O446  1  0.63083323  0.63536249  0.37343521  1
  O  O447  1  0.63076016  0.63060178  0.88050372  1
