# generated using pymatgen
data_V3Zn3O8
_symmetry_space_group_name_H-M   'P 1'
_cell_length_a   17.08476564
_cell_length_b   17.08478830
_cell_length_c   17.08698059
_cell_angle_alpha   90.01049790
_cell_angle_beta   90.00626802
_cell_angle_gamma   89.98059604
_symmetry_Int_Tables_number   1
_chemical_formula_structural   V3Zn3O8
_chemical_formula_sum   'V96 Zn96 O256'
_cell_volume   4987.51159922
_cell_formula_units_Z   32
loop_
 _symmetry_equiv_pos_site_id
 _symmetry_equiv_pos_as_xyz
  1  'x, y, z'
loop_
 _atom_site_type_symbol
 _atom_site_label
 _atom_site_symmetry_multiplicity
 _atom_site_fract_x
 _atom_site_fract_y
 _atom_site_fract_z
 _atom_site_occupancy
  V  V0  1  0.74980970  0.37585644  0.12513830  1
  V  V1  1  0.24995827  0.12333180  0.37550671  1
  V  V2  1  0.37591630  0.37557149  -0.00054939  1
  V  V3  1  0.87443722  0.87536149  0.49851954  1
  V  V4  1  0.00074111  0.50183173  0.00119123  1
  V  V5  1  -0.00088513  0.87519425  0.37477005  1
  V  V6  1  0.49977873  0.49868211  0.50004226  1
  V  V7  1  0.75105171  0.62526530  0.87521787  1
  V  V8  1  0.12489466  0.25016646  0.37433391  1
  V  V9  1  0.37631455  0.12460214  0.24994528  1
  V  V10  1  -0.00017802  0.12537657  0.62598179  1
  V  V11  1  0.25139325  0.62455274  0.87552945  1
  V  V12  1  0.62466405  0.37396120  0.74896133  1
  V  V13  1  0.12514876  0.00072066  0.12460657  1
  V  V14  1  0.12559370  0.25121108  0.87488882  1
  V  V15  1  0.24992775  0.87315812  0.62561312  1
  V  V16  1  0.00101509  0.25093146  0.24978197  1
  V  V17  1  0.12615797  0.12570757  0.00096879  1
  V  V18  1  0.87397638  0.62497655  0.24987756  1
  V  V19  1  0.74984326  0.62414986  0.37440418  1
  V  V20  1  0.87566959  0.87821448  -0.00106705  1
  V  V21  1  0.62391818  0.00118907  0.12437361  1
  V  V22  1  0.00014129  0.62456300  0.62569187  1
  V  V23  1  0.25052476  0.75076389  0.00048982  1
  V  V24  1  0.62518914  0.49836724  0.62547595  1
  V  V25  1  0.37434924  0.87467337  0.49966325  1
  V  V26  1  0.37524656  0.12487486  0.75037934  1
  V  V27  1  0.62477227  0.75013076  0.37385494  1
  V  V28  1  0.87594074  0.50161068  0.87533938  1
  V  V29  1  0.25166030  0.25110386  0.00096593  1
  V  V30  1  0.24840479  0.62423304  0.37575529  1
  V  V31  1  0.62407252  0.62516339  0.00016659  1
  V  V32  1  0.49885375  0.87504344  0.37394072  1
  V  V33  1  0.49995985  0.24930977  0.25007739  1
  V  V34  1  -0.00062359  0.87631172  0.87475937  1
  V  V35  1  0.12583836  0.75028771  0.87504848  1
  V  V36  1  0.25103035  0.49966702  0.75019911  1
  V  V37  1  0.75234760  0.00267779  0.75156945  1
  V  V38  1  0.24898711  -0.00109879  0.25055284  1
  V  V39  1  0.24918422  0.87456427  0.12511879  1
  V  V40  1  0.74980380  0.37476933  0.62527811  1
  V  V41  1  0.74916589  0.50052893  0.25076379  1
  V  V42  1  0.50034324  0.37453705  0.87398219  1
  V  V43  1  0.62491103  0.62431988  0.49979073  1
  V  V44  1  0.74953184  0.74949116  0.49981655  1
  V  V45  1  0.62518407  0.87528722  0.74943711  1
  V  V46  1  0.74968129  0.87571199  0.12389756  1
  V  V47  1  0.49999913  0.37480611  0.37588736  1
  V  V48  1  -0.00071376  0.49933595  0.50028217  1
  V  V49  1  0.12456811  0.12449002  0.50029180  1
  V  V50  1  0.00146575  0.37601811  0.87554132  1
  V  V51  1  0.25189123  0.37538893  0.12513659  1
  V  V52  1  0.62522012  0.75017670  0.87491126  1
  V  V53  1  -0.00038880  0.62778240  0.12677264  1
  V  V54  1  0.37462001  0.24791727  0.62569804  1
  V  V55  1  0.62406149  -0.00007154  0.62356283  1
  V  V56  1  0.62610116  0.25050153  0.87411102  1
  V  V57  1  0.87590477  0.24985646  0.62631019  1
  V  V58  1  0.12494399  0.50048420  0.12583925  1
  V  V59  1  0.74967444  0.25049899  -0.00105977  1
  V  V60  1  0.50077582  0.74986055  0.74907004  1
  V  V61  1  0.62437802  0.37449157  0.25015728  1
  V  V62  1  0.37572247  0.74935361  0.62538374  1
  V  V63  1  0.24989746  -0.00083859  0.75208603  1
  V  V64  1  0.62406368  0.50111486  0.12404279  1
  V  V65  1  0.37511736  0.62628547  0.24945856  1
  V  V66  1  0.50058799  0.00036646  -0.00005670  1
  V  V67  1  0.50028603  0.50040134  -0.00111690  1
  V  V68  1  0.62629426  0.24829574  0.37556279  1
  V  V69  1  -0.00115717  0.00014017  0.49919784  1
  V  V70  1  0.12528307  0.87454759  0.74914137  1
  V  V71  1  0.75065557  0.00123396  0.25013349  1
  V  V72  1  0.87533563  0.62499189  0.75154583  1
  V  V73  1  0.87507418  0.37609784  0.00016945  1
  V  V74  1  0.24994750  0.49980807  0.25131458  1
  V  V75  1  0.87457319  0.74951561  0.62505259  1
  V  V76  1  0.50001641  0.62511678  0.62481863  1
  V  V77  1  0.37516140  0.87560506  0.00018867  1
  V  V78  1  0.24993202  0.24872377  0.50054166  1
  V  V79  1  0.50003224  0.87567460  0.87557630  1
  V  V80  1  0.87541100  0.25111428  0.12481706  1
  V  V81  1  0.00132337  0.12542518  0.12439683  1
  V  V82  1  0.74960289  0.87435440  0.62428344  1
  V  V83  1  0.37551435  0.37414407  0.49990000  1
  V  V84  1  0.12446340  0.62443282  0.49992291  1
  V  V85  1  0.62446264  0.87486313  0.24956834  1
  V  V86  1  0.62528540  0.12587185  -0.00104014  1
  V  V87  1  0.12264819  0.75035594  0.37412766  1
  V  V88  1  0.12582990  0.37423597  0.25064830  1
  V  V89  1  0.00028886  0.75050100  0.75016709  1
  V  V90  1  0.74971917  0.75179325  0.00005358  1
  V  V91  1  0.87419408  0.12512055  0.25011021  1
  V  V92  1  0.62519180  0.12421101  0.49988070  1
  V  V93  1  0.12558516  0.49944739  0.62487336  1
  V  V94  1  0.24943176  0.37482036  0.62505390  1
  V  V95  1  0.87542184  0.37568802  0.49897280  1
  Zn  Zn96  1  0.37338866  -0.00175043  0.37612378  1
  Zn  Zn97  1  0.87626726  0.12577869  0.75236179  1
  Zn  Zn98  1  0.49974953  0.12684292  0.12372336  1
  Zn  Zn99  1  0.87796755  0.00519840  0.87364525  1
  Zn  Zn100  1  0.37639053  0.49980744  0.87391202  1
  Zn  Zn101  1  0.87568605  0.49977816  0.37482040  1
  Zn  Zn102  1  0.25067054  0.12463301  0.87746057  1
  Zn  Zn103  1  0.37767387  0.25093190  0.12460108  1
  Zn  Zn104  1  0.75360341  0.12690304  0.87392723  1
  Zn  Zn105  1  -0.00007023  0.37618350  0.37420733  1
  Zn  Zn106  1  0.49881184  0.00015503  0.50145196  1
  Zn  Zn107  1  -0.00323213  0.75312412  0.24925077  1
  Zn  Zn108  1  0.12585226  0.62606816  0.00220582  1
  Zn  Zn109  1  0.12251610  0.87506572  0.24859095  1
  Zn  Zn110  1  0.49916228  0.74895208  0.24665773  1
  Zn  Zn111  1  0.75047445  0.24874501  0.49836399  1
  Zn  Zn112  1  0.50126807  0.24787841  0.74852241  1
  Zn  Zn113  1  0.75213780  0.12467042  0.37535775  1
  Zn  Zn114  1  0.00099915  0.25055734  0.75180049  1
  Zn  Zn115  1  0.75040534  0.50012843  0.75037998  1
  Zn  Zn116  1  0.12376461  0.37347870  0.74902604  1
  Zn  Zn117  1  0.00082452  0.00180665  -0.00183560  1
  Zn  Zn118  1  0.24895790  0.74880236  0.50094229  1
  Zn  Zn119  1  0.37589122  0.00168203  0.87659837  1
  Zn  Zn120  1  0.87510210  0.75223866  0.12615926  1
  Zn  Zn121  1  0.49845822  0.62693915  0.12443837  1
  Zn  Zn122  1  0.12363581  -0.00142428  0.62500552  1
  Zn  Zn123  1  0.37572297  0.74994554  0.12500915  1
  Zn  Zn124  1  0.49960552  0.12324475  0.62486679  1
  Zn  Zn125  1  0.37666195  0.62486165  0.74909795  1
  Zn  Zn126  1  0.87415373  0.00136511  0.37420975  1
  Zn  Zn127  1  0.37492590  0.49998732  0.37588726  1
  Zn  Zn128  1  0.18994494  0.18793370  0.18685491  1
  Zn  Zn129  1  0.18746964  0.18649660  0.68852030  1
  Zn  Zn130  1  0.18748928  0.68863428  0.18912157  1
  Zn  Zn131  1  0.18836658  0.68721741  0.68776127  1
  Zn  Zn132  1  0.68743609  0.18689343  0.18642823  1
  Zn  Zn133  1  0.68844572  0.18763039  0.68541907  1
  Zn  Zn134  1  0.68715866  0.68871967  0.18624536  1
  Zn  Zn135  1  0.68757485  0.68628809  0.68808812  1
  Zn  Zn136  1  0.31329484  0.31124269  0.31370779  1
  Zn  Zn137  1  0.31244435  0.31251856  0.81359707  1
  Zn  Zn138  1  0.30890450  0.81048208  0.31249246  1
  Zn  Zn139  1  0.31511390  0.81237267  0.81300148  1
  Zn  Zn140  1  0.81126447  0.31100963  0.31316767  1
  Zn  Zn141  1  0.81239452  0.31461652  0.81192195  1
  Zn  Zn142  1  0.81287764  0.81182944  0.31115706  1
  Zn  Zn143  1  0.81299096  0.81397694  0.81318863  1
  Zn  Zn144  1  0.18746300  0.43726031  0.43720699  1
  Zn  Zn145  1  0.18729924  0.43795646  0.93943695  1
  Zn  Zn146  1  0.18604593  0.93747257  0.43820355  1
  Zn  Zn147  1  0.18706794  0.93750239  0.93794054  1
  Zn  Zn148  1  0.68790790  0.43661195  0.43762815  1
  Zn  Zn149  1  0.68744652  0.43812130  0.93599867  1
  Zn  Zn150  1  0.68803852  0.93908306  0.43542786  1
  Zn  Zn151  1  0.68729668  0.93938900  0.93624742  1
  Zn  Zn152  1  0.31270433  0.06197886  0.06406079  1
  Zn  Zn153  1  0.31110427  0.05993736  0.56500721  1
  Zn  Zn154  1  0.31361241  0.56136581  0.06265141  1
  Zn  Zn155  1  0.31332289  0.56254213  0.56162346  1
  Zn  Zn156  1  0.81167072  0.06349869  0.06296109  1
  Zn  Zn157  1  0.81155095  0.06198787  0.56208078  1
  Zn  Zn158  1  0.81252135  0.56346316  0.06303942  1
  Zn  Zn159  1  0.81172474  0.56139153  0.56365349  1
  Zn  Zn160  1  0.43740707  0.43958716  0.18697466  1
  Zn  Zn161  1  0.43746132  0.43596134  0.68748287  1
  Zn  Zn162  1  0.43640387  0.93813159  0.18639160  1
  Zn  Zn163  1  0.43789219  0.93841389  0.68703718  1
  Zn  Zn164  1  0.93761902  0.43897175  0.18845024  1
  Zn  Zn165  1  0.93888286  0.43721528  0.68963722  1
  Zn  Zn166  1  0.93830129  0.93945252  0.18704746  1
  Zn  Zn167  1  0.93684402  0.93750081  0.68586373  1
  Zn  Zn168  1  0.06173125  0.06215596  0.31183013  1
  Zn  Zn169  1  0.06335808  0.06289463  0.81301663  1
  Zn  Zn170  1  0.06056905  0.56123100  0.31313446  1
  Zn  Zn171  1  0.06474780  0.56277222  0.81284313  1
  Zn  Zn172  1  0.56231502  0.06070686  0.31414393  1
  Zn  Zn173  1  0.56346454  0.06329211  0.81366244  1
  Zn  Zn174  1  0.56093985  0.56147525  0.31268710  1
  Zn  Zn175  1  0.56354110  0.56137477  0.81199853  1
  Zn  Zn176  1  0.43904433  0.18689602  0.43724919  1
  Zn  Zn177  1  0.43860607  0.18828312  0.93561735  1
  Zn  Zn178  1  0.43696059  0.68801643  0.43594025  1
  Zn  Zn179  1  0.43667864  0.68834641  0.93736446  1
  Zn  Zn180  1  0.93813446  0.18773351  0.43602500  1
  Zn  Zn181  1  0.93789111  0.18713106  0.93756334  1
  Zn  Zn182  1  0.93653526  0.68690656  0.43714702  1
  Zn  Zn183  1  0.93756316  0.68996896  0.93939818  1
  Zn  Zn184  1  0.06363093  0.31334766  0.06244731  1
  Zn  Zn185  1  0.06276123  0.31249495  0.56203314  1
  Zn  Zn186  1  0.06384177  0.81313689  0.06065740  1
  Zn  Zn187  1  0.06206914  0.81237586  0.56153581  1
  Zn  Zn188  1  0.56153483  0.31225994  0.06256114  1
  Zn  Zn189  1  0.56065527  0.30874182  0.56363234  1
  Zn  Zn190  1  0.56021436  0.81142099  0.06418704  1
  Zn  Zn191  1  0.56205884  0.81257077  0.56152510  1
  O  O192  1  0.12097117  0.12143653  0.12026843  1
  O  O193  1  0.11497535  0.12575053  0.61881804  1
  O  O194  1  0.11585194  0.61914175  0.12601359  1
  O  O195  1  0.11918727  0.62020593  0.62003767  1
  O  O196  1  0.62334832  0.11869651  0.11762704  1
  O  O197  1  0.62405167  0.11939653  0.61566704  1
  O  O198  1  0.62477490  0.61831657  0.11766769  1
  O  O199  1  0.61997607  0.61979133  0.61900774  1
  O  O200  1  0.38160362  0.37535287  0.38228408  1
  O  O201  1  0.38176329  0.37637545  0.88110960  1
  O  O202  1  0.38124241  0.87274038  0.38285751  1
  O  O203  1  0.38280615  0.87675566  0.88140976  1
  O  O204  1  0.87589639  0.37504298  0.38757202  1
  O  O205  1  0.88098468  0.38131680  0.88115035  1
  O  O206  1  0.88092700  0.87463535  0.38215649  1
  O  O207  1  0.88046198  0.87625330  0.88359081  1
  O  O208  1  0.24981867  0.00611747  0.36919376  1
  O  O209  1  0.25128450  0.00013165  0.86238799  1
  O  O210  1  0.25005026  0.50639344  0.36882703  1
  O  O211  1  0.24903248  0.50764814  0.86698262  1
  O  O212  1  0.75281721  0.00188799  0.36492590  1
  O  O213  1  0.75093538  0.00087197  0.86179835  1
  O  O214  1  0.74991003  0.50655678  0.36871119  1
  O  O215  1  0.75803798  0.50735417  0.87462694  1
  O  O216  1  0.24385012  0.49491797  0.13094681  1
  O  O217  1  0.24533207  0.49595563  0.63205898  1
  O  O218  1  0.24413715  0.99467708  0.13094362  1
  O  O219  1  0.24742213  0.99243079  0.63662127  1
  O  O220  1  0.74418578  0.49492803  0.13000471  1
  O  O221  1  0.74273305  0.49368468  0.62670952  1
  O  O222  1  0.74340376  0.99442292  0.12974253  1
  O  O223  1  0.74466169  0.99325554  0.63211884  1
  O  O224  1  0.00726243  0.36891255  0.24998329  1
  O  O225  1  0.00423147  0.37280992  0.75912617  1
  O  O226  1  0.00215005  0.87326788  0.25779558  1
  O  O227  1  0.00478805  0.86918812  0.75353779  1
  O  O228  1  0.50543900  0.37051910  0.25574082  1
  O  O229  1  0.50640128  0.37291647  0.75561084  1
  O  O230  1  0.50432043  0.87409296  0.25886646  1
  O  O231  1  0.50636052  0.86979416  0.75474683  1
  O  O232  1  0.49089878  0.12913456  0.25179258  1
  O  O233  1  0.48730199  0.12453390  0.74858517  1
  O  O234  1  0.48810611  0.62533188  0.25048864  1
  O  O235  1  0.50007775  0.63128930  0.74325385  1
  O  O236  1  0.99528144  0.13197406  0.24339767  1
  O  O237  1  0.99918267  0.12655454  0.73703219  1
  O  O238  1  0.99345926  0.62409088  0.24046492  1
  O  O239  1  0.99557831  0.63085496  0.74528985  1
  O  O240  1  0.36954989  0.25674572  0.00116407  1
  O  O241  1  0.36877694  0.25375437  0.50503697  1
  O  O242  1  0.36763791  0.75746580  0.00041286  1
  O  O243  1  0.37387186  0.75998901  0.50557788  1
  O  O244  1  0.87027632  0.25716247  0.00598730  1
  O  O245  1  0.87609503  0.25893028  0.50948594  1
  O  O246  1  0.86864428  0.76186659  0.00095639  1
  O  O247  1  0.86869645  0.75424400  0.50625857  1
  O  O248  1  0.13080503  0.24432479  0.49473689  1
  O  O249  1  0.13111354  0.24632310  0.99345559  1
  O  O250  1  0.12438230  0.74267277  0.49108037  1
  O  O251  1  0.13240301  0.74860097  0.99186942  1
  O  O252  1  0.62551158  0.24055445  0.49502232  1
  O  O253  1  0.63068317  0.24638400  0.99473049  1
  O  O254  1  0.63046728  0.74413054  0.49459013  1
  O  O255  1  0.63007833  0.74579079  0.99348437  1
  O  O256  1  0.49815183  0.24772496  0.13426021  1
  O  O257  1  0.48966683  0.24541859  0.62836309  1
  O  O258  1  0.49483818  0.74533721  0.12896742  1
  O  O259  1  0.49665252  0.74462513  0.62997137  1
  O  O260  1  0.99530503  0.24600574  0.12995527  1
  O  O261  1  0.99292075  0.24172626  0.62476007  1
  O  O262  1  1.00031588  0.73853287  0.12557317  1
  O  O263  1  0.99434065  0.74437652  0.63051479  1
  O  O264  1  0.00768703  0.25188008  0.36773349  1
  O  O265  1  0.01039124  0.25690022  0.87670355  1
  O  O266  1  0.00809880  0.75480107  0.37556500  1
  O  O267  1  0.00545804  0.75514370  0.86910887  1
  O  O268  1  0.50647011  0.25596307  0.36969345  1
  O  O269  1  0.50829151  0.25734569  0.87237895  1
  O  O270  1  0.50612357  0.76018680  0.37379610  1
  O  O271  1  0.50647881  0.75530811  0.86905154  1
  O  O272  1  0.24495552  0.12897847  0.49607843  1
  O  O273  1  0.24461918  0.13218038  0.99939401  1
  O  O274  1  0.24238779  0.62550271  0.49453107  1
  O  O275  1  0.24918370  0.62969810  0.99051722  1
  O  O276  1  0.73821735  0.12617703  0.49841660  1
  O  O277  1  0.74369376  0.13308858  0.99916245  1
  O  O278  1  0.74448084  0.62987436  0.49557250  1
  O  O279  1  0.74502203  0.63137686  0.99444405  1
  O  O280  1  0.25601492  0.37141831  0.00577967  1
  O  O281  1  0.25523062  0.36906140  0.50540280  1
  O  O282  1  0.25517233  0.87032394  0.00428330  1
  O  O283  1  0.25878042  0.87315960  0.50574485  1
  O  O284  1  0.75571367  0.37114600  0.00576737  1
  O  O285  1  0.76002376  0.37389844  0.50641749  1
  O  O286  1  0.75663619  0.87176945  0.00319560  1
  O  O287  1  0.75395919  0.86888510  0.50481802  1
  O  O288  1  0.13006968  0.49414887  0.24542039  1
  O  O289  1  0.13565665  0.49935294  0.74377710  1
  O  O290  1  0.13182032  1.00022018  0.24279931  1
  O  O291  1  0.13406871  0.99374439  0.74822586  1
  O  O292  1  0.62973181  0.49415576  0.24474941  1
  O  O293  1  0.62678468  0.49276566  0.74250063  1
  O  O294  1  0.62977732  0.99420138  0.24435350  1
  O  O295  1  0.63287163  0.99461148  0.74418103  1
  O  O296  1  0.36861208  0.00891272  0.25231766  1
  O  O297  1  0.36609468  0.00663464  0.75045127  1
  O  O298  1  0.36827622  0.50855399  0.25285091  1
  O  O299  1  0.36260497  0.50177451  0.75022229  1
  O  O300  1  0.86825176  0.00778082  0.24905320  1
  O  O301  1  0.86319380  -0.00010966  0.74880296  1
  O  O302  1  0.86689243  0.50589127  0.25169576  1
  O  O303  1  0.87492332  0.50765736  0.75736065  1
  O  O304  1  0.12475655  0.36756495  0.36875190  1
  O  O305  1  0.12005371  0.36620011  0.87684199  1
  O  O306  1  0.11854991  0.86494536  0.37669121  1
  O  O307  1  0.11976253  0.86925716  0.86871345  1
  O  O308  1  0.61988812  0.36903310  0.36980143  1
  O  O309  1  0.62060590  0.37010301  0.86910574  1
  O  O310  1  0.61738738  0.86985236  0.37047682  1
  O  O311  1  0.62035352  0.86900505  0.86934532  1
  O  O312  1  0.37630400  0.12678860  0.13894309  1
  O  O313  1  0.37359004  0.12884834  0.63438186  1
  O  O314  1  0.37418951  0.62575244  0.13708654  1
  O  O315  1  0.38247346  0.63148378  0.62474562  1
  O  O316  1  0.88074440  0.13246953  0.12909704  1
  O  O317  1  0.88335887  0.13410041  0.62256298  1
  O  O318  1  0.88395032  0.62621849  0.12987112  1
  O  O319  1  0.88028513  0.63020162  0.63063638  1
  O  O320  1  0.25199345  0.25827465  0.11870155  1
  O  O321  1  0.25393213  0.25471638  0.61943194  1
  O  O322  1  0.24924331  0.75634496  0.11802169  1
  O  O323  1  0.25685644  0.75548719  0.62410352  1
  O  O324  1  0.75542871  0.25738684  0.11946935  1
  O  O325  1  0.76081299  0.25557724  0.62209463  1
  O  O326  1  0.75007546  0.75819564  0.11676442  1
  O  O327  1  0.75475892  0.75447583  0.61975415  1
  O  O328  1  0.24452325  0.24317729  0.38122569  1
  O  O329  1  0.23980304  0.25091537  0.88212769  1
  O  O330  1  0.23792178  0.74368545  0.37795030  1
  O  O331  1  0.24559366  0.74268872  0.87819073  1
  O  O332  1  0.74124916  0.24707259  0.37786091  1
  O  O333  1  0.74432730  0.25170678  0.88183979  1
  O  O334  1  0.74415278  0.74435024  0.38094204  1
  O  O335  1  0.74458497  0.74558467  0.87998700  1
  O  O336  1  0.00753160  0.12526218  0.00769323  1
  O  O337  1  0.00442995  0.12074994  0.50734928  1
  O  O338  1  0.00078515  0.62056390  0.00986480  1
  O  O339  1  0.00390437  0.61938508  0.50696368  1
  O  O340  1  0.50650086  0.11884286  0.00061385  1
  O  O341  1  0.51118218  0.12104870  0.50081044  1
  O  O342  1  0.50677703  0.61866828  -0.00134723  1
  O  O343  1  0.50589844  0.61984878  0.50442597  1
  O  O344  1  0.49501754  0.37886579  0.49576020  1
  O  O345  1  0.49606794  0.38059100  0.99389762  1
  O  O346  1  0.49147440  0.87433825  0.49152457  1
  O  O347  1  0.49556874  0.88040568  0.99461838  1
  O  O348  1  0.99059516  0.38036335  0.50092497  1
  O  O349  1  0.99428944  0.38196929  0.99640767  1
  O  O350  1  0.99381190  0.88015588  0.49596435  1
  O  O351  1  0.99080584  0.87562570  0.99406169  1
  O  O352  1  0.49991142  0.49206186  0.38308445  1
  O  O353  1  0.49940584  0.49323829  0.88057089  1
  O  O354  1  0.49793072  0.98536168  0.37749940  1
  O  O355  1  0.50061889  0.99238818  0.88155425  1
  O  O356  1  0.99654455  0.49673928  0.38392274  1
  O  O357  1  0.99609061  0.49707527  0.88153988  1
  O  O358  1  0.99872915  0.99353322  0.38181877  1
  O  O359  1  0.99874085  0.99183468  0.87702557  1
  O  O360  1  0.00747651  0.00821810  0.12296500  1
  O  O361  1  -0.00011293  0.00981654  0.61889855  1
  O  O362  1  0.00467472  0.50849532  0.12084395  1
  O  O363  1  0.00576231  0.50584503  0.62110758  1
  O  O364  1  0.50713427  0.00109948  0.11792886  1
  O  O365  1  0.50908841  0.00090645  0.62242320  1
  O  O366  1  0.50759154  0.50159062  0.11728210  1
  O  O367  1  0.50540998  0.50482876  0.61930071  1
  O  O368  1  0.24573090  0.37954240  0.24563486  1
  O  O369  1  0.24861389  0.38459905  0.74445409  1
  O  O370  1  0.24730959  0.88121821  0.24418330  1
  O  O371  1  0.24596840  0.88090530  0.74603180  1
  O  O372  1  0.74425423  0.38009497  0.24468233  1
  O  O373  1  0.74378207  0.37787582  0.74276663  1
  O  O374  1  0.74446258  0.88032160  0.24363789  1
  O  O375  1  0.74474029  0.88125721  0.74406486  1
  O  O376  1  0.25783538  0.12063785  0.25565249  1
  O  O377  1  0.25680548  0.11511897  0.75072131  1
  O  O378  1  0.25560108  0.61909312  0.25585309  1
  O  O379  1  0.25095352  0.61683925  0.75749853  1
  O  O380  1  0.75647322  0.11902619  0.24895105  1
  O  O381  1  0.75199272  0.11328491  0.74830714  1
  O  O382  1  0.75380979  0.61971840  0.25455680  1
  O  O383  1  0.75729853  0.62441653  0.75695330  1
  O  O384  1  0.36936023  0.12269656  0.36680668  1
  O  O385  1  0.37110028  0.12350964  0.86385584  1
  O  O386  1  0.36760725  0.62344734  0.36783869  1
  O  O387  1  0.36257904  0.62364205  0.87184852  1
  O  O388  1  0.87357549  0.12370379  0.36619655  1
  O  O389  1  0.87217090  0.12320503  0.87018528  1
  O  O390  1  0.86721145  0.62332265  0.36926197  1
  O  O391  1  0.87102640  0.62167171  0.87109497  1
  O  O392  1  0.13127885  0.38078851  0.13104750  1
  O  O393  1  0.13185473  0.38102702  0.62538950  1
  O  O394  1  0.13108561  0.88214583  0.12541294  1
  O  O395  1  0.13077795  0.87463402  0.63164184  1
  O  O396  1  0.63089675  0.38069505  0.13047267  1
  O  O397  1  0.62972739  0.37841508  0.62847467  1
  O  O398  1  0.63009361  0.88123371  0.12957553  1
  O  O399  1  0.63083715  0.87866693  0.62963008  1
  O  O400  1  0.12108107  0.25475665  0.25449228  1
  O  O401  1  0.12524598  0.25146075  0.76253871  1
  O  O402  1  0.12140122  0.75035779  0.26365165  1
  O  O403  1  0.11934162  0.75484115  0.75499273  1
  O  O404  1  0.62012829  0.25536972  0.25500672  1
  O  O405  1  0.62483328  0.25605836  0.75514122  1
  O  O406  1  0.62451321  0.75711441  0.25697726  1
  O  O407  1  0.62077056  0.75575923  0.75484644  1
  O  O408  1  0.38046619  0.23996568  0.25095788  1
  O  O409  1  0.37178564  0.23955572  0.74442733  1
  O  O410  1  0.37332150  0.73735135  0.24968712  1
  O  O411  1  0.38321120  0.74932797  0.74293442  1
  O  O412  1  0.88051855  0.24666591  0.24326945  1
  O  O413  1  0.87787650  0.25048501  0.73682614  1
  O  O414  1  0.87643440  0.74100090  0.24599580  1
  O  O415  1  0.88042629  0.74533507  0.74484064  1
  O  O416  1  0.38184568  0.49216274  0.49955132  1
  O  O417  1  0.38160094  0.49355222  0.99727708  1
  O  O418  1  0.37578001  0.98660446  0.49921890  1
  O  O419  1  0.38147163  0.99454544  0.99849282  1
  O  O420  1  0.87993590  0.49039398  0.50160390  1
  O  O421  1  0.88067144  0.49538276  0.99518861  1
  O  O422  1  0.88039575  0.99284621  0.49896315  1
  O  O423  1  0.87512882  0.98848485  0.99833060  1
  O  O424  1  0.12518776  0.00760987  0.00646380  1
  O  O425  1  0.11810685  0.00685160  0.50336181  1
  O  O426  1  0.11862131  0.50224214  0.00802846  1
  O  O427  1  0.11961892  0.50468681  0.50589803  1
  O  O428  1  0.62081183  0.00549271  0.00464829  1
  O  O429  1  0.62509577  0.00739864  0.50546401  1
  O  O430  1  0.62059165  0.50544145  0.00444621  1
  O  O431  1  0.61956917  0.50465668  0.50576393  1
  O  O432  1  0.36901972  0.37474178  0.11860520  1
  O  O433  1  0.36872597  0.36842642  0.61935679  1
  O  O434  1  0.36684608  0.87416314  0.11828749  1
  O  O435  1  0.37122870  0.86933985  0.61769654  1
  O  O436  1  0.86969207  0.37104437  0.11993588  1
  O  O437  1  0.87222703  0.36863192  0.61795882  1
  O  O438  1  0.86923053  0.87518737  0.11504120  1
  O  O439  1  0.86947544  0.86782489  0.61884218  1
  O  O440  1  0.13009442  0.13079464  0.38039169  1
  O  O441  1  0.12576264  0.13572300  0.88122112  1
  O  O442  1  0.12760569  0.63157972  0.38013185  1
  O  O443  1  0.13603750  0.63113012  0.87582013  1
  O  O444  1  0.62536661  0.12969178  0.38358968  1
  O  O445  1  0.62836215  0.13270089  0.88089486  1
  O  O446  1  0.62987240  0.62975215  0.38044972  1
  O  O447  1  0.63114276  0.63078726  0.87987116  1
