# generated using pymatgen
data_V3Zn3O8
_symmetry_space_group_name_H-M   'P 1'
_cell_length_a   17.08797520
_cell_length_b   17.08758055
_cell_length_c   17.08825991
_cell_angle_alpha   90.00933970
_cell_angle_beta   89.99731092
_cell_angle_gamma   90.00083621
_symmetry_Int_Tables_number   1
_chemical_formula_structural   V3Zn3O8
_chemical_formula_sum   'V96 Zn96 O256'
_cell_volume   4989.63772411
_cell_formula_units_Z   32
loop_
 _symmetry_equiv_pos_site_id
 _symmetry_equiv_pos_as_xyz
  1  'x, y, z'
loop_
 _atom_site_type_symbol
 _atom_site_label
 _atom_site_symmetry_multiplicity
 _atom_site_fract_x
 _atom_site_fract_y
 _atom_site_fract_z
 _atom_site_occupancy
  V  V0  1  0.87495544  0.37595925  0.49955239  1
  V  V1  1  0.50039815  0.75081970  0.74948134  1
  V  V2  1  0.12571690  0.12263877  -0.00013158  1
  V  V3  1  0.12644993  -0.00380564  0.12587245  1
  V  V4  1  0.37568031  -0.00060944  0.37593291  1
  V  V5  1  0.25084571  0.74830085  -0.00032200  1
  V  V6  1  0.75023632  0.62533453  0.37375856  1
  V  V7  1  0.12458461  0.24883057  0.87427628  1
  V  V8  1  0.00073676  0.49936369  0.00031518  1
  V  V9  1  0.00058230  0.37423349  0.37466637  1
  V  V10  1  0.12458609  0.74917179  0.87458836  1
  V  V11  1  0.87628685  0.37476920  0.00012053  1
  V  V12  1  0.37542596  0.37362335  -0.00059586  1
  V  V13  1  0.00041463  0.25093460  0.74986417  1
  V  V14  1  0.24872126  0.49904560  0.24953226  1
  V  V15  1  0.50027352  0.12653816  0.62494451  1
  V  V16  1  0.12451650  0.00015722  0.62495442  1
  V  V17  1  0.87529395  0.25161058  0.62597456  1
  V  V18  1  0.12486657  0.62381135  -0.00061051  1
  V  V19  1  0.75120898  0.12542401  0.87465342  1
  V  V20  1  0.74995230  0.25093513  0.49960460  1
  V  V21  1  0.49889095  0.50222933  0.49945984  1
  V  V22  1  0.87401734  0.62486610  0.74997612  1
  V  V23  1  0.49992025  0.24978262  0.24954051  1
  V  V24  1  0.49808581  0.62466473  0.12603666  1
  V  V25  1  0.87498124  0.00048454  0.37539349  1
  V  V26  1  0.87516939  0.75069595  0.62463289  1
  V  V27  1  0.00027551  0.87418121  0.37338598  1
  V  V28  1  0.25038628  0.50062946  0.75078874  1
  V  V29  1  0.24978742  -0.00029070  0.74975196  1
  V  V30  1  0.25026517  -0.00206666  0.25049147  1
  V  V31  1  0.74899781  0.37750538  0.62525697  1
  V  V32  1  0.25009544  0.75036466  0.50071187  1
  V  V33  1  0.87387262  0.50127827  0.87425406  1
  V  V34  1  0.74988606  0.87350425  0.12315017  1
  V  V35  1  0.00041584  0.75015674  0.25028890  1
  V  V36  1  0.62487629  0.25406442  0.87336773  1
  V  V37  1  0.74991448  0.87727306  0.62571603  1
  V  V38  1  0.62372140  0.62672294  0.49922533  1
  V  V39  1  0.62553077  0.12729395  0.50063418  1
  V  V40  1  0.62487270  0.50151849  0.62516897  1
  V  V41  1  0.37406723  0.62501654  0.24981269  1
  V  V42  1  0.37404563  0.37604278  0.50005397  1
  V  V43  1  0.24856779  0.62563995  0.37566383  1
  V  V44  1  0.25003830  0.12368441  0.37527722  1
  V  V45  1  0.62499238  0.49797622  0.12641828  1
  V  V46  1  0.37534998  -0.00026977  0.87545759  1
  V  V47  1  0.25006031  0.25012693  0.50005680  1
  V  V48  1  0.50045909  0.00153853  0.50035637  1
  V  V49  1  0.37501776  0.62584673  0.74974412  1
  V  V50  1  0.25009529  0.37497903  0.62564276  1
  V  V51  1  0.12534564  0.37387507  0.25018530  1
  V  V52  1  0.49848500  0.49824185  -0.00128587  1
  V  V53  1  0.12472548  0.24958238  0.37459837  1
  V  V54  1  -0.00031273  0.62488713  0.62351155  1
  V  V55  1  -0.00051664  0.12634712  0.62528317  1
  V  V56  1  0.62490273  0.75110787  0.37520254  1
  V  V57  1  0.49940694  0.37546716  0.37362332  1
  V  V58  1  0.25072541  0.24883757  0.00032067  1
  V  V59  1  0.74928695  0.00015823  0.24987986  1
  V  V60  1  0.12511452  0.12481788  0.49975208  1
  V  V61  1  0.49866491  0.74949741  0.25055607  1
  V  V62  1  0.37525699  0.87392438  0.00112678  1
  V  V63  1  0.25052533  0.12403986  0.87510770  1
  V  V64  1  0.74964080  0.00060902  0.75034674  1
  V  V65  1  0.75102530  0.37448431  0.12787609  1
  V  V66  1  0.25039982  0.87448633  0.62390738  1
  V  V67  1  0.50023957  0.87655476  0.37618841  1
  V  V68  1  0.37346307  0.50033937  0.37526938  1
  V  V69  1  0.00023054  0.74958415  0.74896561  1
  V  V70  1  0.87566042  0.12446285  0.24880069  1
  V  V71  1  0.87445935  0.50047142  0.37453173  1
  V  V72  1  0.75049574  0.12632130  0.37552698  1
  V  V73  1  -0.00023227  0.00010042  0.49997837  1
  V  V74  1  0.12511657  0.87449752  0.74974211  1
  V  V75  1  0.87499472  0.87604312  0.50005462  1
  V  V76  1  0.37582807  0.25003287  0.62544979  1
  V  V77  1  0.12566315  0.37459601  0.75043870  1
  V  V78  1  0.37599429  0.12450738  0.24972265  1
  V  V79  1  -0.00083691  0.87497302  0.87463639  1
  V  V80  1  -0.00076749  0.12378168  0.12503133  1
  V  V81  1  0.87431204  0.62386334  0.25000044  1
  V  V82  1  0.62605724  0.62680493  -0.00114551  1
  V  V83  1  0.62362477  0.12333166  0.00198743  1
  V  V84  1  0.62515874  0.87623698  0.75092010  1
  V  V85  1  0.87618071  -0.00082991  0.87563436  1
  V  V86  1  0.87399426  0.74930551  0.12408727  1
  V  V87  1  0.74999776  0.75200806  0.49928917  1
  V  V88  1  0.75208436  0.25029600  0.00029785  1
  V  V89  1  0.12464967  0.62519181  0.49950283  1
  V  V90  1  0.50051233  0.87598196  0.87499362  1
  V  V91  1  0.00020104  0.50066761  0.50045769  1
  V  V92  1  0.62503827  0.87572940  0.25009907  1
  V  V93  1  0.37621850  0.12611233  0.74981381  1
  V  V94  1  0.24871748  0.37303810  0.12500766  1
  V  V95  1  -0.00037416  0.62416434  0.12457253  1
  Zn  Zn96  1  0.62308287  0.37839030  0.75072757  1
  Zn  Zn97  1  0.00019713  0.37367874  0.87555381  1
  Zn  Zn98  1  0.50048327  0.37506284  0.87278657  1
  Zn  Zn99  1  0.37601125  0.24568750  0.12391252  1
  Zn  Zn100  1  0.50010989  0.12200351  0.12602920  1
  Zn  Zn101  1  0.37607771  0.49923414  0.87382769  1
  Zn  Zn102  1  0.75076487  0.74896196  -0.00192019  1
  Zn  Zn103  1  0.24994443  0.62300564  0.87487224  1
  Zn  Zn104  1  0.49973639  0.62788867  0.62387481  1
  Zn  Zn105  1  0.12534003  0.75101936  0.37281546  1
  Zn  Zn106  1  0.62485626  0.37495124  0.25151578  1
  Zn  Zn107  1  0.50091161  0.25372943  0.74962079  1
  Zn  Zn108  1  0.62387914  -0.00030255  0.12470928  1
  Zn  Zn109  1  0.49999469  0.00006795  0.00276217  1
  Zn  Zn110  1  0.62857333  0.75040347  0.87543165  1
  Zn  Zn111  1  0.62653623  0.25283631  0.37409057  1
  Zn  Zn112  1  0.00009469  0.24948958  0.24972488  1
  Zn  Zn113  1  0.74960500  0.62810772  0.87386370  1
  Zn  Zn114  1  0.37582092  0.87440769  0.50206304  1
  Zn  Zn115  1  0.87443264  0.12753071  0.75038064  1
  Zn  Zn116  1  0.00022172  -0.00366449  -0.00018398  1
  Zn  Zn117  1  0.74756104  0.50234392  0.75113234  1
  Zn  Zn118  1  0.37362480  0.74974151  0.12590990  1
  Zn  Zn119  1  0.12716844  0.87153476  0.25076034  1
  Zn  Zn120  1  0.25066334  0.87256247  0.12772868  1
  Zn  Zn121  1  0.62514542  0.00282230  0.62625657  1
  Zn  Zn122  1  0.87522680  0.87149975  -0.00118000  1
  Zn  Zn123  1  0.74790579  0.49867644  0.25184758  1
  Zn  Zn124  1  0.12430984  0.49820835  0.12397013  1
  Zn  Zn125  1  0.12367520  0.49974041  0.62563784  1
  Zn  Zn126  1  0.87680997  0.24921962  0.12499116  1
  Zn  Zn127  1  0.37534903  0.75261198  0.62397030  1
  Zn  Zn128  1  0.18803258  0.18647150  0.18765924  1
  Zn  Zn129  1  0.18809103  0.18731961  0.68760143  1
  Zn  Zn130  1  0.18550495  0.68612612  0.18605947  1
  Zn  Zn131  1  0.18706218  0.68691420  0.68483953  1
  Zn  Zn132  1  0.68706077  0.18942204  0.18808732  1
  Zn  Zn133  1  0.68811136  0.18870284  0.68819841  1
  Zn  Zn134  1  0.68598197  0.68683597  0.18706588  1
  Zn  Zn135  1  0.68826154  0.68790633  0.68793879  1
  Zn  Zn136  1  0.31324874  0.31128133  0.31199899  1
  Zn  Zn137  1  0.31269081  0.31195283  0.81338186  1
  Zn  Zn138  1  0.31294931  0.81292423  0.31458007  1
  Zn  Zn139  1  0.31259364  0.81213250  0.81337892  1
  Zn  Zn140  1  0.81603870  0.30975554  0.31096059  1
  Zn  Zn141  1  0.81045889  0.31634504  0.81067877  1
  Zn  Zn142  1  0.81376759  0.81237796  0.31051695  1
  Zn  Zn143  1  0.81072944  0.81131019  0.81336182  1
  Zn  Zn144  1  0.18597662  0.43842425  0.43758086  1
  Zn  Zn145  1  0.18752343  0.43629945  0.93612313  1
  Zn  Zn146  1  0.18667966  0.93527534  0.43692277  1
  Zn  Zn147  1  0.18802806  0.93583823  0.93772638  1
  Zn  Zn148  1  0.68599235  0.43778509  0.43727943  1
  Zn  Zn149  1  0.68969743  0.43896834  0.94067603  1
  Zn  Zn150  1  0.68623757  0.94057836  0.43831676  1
  Zn  Zn151  1  0.68776911  0.93757594  0.93658326  1
  Zn  Zn152  1  0.31336506  0.06131022  0.06422662  1
  Zn  Zn153  1  0.31375233  0.06190589  0.56258904  1
  Zn  Zn154  1  0.31152815  0.56075607  0.06448066  1
  Zn  Zn155  1  0.31217908  0.56437906  0.56527888  1
  Zn  Zn156  1  0.81116472  0.06004140  0.06104956  1
  Zn  Zn157  1  0.81265076  0.06447087  0.56358885  1
  Zn  Zn158  1  0.81210412  0.56052574  0.06304685  1
  Zn  Zn159  1  0.81147575  0.56388678  0.56098404  1
  Zn  Zn160  1  0.43532268  0.43602196  0.18608387  1
  Zn  Zn161  1  0.43987611  0.43691483  0.68764244  1
  Zn  Zn162  1  0.43931099  0.93900349  0.18591922  1
  Zn  Zn163  1  0.43730317  0.93889184  0.68619004  1
  Zn  Zn164  1  0.93792416  0.43801856  0.18823195  1
  Zn  Zn165  1  0.93762636  0.43761725  0.68843080  1
  Zn  Zn166  1  0.93663522  0.93655932  0.18826339  1
  Zn  Zn167  1  0.93690076  0.93819027  0.68908613  1
  Zn  Zn168  1  0.06291348  0.06076385  0.31110964  1
  Zn  Zn169  1  0.06142052  0.06332934  0.81106157  1
  Zn  Zn170  1  0.06280996  0.56216973  0.31235840  1
  Zn  Zn171  1  0.06140967  0.56221223  0.81317841  1
  Zn  Zn172  1  0.56440445  0.06405046  0.31413119  1
  Zn  Zn173  1  0.56197446  0.06378769  0.81376025  1
  Zn  Zn174  1  0.56274241  0.56170065  0.31205352  1
  Zn  Zn175  1  0.56150734  0.56379562  0.81304585  1
  Zn  Zn176  1  0.43801067  0.18794419  0.43640376  1
  Zn  Zn177  1  0.43993828  0.18786750  0.93666184  1
  Zn  Zn178  1  0.43536594  0.68908557  0.43716712  1
  Zn  Zn179  1  0.43842909  0.68690774  0.93411898  1
  Zn  Zn180  1  0.93722501  0.18832433  0.43781478  1
  Zn  Zn181  1  0.93882828  0.18605885  0.93859923  1
  Zn  Zn182  1  0.93765871  0.68821960  0.43644165  1
  Zn  Zn183  1  0.93721424  0.68735689  0.93839434  1
  Zn  Zn184  1  0.06329013  0.31110200  0.06184702  1
  Zn  Zn185  1  0.06317604  0.31353652  0.56309365  1
  Zn  Zn186  1  0.06048527  0.81148917  0.06112472  1
  Zn  Zn187  1  0.06399101  0.81197666  0.56059658  1
  Zn  Zn188  1  0.56390657  0.31007781  0.06406376  1
  Zn  Zn189  1  0.56229059  0.31404116  0.56095223  1
  Zn  Zn190  1  0.56112545  0.81105057  0.06450846  1
  Zn  Zn191  1  0.56357156  0.81571401  0.56447286  1
  O  O192  1  0.11882223  0.11525265  0.12089700  1
  O  O193  1  0.12009233  0.11985003  0.61909655  1
  O  O194  1  0.11736498  0.62200080  0.11687808  1
  O  O195  1  0.11680892  0.62300064  0.61810549  1
  O  O196  1  0.62718763  0.12481127  0.11250518  1
  O  O197  1  0.61878575  0.12585307  0.61869599  1
  O  O198  1  0.61752955  0.61860062  0.11850149  1
  O  O199  1  0.62441558  0.61795536  0.61723178  1
  O  O200  1  0.37806361  0.38150752  0.38117204  1
  O  O201  1  0.37596689  0.37579663  0.88891818  1
  O  O202  1  0.38303665  0.88231877  0.37737175  1
  O  O203  1  0.37939790  0.87985970  0.88233600  1
  O  O204  1  0.88059797  0.38006494  0.38032274  1
  O  O205  1  0.87572663  0.38478556  0.88108400  1
  O  O206  1  0.87928221  0.88116090  0.38084564  1
  O  O207  1  0.88061780  0.88343332  0.87373450  1
  O  O208  1  0.25474635  0.00510275  0.37093646  1
  O  O209  1  0.25472751  0.00450483  0.86884024  1
  O  O210  1  0.25507380  0.50511663  0.36998005  1
  O  O211  1  0.25274406  0.50047185  0.86207008  1
  O  O212  1  0.75644578  0.00582916  0.37038132  1
  O  O213  1  0.75835731  0.00411761  0.86963947  1
  O  O214  1  0.75648979  0.50705097  0.37518928  1
  O  O215  1  0.76280110  0.50341272  0.87587532  1
  O  O216  1  0.24735652  0.49170247  0.13191733  1
  O  O217  1  0.24924784  0.49400742  0.63592879  1
  O  O218  1  0.24037135  0.99911245  0.13091265  1
  O  O219  1  0.24333492  0.99613480  0.63030060  1
  O  O220  1  0.74467441  0.48903338  0.12613413  1
  O  O221  1  0.73981994  0.49627430  0.62194668  1
  O  O222  1  0.74899164  0.98960116  0.13144150  1
  O  O223  1  0.75079299  0.99470447  0.63203871  1
  O  O224  1  0.00647604  0.37312940  0.25681749  1
  O  O225  1  0.00768876  0.36844555  0.75090908  1
  O  O226  1  -0.00058172  0.86811552  0.25623512  1
  O  O227  1  0.00622845  0.86890631  0.75369875  1
  O  O228  1  0.49736002  0.36616380  0.25503351  1
  O  O229  1  0.50429090  0.37223060  0.75513865  1
  O  O230  1  0.50524912  0.86970671  0.25625844  1
  O  O231  1  0.50399084  0.86930208  0.75471530  1
  O  O232  1  0.49467494  0.13426669  0.25261223  1
  O  O233  1  0.49308142  0.12770820  0.74376970  1
  O  O234  1  0.49388772  0.62954565  0.24627312  1
  O  O235  1  0.49251105  0.63410523  0.74958925  1
  O  O236  1  0.99484326  0.12338424  0.24061363  1
  O  O237  1  0.99939175  0.13272109  0.74211102  1
  O  O238  1  0.99375687  0.62919573  0.24472800  1
  O  O239  1  0.99482946  0.63090229  0.74337963  1
  O  O240  1  0.36978901  0.25726685  0.00049215  1
  O  O241  1  0.36872331  0.25585294  0.50463763  1
  O  O242  1  0.36734154  0.75662715  -0.00220295  1
  O  O243  1  0.36623417  0.75229272  0.50333450  1
  O  O244  1  0.86954800  0.25583774  0.00121045  1
  O  O245  1  0.87026650  0.25678585  0.50594632  1
  O  O246  1  0.87202824  0.75082825  0.00905813  1
  O  O247  1  0.86955080  0.75646688  0.50494172  1
  O  O248  1  0.13087180  0.24442763  0.49507072  1
  O  O249  1  0.13114336  0.24252060  0.99410840  1
  O  O250  1  0.13168028  0.74272773  0.49753440  1
  O  O251  1  0.13252039  0.74494132  0.99469013  1
  O  O252  1  0.63253622  0.24534764  0.49795510  1
  O  O253  1  0.63170863  0.24295403  0.99272138  1
  O  O254  1  0.63049584  0.74709664  0.49467837  1
  O  O255  1  0.62261264  0.73692257  0.99992130  1
  O  O256  1  0.49811493  0.24745740  0.13730702  1
  O  O257  1  0.49263005  0.24475309  0.62447511  1
  O  O258  1  0.49708226  0.74261502  0.13346770  1
  O  O259  1  0.49852678  0.75087993  0.63771562  1
  O  O260  1  1.00103667  0.23448819  0.12575660  1
  O  O261  1  0.99526601  0.24567400  0.62920826  1
  O  O262  1  0.99370387  0.74381674  0.12987254  1
  O  O263  1  0.99431469  0.74560090  0.62920268  1
  O  O264  1  0.00718933  0.25624891  0.37515623  1
  O  O265  1  0.00725025  0.24964217  0.86867940  1
  O  O266  1  -0.00056380  0.75649188  0.36829405  1
  O  O267  1  0.00471104  0.75491990  0.86812947  1
  O  O268  1  0.49914258  0.25708721  0.36592323  1
  O  O269  1  0.51313841  0.25213960  0.87464763  1
  O  O270  1  0.50585486  0.75592841  0.37032469  1
  O  O271  1  0.50129652  0.75643748  0.86328063  1
  O  O272  1  0.24445850  0.12998319  0.49527434  1
  O  O273  1  0.24596144  0.12891638  0.99415780  1
  O  O274  1  0.24489003  0.62955864  0.49586611  1
  O  O275  1  0.24607950  0.63236828  0.99774292  1
  O  O276  1  0.74633027  0.13135820  0.49545853  1
  O  O277  1  0.74367697  0.13008978  0.99429330  1
  O  O278  1  0.74474855  0.63322996  0.49334311  1
  O  O279  1  0.73599782  0.62397433  1.00273115  1
  O  O280  1  0.25668481  0.36943560  0.00423104  1
  O  O281  1  0.25448232  0.37015839  0.50504536  1
  O  O282  1  0.25867610  0.86510645  -0.00078000  1
  O  O283  1  0.24988395  0.86867782  0.50620926  1
  O  O284  1  0.75640801  0.37077399  0.00967908  1
  O  O285  1  0.75624541  0.37084042  0.50457913  1
  O  O286  1  0.74943853  0.87347820  0.01294326  1
  O  O287  1  0.75554566  0.87148187  0.50456423  1
  O  O288  1  0.13166961  0.49208635  0.24946552  1
  O  O289  1  0.13387522  0.49486997  0.74921177  1
  O  O290  1  0.13131405  0.99903943  0.24057186  1
  O  O291  1  0.13015943  0.99475890  0.74443980  1
  O  O292  1  0.62655196  0.49662528  0.24166412  1
  O  O293  1  0.62518590  0.50226574  0.73772027  1
  O  O294  1  0.63255586  0.99351603  0.25062523  1
  O  O295  1  0.63184248  0.99464483  0.75012848  1
  O  O296  1  0.37025158  0.00455715  0.25649041  1
  O  O297  1  0.36868386  0.00588765  0.75576967  1
  O  O298  1  0.36869006  0.50474011  0.25563018  1
  O  O299  1  0.36804127  0.50750683  0.75023473  1
  O  O300  1  0.86893414  0.00495890  0.25640191  1
  O  O301  1  0.86962344  0.00184852  0.76036869  1
  O  O302  1  0.87341205  0.50650248  0.25755380  1
  O  O303  1  0.87561054  0.50581723  0.75914703  1
  O  O304  1  0.12035250  0.36901831  0.37059178  1
  O  O305  1  0.12428086  0.36618810  0.86834046  1
  O  O306  1  0.11526550  0.87316342  0.37225386  1
  O  O307  1  0.11987057  0.86957702  0.86854319  1
  O  O308  1  0.61570824  0.37390740  0.37272556  1
  O  O309  1  0.62702262  0.36469887  0.87782973  1
  O  O310  1  0.62070215  0.87019509  0.36998485  1
  O  O311  1  0.61817311  0.87383552  0.86899088  1
  O  O312  1  0.37763353  0.12571926  0.13390044  1
  O  O313  1  0.37945261  0.13085001  0.63009221  1
  O  O314  1  0.38066014  0.62535636  0.13211764  1
  O  O315  1  0.37772714  0.62807189  0.63826462  1
  O  O316  1  0.88436917  0.12158276  0.12875755  1
  O  O317  1  0.88198265  0.13327318  0.62613680  1
  O  O318  1  0.87971666  0.62884780  0.13033654  1
  O  O319  1  0.87996695  0.63168382  0.62834692  1
  O  O320  1  0.25137980  0.25468788  0.11762563  1
  O  O321  1  0.25560805  0.25470398  0.61910392  1
  O  O322  1  0.25103242  0.75083153  0.11163248  1
  O  O323  1  0.24986017  0.75721408  0.61877939  1
  O  O324  1  0.75186918  0.25906201  0.11891083  1
  O  O325  1  0.75567301  0.25690473  0.61930296  1
  O  O326  1  0.75501465  0.75913891  0.12645360  1
  O  O327  1  0.75577852  0.75697911  0.61869483  1
  O  O328  1  0.24510579  0.24376534  0.38119388  1
  O  O329  1  0.24447310  0.24289760  0.88017877  1
  O  O330  1  0.24869951  0.74266202  0.38211089  1
  O  O331  1  0.24358065  0.74871687  0.88438249  1
  O  O332  1  0.75149240  0.24396805  0.38193228  1
  O  O333  1  0.74424113  0.24593298  0.88044627  1
  O  O334  1  0.74486793  0.74620073  0.37993953  1
  O  O335  1  0.74641616  0.74609971  0.88035183  1
  O  O336  1  0.00689663  0.12012081  0.00871081  1
  O  O337  1  0.00552778  0.11956885  0.50517770  1
  O  O338  1  0.00544018  0.61966344  0.00544380  1
  O  O339  1  0.00378691  0.62030433  0.50417323  1
  O  O340  1  0.51175519  0.12485893  0.00139346  1
  O  O341  1  0.50521662  0.12148905  0.50460250  1
  O  O342  1  0.50431439  0.61671403  0.00479736  1
  O  O343  1  0.50557042  0.62063259  0.50034592  1
  O  O344  1  0.49234980  0.38184195  0.49404433  1
  O  O345  1  0.49230907  0.38248915  1.00242389  1
  O  O346  1  0.50056369  0.88253983  0.49369277  1
  O  O347  1  0.48990750  0.87263899  0.99400896  1
  O  O348  1  0.99471359  0.38033995  0.49483342  1
  O  O349  1  0.99423423  0.38035597  0.99927172  1
  O  O350  1  0.99395194  0.88101784  0.49540785  1
  O  O351  1  0.99698100  0.87701744  0.99056951  1
  O  O352  1  0.49246356  0.49618697  0.37993114  1
  O  O353  1  0.49908390  0.49773482  0.88852018  1
  O  O354  1  0.49536812  0.99578423  0.38031897  1
  O  O355  1  0.49228646  0.99379822  0.87761106  1
  O  O356  1  0.99412880  0.49428786  0.38103896  1
  O  O357  1  0.98976111  0.49801078  0.88076777  1
  O  O358  1  0.99404166  0.99568212  0.38090091  1
  O  O359  1  0.99196141  0.99455148  0.87355647  1
  O  O360  1  0.00837277  0.00724433  0.12447040  1
  O  O361  1  0.00487414  0.00518574  0.61995759  1
  O  O362  1  0.00092291  0.50645957  0.11807014  1
  O  O363  1  -0.00030080  0.50683213  0.61803101  1
  O  O364  1  0.50663361  0.00332873  0.12058242  1
  O  O365  1  0.50118349  0.00857041  0.61867016  1
  O  O366  1  0.50359023  0.50375699  0.11635498  1
  O  O367  1  0.50887155  0.50244921  0.61726534  1
  O  O368  1  0.24559125  0.37914232  0.24560681  1
  O  O369  1  0.24684630  0.38196054  0.74529677  1
  O  O370  1  0.24851536  0.88170320  0.24752022  1
  O  O371  1  0.24385608  0.88032783  0.74566505  1
  O  O372  1  0.75009810  0.37454765  0.23911080  1
  O  O373  1  0.74559881  0.38146306  0.74035209  1
  O  O374  1  0.74527607  0.87950003  0.24286439  1
  O  O375  1  0.74497063  0.88029225  0.74468445  1
  O  O376  1  0.25513305  0.11884842  0.25683591  1
  O  O377  1  0.25523894  0.11903565  0.75527380  1
  O  O378  1  0.25420628  0.61927477  0.25481180  1
  O  O379  1  0.25681129  0.61754569  0.74975200  1
  O  O380  1  0.75542645  0.12018970  0.25497597  1
  O  O381  1  0.75194630  0.11919604  0.75721724  1
  O  O382  1  0.75593557  0.62398506  0.25640890  1
  O  O383  1  0.75880002  0.62285897  0.75151545  1
  O  O384  1  0.36864330  0.11909380  0.37030358  1
  O  O385  1  0.36959980  0.12003606  0.87046938  1
  O  O386  1  0.36857130  0.61878199  0.36938928  1
  O  O387  1  0.37276381  0.62219033  0.86180909  1
  O  O388  1  0.87066569  0.11914216  0.37042631  1
  O  O389  1  0.87011425  0.11606689  0.87395666  1
  O  O390  1  0.86940133  0.62025554  0.37034657  1
  O  O391  1  0.87630716  0.61601423  0.86935676  1
  O  O392  1  0.13110550  0.37472884  0.13164912  1
  O  O393  1  0.13285412  0.37612454  0.63180901  1
  O  O394  1  0.12525056  0.88648782  0.12507524  1
  O  O395  1  0.12906789  0.88133525  0.63054206  1
  O  O396  1  0.63574564  0.37946374  0.12448772  1
  O  O397  1  0.63025249  0.38691398  0.62181062  1
  O  O398  1  0.63400138  0.87389799  0.13191781  1
  O  O399  1  0.63300764  0.87900661  0.63236619  1
  O  O400  1  0.12447050  0.25513586  0.25771690  1
  O  O401  1  0.12130332  0.25462319  0.75484268  1
  O  O402  1  0.11611699  0.75099163  0.25096655  1
  O  O403  1  0.11973569  0.75483720  0.75449110  1
  O  O404  1  0.61344028  0.25226353  0.25314773  1
  O  O405  1  0.62579462  0.25223386  0.76243109  1
  O  O406  1  0.61878335  0.75501242  0.25657653  1
  O  O407  1  0.61558226  0.75571750  0.75065782  1
  O  O408  1  0.38314814  0.24326387  0.24950076  1
  O  O409  1  0.37452665  0.24338977  0.74346584  1
  O  O410  1  0.38076660  0.74281341  0.24977293  1
  O  O411  1  0.38256375  0.74323265  0.74993723  1
  O  O412  1  0.88013744  0.24006115  0.24534299  1
  O  O413  1  0.88144169  0.25095094  0.74355386  1
  O  O414  1  0.88041122  0.74301361  0.24416979  1
  O  O415  1  0.88120281  0.74564061  0.74350504  1
  O  O416  1  0.37839172  0.49597064  0.49543483  1
  O  O417  1  0.38239155  0.49207402  0.99968522  1
  O  O418  1  0.38218254  1.00012790  0.49293237  1
  O  O419  1  0.37319478  0.98928176  0.99351863  1
  O  O420  1  0.88038862  0.49542947  0.49408610  1
  O  O421  1  0.88070151  0.49605199  0.99250144  1
  O  O422  1  0.88042113  0.99553657  0.49529168  1
  O  O423  1  0.87531391  0.99657009  0.98600510  1
  O  O424  1  0.12592692  0.00478930  0.00902759  1
  O  O425  1  0.11919247  0.00566747  0.50540607  1
  O  O426  1  0.11916139  0.50559160  -0.00087766  1
  O  O427  1  0.11801510  0.50613925  0.50222511  1
  O  O428  1  0.62516289  0.01276408  -0.00142728  1
  O  O429  1  0.61879020  0.00895699  0.50224910  1
  O  O430  1  0.61624177  0.50609050  0.00622212  1
  O  O431  1  0.61885891  0.50730222  0.50573061  1
  O  O432  1  0.36816036  0.37257455  0.11343715  1
  O  O433  1  0.36937785  0.37012362  0.61888521  1
  O  O434  1  0.37328564  0.87256356  0.11266943  1
  O  O435  1  0.36546908  0.87467372  0.62332359  1
  O  O436  1  0.86705805  0.37420834  0.11943417  1
  O  O437  1  0.86976459  0.37142292  0.61847327  1
  O  O438  1  0.86509726  0.86927635  0.12517931  1
  O  O439  1  0.87050289  0.87025132  0.61964452  1
  O  O440  1  0.13019237  0.12867140  0.38073930  1
  O  O441  1  0.13123340  0.12816200  0.87968622  1
  O  O442  1  0.13157715  0.62564565  0.38174904  1
  O  O443  1  0.12568501  0.63219639  0.88108878  1
  O  O444  1  0.63387493  0.12800081  0.38251199  1
  O  O445  1  0.63107165  0.13357414  0.88264112  1
  O  O446  1  0.62995843  0.63151738  0.37970963  1
  O  O447  1  0.62542632  0.62453003  0.88747388  1
