# generated using pymatgen
data_V3Zn3O8
_symmetry_space_group_name_H-M   'P 1'
_cell_length_a   17.08843608
_cell_length_b   17.08945273
_cell_length_c   17.08804025
_cell_angle_alpha   89.98476550
_cell_angle_beta   89.99905575
_cell_angle_gamma   90.00088773
_symmetry_Int_Tables_number   1
_chemical_formula_structural   V3Zn3O8
_chemical_formula_sum   'V96 Zn96 O256'
_cell_volume   4990.25474609
_cell_formula_units_Z   32
loop_
 _symmetry_equiv_pos_site_id
 _symmetry_equiv_pos_as_xyz
  1  'x, y, z'
loop_
 _atom_site_type_symbol
 _atom_site_label
 _atom_site_symmetry_multiplicity
 _atom_site_fract_x
 _atom_site_fract_y
 _atom_site_fract_z
 _atom_site_occupancy
  V  V0  1  0.50069892  0.37369893  0.87455706  1
  V  V1  1  0.12437249  -0.00024613  0.12489520  1
  V  V2  1  0.74918781  0.25063552  0.49971538  1
  V  V3  1  0.62546066  0.87580879  0.24877764  1
  V  V4  1  0.62662131  -0.00065838  0.62510012  1
  V  V5  1  0.49942916  0.25037691  0.24970681  1
  V  V6  1  -0.00044317  0.50069928  0.49980507  1
  V  V7  1  0.00212599  0.50031174  0.00062557  1
  V  V8  1  0.37543177  0.00078011  0.37561167  1
  V  V9  1  0.00013281  0.37554187  0.87472862  1
  V  V10  1  0.87549690  0.87561955  0.49933932  1
  V  V11  1  0.25156324  0.75126435  0.50149329  1
  V  V12  1  0.62482817  0.24926433  0.37501401  1
  V  V13  1  0.24964496  0.37586345  0.12624788  1
  V  V14  1  0.74952720  0.62458618  0.37464661  1
  V  V15  1  0.00021045  0.74923562  0.74889811  1
  V  V16  1  0.37548273  0.62479371  0.75052084  1
  V  V17  1  0.24983684  0.49998006  0.25081722  1
  V  V18  1  0.24988724  0.49875803  0.74955610  1
  V  V19  1  0.37515115  0.49931443  0.87498158  1
  V  V20  1  0.24841177  0.25040570  0.50049477  1
  V  V21  1  0.75046485  -0.00062406  0.24878898  1
  V  V22  1  0.49841920  0.37587099  0.37576081  1
  V  V23  1  0.37541324  0.75073911  0.62531855  1
  V  V24  1  0.24734813  0.12581575  0.37648462  1
  V  V25  1  0.62458531  0.62351058  0.00115185  1
  V  V26  1  0.87529021  0.12424906  0.74923235  1
  V  V27  1  0.50009628  0.00064836  0.00061438  1
  V  V28  1  0.87543820  0.74823961  0.12564505  1
  V  V29  1  0.75060359  0.74868053  0.00013381  1
  V  V30  1  0.37478097  -0.00010959  0.87389186  1
  V  V31  1  0.62446786  0.75023906  0.87568654  1
  V  V32  1  0.00104722  0.62419091  0.62348560  1
  V  V33  1  0.87517241  -0.00030389  0.37398647  1
  V  V34  1  0.37602245  0.12453459  0.74953111  1
  V  V35  1  0.62438497  0.62519774  0.50053627  1
  V  V36  1  0.87507472  0.62450980  0.25011111  1
  V  V37  1  -0.00024904  0.37395048  0.37471715  1
  V  V38  1  0.37550971  0.62670972  0.25019053  1
  V  V39  1  0.87560831  0.87380138  -0.00068739  1
  V  V40  1  0.25052972  0.87483443  0.12485012  1
  V  V41  1  0.37510748  0.37443242  -0.00021839  1
  V  V42  1  0.74993255  0.87450354  0.12504186  1
  V  V43  1  0.25094719  0.62599554  0.37481333  1
  V  V44  1  0.75040636  0.12317138  0.87481210  1
  V  V45  1  0.12584971  0.75114271  0.37596124  1
  V  V46  1  0.50106194  0.62526428  0.62538598  1
  V  V47  1  0.62498660  0.75034073  0.37436054  1
  V  V48  1  0.50019939  0.49980186  0.00074238  1
  V  V49  1  0.87513334  0.50054127  0.87481602  1
  V  V50  1  0.24976155  0.37510451  0.62548938  1
  V  V51  1  0.24958704  0.24931024  0.00008773  1
  V  V52  1  0.37551825  0.24915103  0.62564528  1
  V  V53  1  0.00056777  0.12520891  0.12446749  1
  V  V54  1  0.12477127  0.87520088  0.25029229  1
  V  V55  1  0.12513064  0.74845149  0.87647471  1
  V  V56  1  0.00042037  0.25079437  0.25092007  1
  V  V57  1  0.62553213  0.12598902  0.49912086  1
  V  V58  1  0.49985356  0.12409702  0.12381087  1
  V  V59  1  0.49973343  0.87445013  0.87545916  1
  V  V60  1  0.87351705  0.25179125  0.62478076  1
  V  V61  1  0.00054245  0.62395244  0.12544517  1
  V  V62  1  0.87444774  0.49968778  0.37511985  1
  V  V63  1  0.12486400  0.37476755  0.74978930  1
  V  V64  1  0.50047543  0.00036294  0.49916758  1
  V  V65  1  0.37518476  0.37643930  0.49979368  1
  V  V66  1  0.00105416  0.87429524  0.37417155  1
  V  V67  1  0.24864956  0.12508509  0.87498551  1
  V  V68  1  0.49992875  0.12525306  0.62497827  1
  V  V69  1  0.74992831  0.87598896  0.62535253  1
  V  V70  1  0.49957805  0.87638061  0.37448323  1
  V  V71  1  0.62480699  0.50107591  0.62516417  1
  V  V72  1  0.75132968  0.24999547  -0.00011958  1
  V  V73  1  0.75046824  0.62451888  0.87605020  1
  V  V74  1  0.74909491  0.49835807  0.24902164  1
  V  V75  1  0.12500490  0.00148197  0.62471398  1
  V  V76  1  -0.00095471  -0.00073169  -0.00194327  1
  V  V77  1  0.74983394  0.37343511  0.12498716  1
  V  V78  1  0.87500162  0.24970286  0.12468391  1
  V  V79  1  0.62457749  0.25013468  0.87343182  1
  V  V80  1  0.87587231  0.75070289  0.62443588  1
  V  V81  1  0.49950698  0.75027267  0.24918019  1
  V  V82  1  -0.00091908  0.25182730  0.75048315  1
  V  V83  1  0.75021986  0.75052433  0.49945763  1
  V  V84  1  0.87467612  0.12375073  0.24956141  1
  V  V85  1  0.00028430  0.00087275  0.50029278  1
  V  V86  1  0.49979239  0.62520522  0.12533663  1
  V  V87  1  0.12632843  0.87524571  0.74933064  1
  V  V88  1  0.87307885  0.37493062  0.50073937  1
  V  V89  1  0.50067370  0.75065739  0.75121953  1
  V  V90  1  0.24992588  0.62494055  0.87575941  1
  V  V91  1  0.37359092  0.87451672  0.00010819  1
  V  V92  1  0.37463605  0.24974306  0.12512688  1
  V  V93  1  0.37400575  0.12542074  0.25050511  1
  V  V94  1  0.62448525  0.37410744  0.24927081  1
  V  V95  1  0.74910330  0.49999561  0.74954489  1
  Zn  Zn96  1  0.25076246  0.74800017  0.00047347  1
  Zn  Zn97  1  0.87495891  -0.00396417  0.87246139  1
  Zn  Zn98  1  0.49896007  0.50105376  0.49964833  1
  Zn  Zn99  1  0.50099846  0.25124067  0.74873258  1
  Zn  Zn100  1  0.62526902  0.00099238  0.12320360  1
  Zn  Zn101  1  0.62325013  0.37484186  0.74728955  1
  Zn  Zn102  1  0.12563602  0.50067372  0.12580358  1
  Zn  Zn103  1  0.62496800  0.12270962  0.00076451  1
  Zn  Zn104  1  0.12801831  0.62551416  0.00346592  1
  Zn  Zn105  1  0.12475355  0.37421514  0.25091347  1
  Zn  Zn106  1  0.12335211  0.25125905  0.37664365  1
  Zn  Zn107  1  0.87593354  0.37416009  0.00021077  1
  Zn  Zn108  1  0.00055054  0.74854833  0.25043150  1
  Zn  Zn109  1  0.37666758  0.50158655  0.37765111  1
  Zn  Zn110  1  -0.00011124  0.12708947  0.62361334  1
  Zn  Zn111  1  0.24902808  0.00126580  0.25107311  1
  Zn  Zn112  1  0.12349651  0.24978251  0.87636070  1
  Zn  Zn113  1  0.12418441  0.12647846  -0.00010153  1
  Zn  Zn114  1  0.62727979  0.87626069  0.75090627  1
  Zn  Zn115  1  0.12179786  0.12756755  0.50120170  1
  Zn  Zn116  1  0.12639019  0.62345620  0.49918841  1
  Zn  Zn117  1  0.37414830  0.75049899  0.12357266  1
  Zn  Zn118  1  0.12552550  0.49986626  0.62306475  1
  Zn  Zn119  1  0.74964358  0.12459220  0.37348043  1
  Zn  Zn120  1  0.25076242  -0.00062075  0.74868392  1
  Zn  Zn121  1  0.75027059  -0.00257577  0.75034392  1
  Zn  Zn122  1  -0.00152916  0.87408645  0.87439637  1
  Zn  Zn123  1  0.37653750  0.87648349  0.50181101  1
  Zn  Zn124  1  0.62464074  0.49825630  0.12488253  1
  Zn  Zn125  1  0.25401830  0.87716816  0.62495546  1
  Zn  Zn126  1  0.74696346  0.37578216  0.62505021  1
  Zn  Zn127  1  0.87544337  0.62635303  0.75060640  1
  Zn  Zn128  1  0.18509453  0.18837121  0.18863505  1
  Zn  Zn129  1  0.18710563  0.18794207  0.68921068  1
  Zn  Zn130  1  0.18582549  0.68822074  0.18862086  1
  Zn  Zn131  1  0.18758504  0.68663569  0.68733944  1
  Zn  Zn132  1  0.68641619  0.18577057  0.18697907  1
  Zn  Zn133  1  0.68822131  0.18667640  0.68691680  1
  Zn  Zn134  1  0.68652885  0.68659568  0.18690323  1
  Zn  Zn135  1  0.68749661  0.68803878  0.68849922  1
  Zn  Zn136  1  0.31256774  0.31280376  0.31410725  1
  Zn  Zn137  1  0.31314503  0.31052750  0.81163456  1
  Zn  Zn138  1  0.31322413  0.81380347  0.31200670  1
  Zn  Zn139  1  0.31159315  0.81227297  0.81213203  1
  Zn  Zn140  1  0.81266471  0.31117497  0.31263704  1
  Zn  Zn141  1  0.81286320  0.31437246  0.81267817  1
  Zn  Zn142  1  0.81341937  0.81232141  0.31161837  1
  Zn  Zn143  1  0.81307102  0.81222506  0.81189677  1
  Zn  Zn144  1  0.18538858  0.43788350  0.43706182  1
  Zn  Zn145  1  0.18651735  0.43640204  0.93679066  1
  Zn  Zn146  1  0.18816756  0.93770912  0.43886036  1
  Zn  Zn147  1  0.18663615  0.93783534  0.93821875  1
  Zn  Zn148  1  0.68540367  0.43712916  0.43790467  1
  Zn  Zn149  1  0.68735407  0.43596688  0.93811542  1
  Zn  Zn150  1  0.68771484  0.93843297  0.43674888  1
  Zn  Zn151  1  0.68646039  0.93740498  0.93862967  1
  Zn  Zn152  1  0.31295473  0.06128910  0.06142360  1
  Zn  Zn153  1  0.31156739  0.06267520  0.56173629  1
  Zn  Zn154  1  0.31353781  0.56323997  0.06327130  1
  Zn  Zn155  1  0.31385529  0.56252348  0.56311076  1
  Zn  Zn156  1  0.81364680  0.06180676  0.06202046  1
  Zn  Zn157  1  0.81163950  0.06359721  0.56191529  1
  Zn  Zn158  1  0.81381716  0.56017929  0.06304676  1
  Zn  Zn159  1  0.81285041  0.56351052  0.56299249  1
  Zn  Zn160  1  0.43589872  0.43883853  0.18791638  1
  Zn  Zn161  1  0.43868620  0.43663893  0.68778064  1
  Zn  Zn162  1  0.43620799  0.93962907  0.18814707  1
  Zn  Zn163  1  0.43909882  0.93718021  0.68791818  1
  Zn  Zn164  1  0.93661382  0.43633199  0.18739524  1
  Zn  Zn165  1  0.93541108  0.43808198  0.68724164  1
  Zn  Zn166  1  0.93790243  0.93622222  0.18692032  1
  Zn  Zn167  1  0.93892249  0.93787378  0.68682510  1
  Zn  Zn168  1  0.06294424  0.06228342  0.31153875  1
  Zn  Zn169  1  0.06205025  0.06300097  0.81234040  1
  Zn  Zn170  1  0.06415136  0.56334680  0.31375462  1
  Zn  Zn171  1  0.06353977  0.56210368  0.81094345  1
  Zn  Zn172  1  0.56326317  0.06278573  0.31096918  1
  Zn  Zn173  1  0.56283684  0.06122850  0.81050354  1
  Zn  Zn174  1  0.56231570  0.56094355  0.31235981  1
  Zn  Zn175  1  0.56305420  0.56275343  0.81328949  1
  Zn  Zn176  1  0.43639546  0.18864269  0.43855981  1
  Zn  Zn177  1  0.43703428  0.18682992  0.93771144  1
  Zn  Zn178  1  0.43726286  0.68804450  0.43721076  1
  Zn  Zn179  1  0.43625527  0.68806734  0.93916047  1
  Zn  Zn180  1  0.93614428  0.18655623  0.43720886  1
  Zn  Zn181  1  0.93695835  0.18752292  0.93708954  1
  Zn  Zn182  1  0.93814277  0.68793887  0.43717540  1
  Zn  Zn183  1  0.93858373  0.68569470  0.93751187  1
  Zn  Zn184  1  0.06564115  0.31387464  0.06348782  1
  Zn  Zn185  1  0.06188394  0.31294493  0.56316563  1
  Zn  Zn186  1  0.06204626  0.81213995  0.06307044  1
  Zn  Zn187  1  0.06436258  0.81327338  0.56168365  1
  Zn  Zn188  1  0.56376286  0.31043085  0.06111492  1
  Zn  Zn189  1  0.56205858  0.31416146  0.56211483  1
  Zn  Zn190  1  0.56219717  0.81243437  0.06265662  1
  Zn  Zn191  1  0.56300937  0.81370731  0.56243176  1
  O  O192  1  0.11852681  0.11774892  0.12334974  1
  O  O193  1  0.12232891  0.11313798  0.62636006  1
  O  O194  1  0.11670083  0.62280330  0.12345569  1
  O  O195  1  0.11225029  0.62432841  0.62311954  1
  O  O196  1  0.61575389  0.12310552  0.12187445  1
  O  O197  1  0.61996728  0.12025117  0.61867770  1
  O  O198  1  0.61839081  0.62262837  0.11847381  1
  O  O199  1  0.62003486  0.62199261  0.61964010  1
  O  O200  1  0.38125915  0.37524969  0.38225582  1
  O  O201  1  0.37990074  0.37956883  0.88055482  1
  O  O202  1  0.38230352  0.88270851  0.37569864  1
  O  O203  1  0.37927433  0.88023402  0.87945892  1
  O  O204  1  0.87940283  0.38098710  0.38060512  1
  O  O205  1  0.88201214  0.38275283  0.87688744  1
  O  O206  1  0.88076725  0.87962147  0.37990924  1
  O  O207  1  0.87799488  0.87598193  0.88294250  1
  O  O208  1  0.25573803  0.00995601  0.37581750  1
  O  O209  1  0.25542012  0.00922297  0.87468761  1
  O  O210  1  0.25204443  0.50657086  0.36678262  1
  O  O211  1  0.25632719  0.50441681  0.86959651  1
  O  O212  1  0.75763118  -0.00011795  0.36729367  1
  O  O213  1  0.75185269  0.01153050  0.87426840  1
  O  O214  1  0.75468497  0.50516126  0.36938649  1
  O  O215  1  0.75403754  0.50503352  0.86880391  1
  O  O216  1  0.25105318  0.49495188  0.13452282  1
  O  O217  1  0.24966246  0.49371731  0.63229142  1
  O  O218  1  0.24398722  0.99053222  0.12521050  1
  O  O219  1  0.23896297  0.99793013  0.62650650  1
  O  O220  1  0.74891091  0.49244010  0.13143048  1
  O  O221  1  0.74477055  0.50266411  0.63465492  1
  O  O222  1  0.74993688  0.99215996  0.13033113  1
  O  O223  1  0.74451266  0.99346970  0.62431749  1
  O  O224  1  -0.00113131  0.36908602  0.25702478  1
  O  O225  1  0.00416521  0.37173094  0.75499979  1
  O  O226  1  0.00618788  0.87270638  0.25627290  1
  O  O227  1  0.01048862  0.86878684  0.75090478  1
  O  O228  1  0.50390544  0.36902903  0.25415685  1
  O  O229  1  0.50250951  0.37199349  0.75907700  1
  O  O230  1  0.50547993  0.87056326  0.25477802  1
  O  O231  1  0.50186867  0.86784721  0.75816770  1
  O  O232  1  0.49375441  0.13152564  0.24492004  1
  O  O233  1  0.49367123  0.12679333  0.74279310  1
  O  O234  1  0.49594761  0.63043553  0.24547656  1
  O  O235  1  0.49442469  0.63081082  0.74631445  1
  O  O236  1  0.99395427  0.12931096  0.24384541  1
  O  O237  1  0.98889889  0.13167560  0.75132294  1
  O  O238  1  0.99262939  0.62449993  0.24390097  1
  O  O239  1  0.99887390  0.63002346  0.73960296  1
  O  O240  1  0.36984813  0.25559765  0.00574013  1
  O  O241  1  0.36850979  0.25575943  0.50682932  1
  O  O242  1  0.37150144  0.75894101  0.00231757  1
  O  O243  1  0.36697147  0.75108337  0.50602780  1
  O  O244  1  0.86935698  0.25111935  0.00702171  1
  O  O245  1  0.86904862  0.25516568  0.50506835  1
  O  O246  1  0.86968065  0.75348994  0.00554352  1
  O  O247  1  0.86946835  0.75632108  0.50397529  1
  O  O248  1  0.13260562  0.24717262  0.49916995  1
  O  O249  1  0.13366284  0.24683155  0.99715528  1
  O  O250  1  0.13590465  0.74952580  0.49492370  1
  O  O251  1  0.12549122  0.74964273  0.98663038  1
  O  O252  1  0.62940345  0.24505854  0.49448826  1
  O  O253  1  0.63143672  0.24639605  0.98825500  1
  O  O254  1  0.63113697  0.74515000  0.49389845  1
  O  O255  1  0.63092391  0.74363624  0.99512297  1
  O  O256  1  0.49350478  0.24514408  0.12989514  1
  O  O257  1  0.49398627  0.24281485  0.62524011  1
  O  O258  1  0.49882194  0.74373987  0.13192391  1
  O  O259  1  0.49594073  0.74478143  0.63105032  1
  O  O260  1  0.99464137  0.24500683  0.12956492  1
  O  O261  1  0.99145909  0.24893080  0.63222393  1
  O  O262  1  0.99313996  0.74224070  0.12596936  1
  O  O263  1  0.99575892  0.74332279  0.62778147  1
  O  O264  1  -0.00183822  0.25626700  0.36890900  1
  O  O265  1  -0.00010951  0.25717266  0.86894418  1
  O  O266  1  0.00696616  0.75681316  0.37494957  1
  O  O267  1  0.00983355  0.74892985  0.86809990  1
  O  O268  1  0.50465809  0.25513701  0.36897874  1
  O  O269  1  0.50950012  0.25368481  0.87524462  1
  O  O270  1  0.50623306  0.75566883  0.36923667  1
  O  O271  1  0.50467742  0.75450201  0.87095402  1
  O  O272  1  0.24961335  0.13136599  0.49074510  1
  O  O273  1  0.25087755  0.12993652  0.99031257  1
  O  O274  1  0.25040886  0.63548255  0.49508445  1
  O  O275  1  0.24795599  0.62681262  0.99220379  1
  O  O276  1  0.74337918  0.13207129  0.49685765  1
  O  O277  1  0.75106991  0.13054113  0.98956745  1
  O  O278  1  0.74511506  0.63106008  0.49385687  1
  O  O279  1  0.74515012  0.62904370  0.99594848  1
  O  O280  1  0.25645465  0.37036207  0.00487388  1
  O  O281  1  0.25478533  0.37011993  0.50575978  1
  O  O282  1  0.25456156  0.87501980  0.00909210  1
  O  O283  1  0.25319112  0.86251111  0.50133002  1
  O  O284  1  0.75225251  0.36800631  0.00625339  1
  O  O285  1  0.75573773  0.36893076  0.50053764  1
  O  O286  1  0.75533054  0.86812368  0.00522037  1
  O  O287  1  0.75605440  0.86928518  0.50408020  1
  O  O288  1  0.13933161  0.49976060  0.24974997  1
  O  O289  1  0.13240767  0.49292794  0.74800044  1
  O  O290  1  0.12625405  0.99299782  0.24258798  1
  O  O291  1  0.12379605  0.99119178  0.74258398  1
  O  O292  1  0.63180170  0.49216934  0.24845911  1
  O  O293  1  0.63451689  0.50141189  0.74546807  1
  O  O294  1  0.63163372  0.99297281  0.24798678  1
  O  O295  1  0.62845662  0.99753434  0.74080412  1
  O  O296  1  0.37291844  0.00841195  0.25767816  1
  O  O297  1  0.37332915  0.00607108  0.75617041  1
  O  O298  1  0.36467107  0.50704809  0.25207150  1
  O  O299  1  0.36998938  0.50524430  0.75612924  1
  O  O300  1  0.87043528  0.00382549  0.25428228  1
  O  O301  1  0.87463549  0.01150033  0.75129100  1
  O  O302  1  0.86851636  0.50492166  0.25612897  1
  O  O303  1  0.86511213  0.50309768  0.75539573  1
  O  O304  1  0.11515033  0.37260051  0.37260555  1
  O  O305  1  0.11824325  0.37318425  0.86730996  1
  O  O306  1  0.12058807  0.87126673  0.37020512  1
  O  O307  1  0.12421717  0.86630948  0.86604248  1
  O  O308  1  0.61880632  0.36854791  0.36904255  1
  O  O309  1  0.61995881  0.36486207  0.87459860  1
  O  O310  1  0.62003103  0.86945019  0.36879893  1
  O  O311  1  0.61817682  0.86737352  0.87532659  1
  O  O312  1  0.37885051  0.13052049  0.13057357  1
  O  O313  1  0.37992998  0.12930162  0.62956212  1
  O  O314  1  0.38175768  0.62803934  0.13189594  1
  O  O315  1  0.38146649  0.63064431  0.63200435  1
  O  O316  1  0.88103473  0.12991562  0.13033489  1
  O  O317  1  0.87417107  0.13155266  0.63549538  1
  O  O318  1  0.88002193  0.62904133  0.13075434  1
  O  O319  1  0.88539649  0.63231147  0.62467132  1
  O  O320  1  0.25620706  0.25445235  0.12063586  1
  O  O321  1  0.25576548  0.25488257  0.62063163  1
  O  O322  1  0.24949684  0.76347022  0.12350632  1
  O  O323  1  0.25590217  0.74935276  0.61666586  1
  O  O324  1  0.75506937  0.25322649  0.11966079  1
  O  O325  1  0.75524397  0.25244952  0.61832007  1
  O  O326  1  0.75550195  0.75378781  0.11924939  1
  O  O327  1  0.75576117  0.75445617  0.61853885  1
  O  O328  1  0.25017055  0.24064040  0.38118185  1
  O  O329  1  0.25118255  0.23999597  0.88099908  1
  O  O330  1  0.24660877  0.74632236  0.38290218  1
  O  O331  1  0.24015805  0.74400021  0.87405201  1
  O  O332  1  0.74263290  0.24832184  0.38080254  1
  O  O333  1  0.74409520  0.24328067  0.87901507  1
  O  O334  1  0.74500689  0.74467406  0.37964500  1
  O  O335  1  0.74512232  0.74405200  0.88119963  1
  O  O336  1  -0.00042365  0.11567579  0.00562738  1
  O  O337  1  0.00117294  0.11662088  0.50270421  1
  O  O338  1  0.00113091  0.61530712  0.00662196  1
  O  O339  1  0.00015945  0.62017833  0.50826160  1
  O  O340  1  0.49881782  0.11827237  0.00615431  1
  O  O341  1  0.50559429  0.12013097  0.50504964  1
  O  O342  1  0.50435944  0.61927111  0.00481975  1
  O  O343  1  0.50710386  0.62572973  0.50696179  1
  O  O344  1  0.49308690  0.37634388  0.49343617  1
  O  O345  1  0.49432138  0.37942734  0.99491968  1
  O  O346  1  0.50042188  0.88187313  0.49177544  1
  O  O347  1  0.49371759  0.87979703  0.99466217  1
  O  O348  1  0.99213910  0.38076089  0.49529212  1
  O  O349  1  0.99939419  0.38463295  0.99475751  1
  O  O350  1  0.99454675  0.88038242  0.49440060  1
  O  O351  1  0.99455269  0.88389954  1.00005578  1
  O  O352  1  0.49802037  0.49175703  0.37721273  1
  O  O353  1  0.49438359  0.49482309  0.88083589  1
  O  O354  1  0.49560553  0.99614026  0.37954266  1
  O  O355  1  0.49412409  0.99459460  0.87992291  1
  O  O356  1  0.99285044  0.49581448  0.37978669  1
  O  O357  1  0.99527703  0.49688232  0.88150422  1
  O  O358  1  0.99502250  0.99361086  0.37996281  1
  O  O359  1  0.99892031  0.99866310  0.88687057  1
  O  O360  1  0.00385747  0.00457206  0.11671376  1
  O  O361  1  0.00922361  0.00120932  0.61891945  1
  O  O362  1  -0.00045179  0.50469296  0.11639530  1
  O  O363  1  -0.00160186  0.50954468  0.61933475  1
  O  O364  1  0.49958172  0.00638258  0.11853715  1
  O  O365  1  0.50606025  0.00561280  0.61857010  1
  O  O366  1  0.50082080  0.50615409  0.11831872  1
  O  O367  1  0.50655934  0.50837292  0.62560753  1
  O  O368  1  0.25225065  0.38452346  0.24545578  1
  O  O369  1  0.24590079  0.37930139  0.74540304  1
  O  O370  1  0.24466948  0.87813875  0.24114257  1
  O  O371  1  0.23781844  0.87643960  0.74796572  1
  O  O372  1  0.74433733  0.37871067  0.24513389  1
  O  O373  1  0.74773111  0.38923523  0.74958662  1
  O  O374  1  0.74551871  0.87928050  0.24428550  1
  O  O375  1  0.74884535  0.87679618  0.74145173  1
  O  O376  1  0.25553743  0.12509557  0.25987520  1
  O  O377  1  0.25630126  0.12373646  0.76006209  1
  O  O378  1  0.25564586  0.61914855  0.25426035  1
  O  O379  1  0.25630123  0.61920549  0.75502552  1
  O  O380  1  0.75694142  0.11796181  0.25010175  1
  O  O381  1  0.75937981  0.12531757  0.75859566  1
  O  O382  1  0.75440756  0.61893834  0.25538735  1
  O  O383  1  0.75112401  0.61615136  0.75667168  1
  O  O384  1  0.36707868  0.12144314  0.37059429  1
  O  O385  1  0.36760619  0.11977300  0.86995777  1
  O  O386  1  0.36881518  0.62491773  0.36793411  1
  O  O387  1  0.37052995  0.61908268  0.86966895  1
  O  O388  1  0.87354234  0.11690035  0.36709896  1
  O  O389  1  0.86562435  0.12611692  0.86581005  1
  O  O390  1  0.86879516  0.61982457  0.37041111  1
  O  O391  1  0.86789926  0.61880485  0.87347771  1
  O  O392  1  0.13445227  0.37945021  0.12946532  1
  O  O393  1  0.13203920  0.37671762  0.63207743  1
  O  O394  1  0.13178215  0.87952849  0.12969423  1
  O  O395  1  0.12599173  0.88308010  0.63377557  1
  O  O396  1  0.63126625  0.37403859  0.13158648  1
  O  O397  1  0.62719023  0.38380996  0.62745508  1
  O  O398  1  0.63239028  0.87510517  0.13128951  1
  O  O399  1  0.63231367  0.88116223  0.62487377  1
  O  O400  1  0.11538015  0.25228602  0.25367107  1
  O  O401  1  0.11718634  0.25660038  0.75175315  1
  O  O402  1  0.12357230  0.75764358  0.25832573  1
  O  O403  1  0.12076334  0.75729143  0.75575431  1
  O  O404  1  0.61873802  0.25468140  0.25521759  1
  O  O405  1  0.62568508  0.25143780  0.76221323  1
  O  O406  1  0.62040785  0.75550115  0.25584693  1
  O  O407  1  0.61836317  0.75047347  0.75804492  1
  O  O408  1  0.38025843  0.24520228  0.24438120  1
  O  O409  1  0.37694317  0.24250518  0.74287549  1
  O  O410  1  0.38228037  0.74479639  0.24828129  1
  O  O411  1  0.38048654  0.74390728  0.74601862  1
  O  O412  1  0.88010222  0.24335672  0.24419219  1
  O  O413  1  0.87845463  0.24369465  0.74522394  1
  O  O414  1  0.87594133  0.74222048  0.24399863  1
  O  O415  1  0.88214584  0.74854020  0.74217346  1
  O  O416  1  0.37741644  0.49221868  0.49847418  1
  O  O417  1  0.38034517  0.49381812  0.99396542  1
  O  O418  1  0.38285957  0.99963478  0.49394507  1
  O  O419  1  0.38059763  0.99371675  0.99318047  1
  O  O420  1  0.87865892  0.49533936  0.49384949  1
  O  O421  1  0.88606810  0.49850753  0.99404250  1
  O  O422  1  0.87995109  0.99423217  0.49459543  1
  O  O423  1  0.88512411  0.99336772  0.99978698  1
  O  O424  1  0.11404342  0.00051875  0.00590600  1
  O  O425  1  0.11913525  -0.00036245  0.51017268  1
  O  O426  1  0.11282520  0.50233567  -0.00045200  1
  O  O427  1  0.11580212  0.50348576  0.50292386  1
  O  O428  1  0.61592012  0.00242316  0.00197736  1
  O  O429  1  0.62000355  0.00646565  0.50408963  1
  O  O430  1  0.61817136  0.50568920  0.00094156  1
  O  O431  1  0.62460949  0.50847885  0.50661118  1
  O  O432  1  0.37013728  0.36887645  0.11912364  1
  O  O433  1  0.36939813  0.36898554  0.62068796  1
  O  O434  1  0.36513438  0.87603535  0.12031572  1
  O  O435  1  0.37374642  0.86694513  0.62335667  1
  O  O436  1  0.86747346  0.36677386  0.12445500  1
  O  O437  1  0.87130269  0.36962333  0.61830382  1
  O  O438  1  0.86953681  0.86769833  0.11986226  1
  O  O439  1  0.87105030  0.87005910  0.61821800  1
  O  O440  1  0.13666679  0.12524930  0.37687815  1
  O  O441  1  0.13714492  0.12598555  0.87566522  1
  O  O442  1  0.13271396  0.63329248  0.37686336  1
  O  O443  1  0.13090643  0.63492696  0.87294428  1
  O  O444  1  0.62556197  0.13173437  0.38089048  1
  O  O445  1  0.63460387  0.13282891  0.87416432  1
  O  O446  1  0.63050458  0.63103595  0.37970679  1
  O  O447  1  0.63017741  0.63059445  0.88237723  1
