# generated using pymatgen
data_V3Zn3O8
_symmetry_space_group_name_H-M   'P 1'
_cell_length_a   17.08359287
_cell_length_b   17.08349809
_cell_length_c   17.08342729
_cell_angle_alpha   89.99957769
_cell_angle_beta   89.98920874
_cell_angle_gamma   89.99975152
_symmetry_Int_Tables_number   1
_chemical_formula_structural   V3Zn3O8
_chemical_formula_sum   'V96 Zn96 O256'
_cell_volume   4985.75590513
_cell_formula_units_Z   32
loop_
 _symmetry_equiv_pos_site_id
 _symmetry_equiv_pos_as_xyz
  1  'x, y, z'
loop_
 _atom_site_type_symbol
 _atom_site_label
 _atom_site_symmetry_multiplicity
 _atom_site_fract_x
 _atom_site_fract_y
 _atom_site_fract_z
 _atom_site_occupancy
  V  V0  1  0.74857000  0.62604735  0.87605320  1
  V  V1  1  0.75050119  0.37470949  0.12496440  1
  V  V2  1  0.37318356  0.74926585  0.62411567  1
  V  V3  1  0.12628912  0.25109054  0.87480329  1
  V  V4  1  0.12540891  0.37513172  0.74996385  1
  V  V5  1  0.12379262  0.87489290  0.75304638  1
  V  V6  1  0.75169388  0.00048476  0.75244530  1
  V  V7  1  0.50105752  0.12509849  0.12371941  1
  V  V8  1  0.37469942  0.87459779  0.00039669  1
  V  V9  1  0.37639119  0.37558185  -0.00102922  1
  V  V10  1  0.50008379  0.49909025  0.49996122  1
  V  V11  1  0.62297329  0.87254214  0.74949824  1
  V  V12  1  0.74887888  0.87493549  0.12489050  1
  V  V13  1  -0.00021666  0.62652409  0.12551486  1
  V  V14  1  0.87479016  0.87448582  0.49909492  1
  V  V15  1  0.25131605  0.37652033  0.12508773  1
  V  V16  1  0.87454320  0.12406103  0.25055352  1
  V  V17  1  0.37548887  0.00027285  0.37607786  1
  V  V18  1  0.12432831  -0.00096499  0.62461610  1
  V  V19  1  0.87454049  0.62565337  0.75059274  1
  V  V20  1  0.87637792  0.37440197  0.00027975  1
  V  V21  1  0.50102424  0.62520132  0.12494795  1
  V  V22  1  0.50108500  0.37474624  0.37357560  1
  V  V23  1  0.74917029  0.87387107  0.62500762  1
  V  V24  1  -0.00004000  0.62404100  0.62589871  1
  V  V25  1  0.25043988  0.50104443  0.25041399  1
  V  V26  1  0.62483286  -0.00038620  0.12488729  1
  V  V27  1  0.24975776  0.62542684  0.37474394  1
  V  V28  1  0.87361409  0.75003152  0.12564435  1
  V  V29  1  0.37502596  0.12674565  0.24997899  1
  V  V30  1  0.87438060  0.74936591  0.62511738  1
  V  V31  1  0.50076064  0.37497204  0.87355629  1
  V  V32  1  0.49769186  0.62451950  0.62463657  1
  V  V33  1  0.62584410  0.37465752  0.24898190  1
  V  V34  1  0.87573546  0.37479746  0.50008316  1
  V  V35  1  0.25153290  0.25114380  -0.00040840  1
  V  V36  1  0.37438877  0.87628497  0.49851081  1
  V  V37  1  0.74997783  0.24869743  0.49961207  1
  V  V38  1  0.37518296  0.24990655  0.62404822  1
  V  V39  1  0.75048677  0.24891732  -0.00142464  1
  V  V40  1  0.62505970  0.62419011  0.49928824  1
  V  V41  1  0.50121618  0.24962068  0.74937655  1
  V  V42  1  0.37487213  0.37439031  0.50004600  1
  V  V43  1  0.62254191  0.75056605  0.37349831  1
  V  V44  1  0.87668945  0.24857457  0.62677251  1
  V  V45  1  0.37521421  0.12379890  0.74940426  1
  V  V46  1  0.74934875  0.49891590  0.74937125  1
  V  V47  1  0.62493395  0.49928486  0.62488896  1
  V  V48  1  0.37546252  0.00025229  0.87440226  1
  V  V49  1  0.24990209  0.00209197  0.25072710  1
  V  V50  1  0.37498138  0.50015065  0.37508162  1
  V  V51  1  -0.00024133  0.00036855  -0.00100319  1
  V  V52  1  0.25154224  0.87597883  0.12520682  1
  V  V53  1  0.49996670  0.12390654  0.62341058  1
  V  V54  1  0.62534761  0.12477962  0.49999155  1
  V  V55  1  0.00047738  0.24882442  0.75001997  1
  V  V56  1  0.25230646  0.12601528  0.87464114  1
  V  V57  1  0.25019960  0.25064905  0.50063692  1
  V  V58  1  0.12576014  0.50150368  0.12602128  1
  V  V59  1  0.87542558  0.25003845  0.12517157  1
  V  V60  1  0.12418609  0.12406615  0.50083275  1
  V  V61  1  0.24838487  0.74929947  0.49959064  1
  V  V62  1  0.74930633  -0.00033842  0.24873128  1
  V  V63  1  -0.00032560  0.75080871  0.75262579  1
  V  V64  1  0.12634969  0.12678829  0.00128564  1
  V  V65  1  0.50123614  0.25157614  0.24918351  1
  V  V66  1  0.62410515  -0.00077596  0.62374827  1
  V  V67  1  -0.00000167  0.49958529  0.00065056  1
  V  V68  1  0.37650955  0.25101215  0.12430668  1
  V  V69  1  -0.00071319  -0.00123352  0.49962301  1
  V  V70  1  0.24825066  0.87399672  0.62516937  1
  V  V71  1  0.12485490  0.25046677  0.37626021  1
  V  V72  1  0.00171154  0.12627416  0.12535956  1
  V  V73  1  0.24939089  0.49980547  0.75012933  1
  V  V74  1  0.12303984  0.74954761  0.37475517  1
  V  V75  1  0.24991803  0.12642094  0.37502412  1
  V  V76  1  0.62685586  0.24770900  0.87437924  1
  V  V77  1  0.00075907  0.37494067  0.87642957  1
  V  V78  1  0.50033873  -0.00005493  0.00009291  1
  V  V79  1  0.12556358  0.62630597  0.00089840  1
  V  V80  1  0.37516294  0.50028656  0.87350759  1
  V  V81  1  0.74890315  0.75022972  -0.00036488  1
  V  V82  1  0.12551954  0.37593881  0.25119732  1
  V  V83  1  0.87517207  0.49988657  0.37557717  1
  V  V84  1  -0.00007315  0.25003656  0.25092134  1
  V  V85  1  0.74913831  0.74848846  0.49997437  1
  V  V86  1  0.87447654  0.62484750  0.25033758  1
  V  V87  1  0.24886747  0.62665262  0.87651394  1
  V  V88  1  0.50151319  0.50113869  -0.00118615  1
  V  V89  1  0.49847760  0.75018445  0.74830579  1
  V  V90  1  -0.00025832  0.37588579  0.37612117  1
  V  V91  1  0.37667110  0.62609936  0.24960778  1
  V  V92  1  0.75087012  0.49846785  0.24971647  1
  V  V93  1  0.12396676  0.87582677  0.25060716  1
  V  V94  1  0.87361178  -0.00096258  0.37471601  1
  V  V95  1  0.12368721  0.50057683  0.62541131  1
  Zn  Zn96  1  0.61984751  0.74981724  0.87550075  1
  Zn  Zn97  1  0.62576331  0.37400648  0.74801553  1
  Zn  Zn98  1  0.12320965  0.75211447  0.87912793  1
  Zn  Zn99  1  0.74996868  0.62355332  0.37444058  1
  Zn  Zn100  1  0.87563187  0.87759094  -0.00169868  1
  Zn  Zn101  1  -0.00258333  0.87346024  0.37353980  1
  Zn  Zn102  1  0.24987686  0.37568128  0.62497573  1
  Zn  Zn103  1  0.62693099  0.49974929  0.12287393  1
  Zn  Zn104  1  0.12515670  0.00244739  0.12591169  1
  Zn  Zn105  1  0.50066021  -0.00075009  0.49731953  1
  Zn  Zn106  1  0.49903878  0.87636792  0.37347232  1
  Zn  Zn107  1  0.62582893  0.24867108  0.37423329  1
  Zn  Zn108  1  0.62127206  0.87577655  0.25096989  1
  Zn  Zn109  1  0.87790578  0.12254349  0.75181936  1
  Zn  Zn110  1  0.00087024  0.12323377  0.62683849  1
  Zn  Zn111  1  0.62463980  0.62365818  0.00057047  1
  Zn  Zn112  1  -0.00031378  0.50132197  0.50073513  1
  Zn  Zn113  1  0.49886289  0.87298724  0.87396459  1
  Zn  Zn114  1  -0.00319399  0.75123490  0.24968631  1
  Zn  Zn115  1  0.37357432  0.62518492  0.74921160  1
  Zn  Zn116  1  0.62758158  0.12210943  -0.00165884  1
  Zn  Zn117  1  0.87696803  0.00065888  0.87448222  1
  Zn  Zn118  1  0.87515497  0.49910952  0.87568528  1
  Zn  Zn119  1  0.74910360  0.37460856  0.62563980  1
  Zn  Zn120  1  0.24886601  0.75129754  0.00104539  1
  Zn  Zn121  1  0.25021874  -0.00043448  0.74983678  1
  Zn  Zn122  1  0.37652899  0.75068114  0.12680049  1
  Zn  Zn123  1  -0.00137453  0.87443140  0.87843876  1
  Zn  Zn124  1  0.74780091  0.12380883  0.37348141  1
  Zn  Zn125  1  0.75339394  0.12332371  0.87542019  1
  Zn  Zn126  1  0.12288147  0.62344669  0.50014580  1
  Zn  Zn127  1  0.49941908  0.75278888  0.24936179  1
  Zn  Zn128  1  0.18792639  0.19003832  0.18744188  1
  Zn  Zn129  1  0.18848489  0.18671488  0.68695845  1
  Zn  Zn130  1  0.18905544  0.68982993  0.18785316  1
  Zn  Zn131  1  0.18568812  0.68738941  0.68961477  1
  Zn  Zn132  1  0.68712969  0.18644419  0.18579298  1
  Zn  Zn133  1  0.68828990  0.18511641  0.68664315  1
  Zn  Zn134  1  0.68685176  0.68565785  0.18842816  1
  Zn  Zn135  1  0.68505895  0.68656556  0.68691942  1
  Zn  Zn136  1  0.31340836  0.31309019  0.31287236  1
  Zn  Zn137  1  0.31360819  0.31293083  0.81046265  1
  Zn  Zn138  1  0.31328132  0.81182910  0.31232645  1
  Zn  Zn139  1  0.31177723  0.81151316  0.81251323  1
  Zn  Zn140  1  0.81268486  0.31244078  0.31376178  1
  Zn  Zn141  1  0.81374900  0.31327720  0.81309042  1
  Zn  Zn142  1  0.80818848  0.81278338  0.31212310  1
  Zn  Zn143  1  0.81485834  0.81617739  0.81568331  1
  Zn  Zn144  1  0.18709506  0.43822825  0.43970225  1
  Zn  Zn145  1  0.18731155  0.43949040  0.93784003  1
  Zn  Zn146  1  0.18822173  0.93734462  0.43740718  1
  Zn  Zn147  1  0.18697037  0.94181134  0.93742062  1
  Zn  Zn148  1  0.68874664  0.43521479  0.43655699  1
  Zn  Zn149  1  0.68657158  0.43627896  0.93723541  1
  Zn  Zn150  1  0.68780326  0.93667546  0.43651619  1
  Zn  Zn151  1  0.68450472  0.93352966  0.93599503  1
  Zn  Zn152  1  0.31340905  0.06185014  0.06290366  1
  Zn  Zn153  1  0.31100932  0.06136219  0.56263316  1
  Zn  Zn154  1  0.31514730  0.56290353  0.06165554  1
  Zn  Zn155  1  0.31020355  0.56266797  0.56196574  1
  Zn  Zn156  1  0.81266785  0.06377337  0.06206527  1
  Zn  Zn157  1  0.81244943  0.06265535  0.56423108  1
  Zn  Zn158  1  0.81383857  0.56169525  0.06324173  1
  Zn  Zn159  1  0.81237875  0.56272269  0.56211121  1
  Zn  Zn160  1  0.43880876  0.43988710  0.18681358  1
  Zn  Zn161  1  0.43714366  0.43670011  0.68786567  1
  Zn  Zn162  1  0.43967808  0.93856895  0.19046102  1
  Zn  Zn163  1  0.43720667  0.93712270  0.68529659  1
  Zn  Zn164  1  0.93764284  0.43820810  0.18802965  1
  Zn  Zn165  1  0.93711184  0.43637435  0.68842914  1
  Zn  Zn166  1  0.93667707  0.93793276  0.18415231  1
  Zn  Zn167  1  0.93778684  0.93608210  0.68628992  1
  Zn  Zn168  1  0.06073568  0.06159408  0.31501814  1
  Zn  Zn169  1  0.06421171  0.06402425  0.81292846  1
  Zn  Zn170  1  0.06016540  0.56341078  0.31214642  1
  Zn  Zn171  1  0.06251195  0.56229195  0.81335499  1
  Zn  Zn172  1  0.56283818  0.06336329  0.31301813  1
  Zn  Zn173  1  0.56249458  0.06066112  0.81165513  1
  Zn  Zn174  1  0.56437622  0.56215801  0.31113384  1
  Zn  Zn175  1  0.56303647  0.56465217  0.81086458  1
  Zn  Zn176  1  0.43912100  0.18778318  0.43690666  1
  Zn  Zn177  1  0.43976836  0.18671361  0.93685162  1
  Zn  Zn178  1  0.43730726  0.68806391  0.43820264  1
  Zn  Zn179  1  0.43556551  0.68847677  0.93775596  1
  Zn  Zn180  1  0.93714165  0.18457804  0.43779491  1
  Zn  Zn181  1  0.93630630  0.18458666  0.93497191  1
  Zn  Zn182  1  0.93838879  0.68566573  0.43808199  1
  Zn  Zn183  1  0.93611505  0.68772990  0.93776074  1
  Zn  Zn184  1  0.06374868  0.31294376  0.06347262  1
  Zn  Zn185  1  0.06177063  0.31381721  0.56338061  1
  Zn  Zn186  1  0.06300439  0.81248257  0.06369188  1
  Zn  Zn187  1  0.06052081  0.81222253  0.56333954  1
  Zn  Zn188  1  0.56482694  0.31300932  0.06067297  1
  Zn  Zn189  1  0.56379710  0.31319579  0.56327129  1
  Zn  Zn190  1  0.56313552  0.81191205  0.06331544  1
  Zn  Zn191  1  0.56016497  0.81324535  0.56048056  1
  O  O192  1  0.12005496  0.12700418  0.11952174  1
  O  O193  1  0.12528306  0.11784251  0.61787356  1
  O  O194  1  0.12124826  0.62025055  0.12165926  1
  O  O195  1  0.11821636  0.61751310  0.62619961  1
  O  O196  1  0.61798261  0.11845100  0.12205608  1
  O  O197  1  0.61931364  0.11933630  0.61929382  1
  O  O198  1  0.61379617  0.62120238  0.12347754  1
  O  O199  1  0.61774922  0.61897585  0.61830617  1
  O  O200  1  0.38070863  0.38100882  0.37972452  1
  O  O201  1  0.38072776  0.37979333  0.88003251  1
  O  O202  1  0.37179748  0.88244020  0.38141374  1
  O  O203  1  0.37266076  0.88101649  0.88529966  1
  O  O204  1  0.88133323  0.37943040  0.37996470  1
  O  O205  1  0.88309833  0.37578403  0.88252338  1
  O  O206  1  0.87480016  0.88018240  0.38120970  1
  O  O207  1  0.88075116  0.88209654  0.88056474  1
  O  O208  1  0.25467632  0.00785593  0.36994678  1
  O  O209  1  0.25740651  0.00903324  0.87368492  1
  O  O210  1  0.25483223  0.50509402  0.36966628  1
  O  O211  1  0.25466824  0.50733443  0.87078033  1
  O  O212  1  0.75637202  0.00098563  0.36757783  1
  O  O213  1  0.74740097  -0.00111099  0.86247935  1
  O  O214  1  0.75758807  0.49947882  0.36808526  1
  O  O215  1  0.75061233  0.50846960  0.86716695  1
  O  O216  1  0.24583594  0.49541068  0.13050617  1
  O  O217  1  0.24175556  0.49936968  0.63163335  1
  O  O218  1  0.24876209  0.99216631  0.13176908  1
  O  O219  1  0.24240080  0.99192791  0.62652821  1
  O  O220  1  0.75079826  0.49178002  0.13120723  1
  O  O221  1  0.74462448  0.50086382  0.63479717  1
  O  O222  1  0.74496800  0.99488486  0.12858128  1
  O  O223  1  0.74446357  0.99308352  0.63211159  1
  O  O224  1  0.00613556  0.36953494  0.25542899  1
  O  O225  1  0.00586100  0.36924923  0.75703572  1
  O  O226  1  0.01239537  0.87400154  0.24982854  1
  O  O227  1  0.00994331  0.86976460  0.74988036  1
  O  O228  1  0.50492893  0.37101041  0.25362739  1
  O  O229  1  0.50106279  0.36754016  0.75638871  1
  O  O230  1  0.50319966  0.87062077  0.25450719  1
  O  O231  1  0.50477966  0.86709602  0.74798133  1
  O  O232  1  0.49379287  0.13188641  0.24361877  1
  O  O233  1  0.49468576  0.13022731  0.74341256  1
  O  O234  1  0.49417952  0.62282156  0.24028472  1
  O  O235  1  0.49712397  0.63133704  0.74197630  1
  O  O236  1  0.99561062  0.13094032  0.24570592  1
  O  O237  1  1.00014018  0.13355709  0.74704223  1
  O  O238  1  0.99313410  0.62680300  0.24230885  1
  O  O239  1  0.99383397  0.63014124  0.74638062  1
  O  O240  1  0.37095682  0.25604731  0.00454977  1
  O  O241  1  0.36995699  0.25472476  0.50435501  1
  O  O242  1  0.37151082  0.76369282  0.00306272  1
  O  O243  1  0.36732123  0.75517294  0.50432026  1
  O  O244  1  0.87126239  0.25520463  0.00582650  1
  O  O245  1  0.86928802  0.25336092  0.50729953  1
  O  O246  1  0.86348521  0.74928500  0.00698087  1
  O  O247  1  0.86936238  0.75411545  0.50527458  1
  O  O248  1  0.12976161  0.24528317  0.49498783  1
  O  O249  1  0.13234171  0.24717815  0.99484006  1
  O  O250  1  0.12956768  0.75056188  0.48967755  1
  O  O251  1  0.12864996  0.74238704  0.99907427  1
  O  O252  1  0.63539463  0.24460100  0.50156837  1
  O  O253  1  0.63100717  0.24918986  0.98972807  1
  O  O254  1  0.62939342  0.74391945  0.49402587  1
  O  O255  1  0.63757130  0.74672830  0.99805934  1
  O  O256  1  0.49468454  0.24628852  0.12889014  1
  O  O257  1  0.49486956  0.24425092  0.62961208  1
  O  O258  1  0.49846322  0.73755364  0.12575786  1
  O  O259  1  0.49267320  0.74383907  0.62823270  1
  O  O260  1  0.99558803  0.24654254  0.13161533  1
  O  O261  1  0.99188810  0.24955050  0.63076085  1
  O  O262  1  0.99266663  0.74364620  0.12610145  1
  O  O263  1  0.99364376  0.74452309  0.63209838  1
  O  O264  1  0.00540624  0.25495781  0.37009179  1
  O  O265  1  0.00745621  0.25566648  0.87084740  1
  O  O266  1  0.01119181  0.75136044  0.37258013  1
  O  O267  1  0.00248919  0.75164354  0.86810382  1
  O  O268  1  0.50027011  0.25741460  0.36683737  1
  O  O269  1  0.50755015  0.25459467  0.86981321  1
  O  O270  1  0.51144246  0.74940396  0.37519567  1
  O  O271  1  0.49899360  0.75138878  0.86498277  1
  O  O272  1  0.24436047  0.13114715  0.49384795  1
  O  O273  1  0.24736694  0.13220684  0.99549440  1
  O  O274  1  0.24684412  0.63143784  0.49207829  1
  O  O275  1  0.24491662  0.62413598  0.99228863  1
  O  O276  1  0.74471926  0.13418716  0.50082205  1
  O  O277  1  0.74765565  0.13362023  0.99724503  1
  O  O278  1  0.74286459  0.63098111  0.49928388  1
  O  O279  1  0.75040158  0.63140509  0.99236266  1
  O  O280  1  0.25602156  0.37113681  0.00526457  1
  O  O281  1  0.25711955  0.36827928  0.50065899  1
  O  O282  1  0.25711547  0.87903251  0.00944541  1
  O  O283  1  0.25358239  0.86844170  0.50569351  1
  O  O284  1  0.75669090  0.36923394  0.00472920  1
  O  O285  1  0.75656212  0.36473707  0.50215983  1
  O  O286  1  0.75031647  0.86486102  0.00539844  1
  O  O287  1  0.75538939  0.86854858  0.50654873  1
  O  O288  1  0.13090044  0.49528766  0.24548522  1
  O  O289  1  0.12942604  0.49429571  0.74450165  1
  O  O290  1  0.13101436  0.99146992  0.25111616  1
  O  O291  1  0.12581812  0.99052637  0.74434118  1
  O  O292  1  0.63276857  0.49204440  0.24811337  1
  O  O293  1  0.63447989  0.50082063  0.74419979  1
  O  O294  1  0.63173829  1.00074011  0.24277822  1
  O  O295  1  0.63125923  0.99326204  0.74328347  1
  O  O296  1  0.36857835  0.00806929  0.25519110  1
  O  O297  1  0.37373554  0.00616781  0.75548525  1
  O  O298  1  0.36914479  0.50482223  0.25603604  1
  O  O299  1  0.36813629  0.50128717  0.75623947  1
  O  O300  1  0.86998596  0.00481230  0.25387104  1
  O  O301  1  0.86322362  -0.00112536  0.74783649  1
  O  O302  1  0.87033053  0.50408044  0.25549268  1
  O  O303  1  0.86518473  0.50635698  0.75120451  1
  O  O304  1  0.12056884  0.37008760  0.37010173  1
  O  O305  1  0.12082629  0.36996859  0.87081023  1
  O  O306  1  0.12683496  0.86649559  0.36599734  1
  O  O307  1  0.12492119  0.87482409  0.86428115  1
  O  O308  1  0.61818123  0.37227001  0.36810815  1
  O  O309  1  0.61905129  0.36408249  0.87277974  1
  O  O310  1  0.62328769  0.86284565  0.37566183  1
  O  O311  1  0.61989484  0.86975709  0.86510100  1
  O  O312  1  0.38001189  0.13162945  0.13035784  1
  O  O313  1  0.37951287  0.13033602  0.62914857  1
  O  O314  1  0.38378034  0.62525821  0.13048311  1
  O  O315  1  0.37984238  0.63098682  0.62482627  1
  O  O316  1  0.88193505  0.13177461  0.13117437  1
  O  O317  1  0.87769224  0.13767914  0.62673384  1
  O  O318  1  0.88045270  0.63002184  0.13051192  1
  O  O319  1  0.87945870  0.63071620  0.63117694  1
  O  O320  1  0.25675080  0.25712495  0.11971615  1
  O  O321  1  0.25697898  0.25146280  0.61814077  1
  O  O322  1  0.25354091  0.76434420  0.12438863  1
  O  O323  1  0.25298927  0.75403468  0.61962729  1
  O  O324  1  0.75656072  0.25523307  0.11925990  1
  O  O325  1  0.75883914  0.25086091  0.61719415  1
  O  O326  1  0.75312184  0.75312854  0.11708222  1
  O  O327  1  0.75477256  0.75399321  0.62010817  1
  O  O328  1  0.24450797  0.24573240  0.38004016  1
  O  O329  1  0.24653466  0.24629515  0.88083957  1
  O  O330  1  0.24159354  0.74489395  0.37937844  1
  O  O331  1  0.24805985  0.73756738  0.87732073  1
  O  O332  1  0.75060298  0.24789173  0.38829345  1
  O  O333  1  0.74103565  0.25093826  0.87889077  1
  O  O334  1  0.74010187  0.74719813  0.38218080  1
  O  O335  1  0.75084975  0.74151488  0.88282264  1
  O  O336  1  0.00688496  0.12121425  0.00625950  1
  O  O337  1  0.00743124  0.11754753  0.50106198  1
  O  O338  1  0.00493612  0.61914393  0.00604391  1
  O  O339  1  0.00233153  0.62237402  0.51005546  1
  O  O340  1  0.50039906  0.11810007  0.00689180  1
  O  O341  1  0.50710346  0.12493829  0.50658651  1
  O  O342  1  0.49924976  0.61974802  0.00772943  1
  O  O343  1  0.50425570  0.61757848  0.50534999  1
  O  O344  1  0.49473568  0.37974348  0.49401282  1
  O  O345  1  0.49460977  0.38008232  0.99360999  1
  O  O346  1  0.48911886  0.87804483  0.49728070  1
  O  O347  1  0.48893943  0.88051083  1.00119196  1
  O  O348  1  0.99348939  0.37588464  0.49297185  1
  O  O349  1  0.99653200  0.37951218  0.99629733  1
  O  O350  1  0.99226674  0.88024666  0.49837233  1
  O  O351  1  1.00201159  0.88826401  1.00214090  1
  O  O352  1  0.49440467  0.49472680  0.38027585  1
  O  O353  1  0.49511337  0.49574416  0.87815373  1
  O  O354  1  0.49004597  1.00002060  0.37673056  1
  O  O355  1  0.49287745  0.99759744  0.88132718  1
  O  O356  1  0.99381201  0.49301331  0.37583489  1
  O  O357  1  0.99917460  0.49320084  0.88244633  1
  O  O358  1  0.99233868  0.99643123  0.38153756  1
  O  O359  1  1.00287096  1.00138474  0.88872388  1
  O  O360  1  0.00310799  0.00852575  0.11752575  1
  O  O361  1  0.00639119  0.00056305  0.61756288  1
  O  O362  1  0.00674663  0.50542897  0.12073172  1
  O  O363  1  0.00694954  0.50582786  0.62713036  1
  O  O364  1  0.50439885  0.00622457  0.12001575  1
  O  O365  1  0.50642063  0.00679075  0.62288599  1
  O  O366  1  0.50007750  0.50892519  0.11745820  1
  O  O367  1  0.50415275  0.50445905  0.61919314  1
  O  O368  1  0.24543095  0.38086617  0.24499032  1
  O  O369  1  0.24314753  0.38150086  0.74942548  1
  O  O370  1  0.24374829  0.88132410  0.24366749  1
  O  O371  1  0.23966877  0.87466545  0.74412773  1
  O  O372  1  0.74638129  0.37810524  0.24429853  1
  O  O373  1  0.74944282  0.38808038  0.74970095  1
  O  O374  1  0.74651237  0.88231060  0.24190783  1
  O  O375  1  0.74399247  0.88042533  0.74370428  1
  O  O376  1  0.25510988  0.12289685  0.25517750  1
  O  O377  1  0.25734122  0.12462169  0.75684700  1
  O  O378  1  0.25561808  0.61947505  0.25464247  1
  O  O379  1  0.24948913  0.61890883  0.76077300  1
  O  O380  1  0.75765092  0.11876638  0.24921766  1
  O  O381  1  0.75045805  0.11085670  0.74916328  1
  O  O382  1  0.75723695  0.61627837  0.25045633  1
  O  O383  1  0.75407032  0.61882767  0.75672195  1
  O  O384  1  0.36862723  0.12218909  0.36898758  1
  O  O385  1  0.37135595  0.12085861  0.86925225  1
  O  O386  1  0.36965177  0.61885116  0.37054860  1
  O  O387  1  0.36438372  0.61835904  0.87511028  1
  O  O388  1  0.87305526  0.11753642  0.36790150  1
  O  O389  1  0.87074285  0.11983113  0.86885267  1
  O  O390  1  0.87395055  0.61837090  0.36857758  1
  O  O391  1  0.86400021  0.62303461  0.86969286  1
  O  O392  1  0.13154758  0.38084696  0.13144681  1
  O  O393  1  0.12579346  0.38260345  0.63206200  1
  O  O394  1  0.13453510  0.87678125  0.13501087  1
  O  O395  1  0.12892712  0.87875444  0.63289727  1
  O  O396  1  0.63266745  0.37561000  0.13089802  1
  O  O397  1  0.62790956  0.38353345  0.62797507  1
  O  O398  1  0.63125263  0.88181263  0.12622717  1
  O  O399  1  0.63027357  0.87916117  0.62876661  1
  O  O400  1  0.12041916  0.25649685  0.25657264  1
  O  O401  1  0.12145275  0.25542686  0.75564286  1
  O  O402  1  0.12624761  0.75920146  0.25868381  1
  O  O403  1  0.11839344  0.76008925  0.75113696  1
  O  O404  1  0.61892662  0.25626991  0.25021980  1
  O  O405  1  0.62022851  0.25034696  0.75728524  1
  O  O406  1  0.62481031  0.74962252  0.26232525  1
  O  O407  1  0.61618413  0.75545003  0.74802366  1
  O  O408  1  0.38026356  0.24651404  0.24346781  1
  O  O409  1  0.38126494  0.24402433  0.74433451  1
  O  O410  1  0.37720851  0.74083287  0.24860704  1
  O  O411  1  0.37995316  0.74855861  0.74156028  1
  O  O412  1  0.88093571  0.24520002  0.24522757  1
  O  O413  1  0.88056349  0.25143842  0.74077287  1
  O  O414  1  0.87376727  0.74368170  0.24370734  1
  O  O415  1  0.87885537  0.74529884  0.74430629  1
  O  O416  1  0.38008214  0.49461011  0.49448530  1
  O  O417  1  0.38079774  0.49351967  0.99305633  1
  O  O418  1  0.37354203  0.99422074  0.49324181  1
  O  O419  1  0.37973743  0.99269064  0.99538732  1
  O  O420  1  0.87547582  0.49264116  0.49462209  1
  O  O421  1  0.88266488  0.49233833  0.99993177  1
  O  O422  1  0.87855141  0.99419463  0.49576900  1
  O  O423  1  0.88834186  1.00140498  1.00092118  1
  O  O424  1  0.11839569  0.00937400  0.00347013  1
  O  O425  1  0.11997745  0.00399552  0.50405126  1
  O  O426  1  0.11987402  0.50506755  0.00765442  1
  O  O427  1  0.12242039  0.50179703  0.51028898  1
  O  O428  1  0.61797228  -0.00012377  0.00588021  1
  O  O429  1  0.62568304  0.00669109  0.50666581  1
  O  O430  1  0.61690850  0.50201504  0.00150482  1
  O  O431  1  0.61964303  0.50375123  0.50411446  1
  O  O432  1  0.37049815  0.37103669  0.11931986  1
  O  O433  1  0.37429230  0.36806061  0.61765709  1
  O  O434  1  0.36668593  0.87796258  0.11781715  1
  O  O435  1  0.36728455  0.86909566  0.61907649  1
  O  O436  1  0.87113468  0.36840760  0.12043251  1
  O  O437  1  0.87420082  0.36398050  0.61954535  1
  O  O438  1  0.86694696  0.86782013  0.12227503  1
  O  O439  1  0.86888743  0.86778090  0.61902973  1
  O  O440  1  0.13033521  0.13106553  0.38014053  1
  O  O441  1  0.13276464  0.13277795  0.88104849  1
  O  O442  1  0.13044369  0.63450183  0.37332439  1
  O  O443  1  0.13451429  0.62350029  0.88203802  1
  O  O444  1  0.62798642  0.12908529  0.38347923  1
  O  O445  1  0.62587137  0.13735794  0.87544157  1
  O  O446  1  0.62640928  0.63191589  0.38174980  1
  O  O447  1  0.63771747  0.62831162  0.87603495  1
