# generated using pymatgen
data_V3Zn3O8
_symmetry_space_group_name_H-M   'P 1'
_cell_length_a   17.08779263
_cell_length_b   17.08735944
_cell_length_c   17.08665760
_cell_angle_alpha   89.99147504
_cell_angle_beta   89.99928016
_cell_angle_gamma   89.99261845
_symmetry_Int_Tables_number   1
_chemical_formula_structural   V3Zn3O8
_chemical_formula_sum   'V96 Zn96 O256'
_cell_volume   4989.05197526
_cell_formula_units_Z   32
loop_
 _symmetry_equiv_pos_site_id
 _symmetry_equiv_pos_as_xyz
  1  'x, y, z'
loop_
 _atom_site_type_symbol
 _atom_site_label
 _atom_site_symmetry_multiplicity
 _atom_site_fract_x
 _atom_site_fract_y
 _atom_site_fract_z
 _atom_site_occupancy
  V  V0  1  0.74932856  0.24919660  0.50094905  1
  V  V1  1  0.87524783  0.62504601  0.75006714  1
  V  V2  1  0.12433036  -0.00002433  0.12525346  1
  V  V3  1  0.50088676  0.74982037  0.74877028  1
  V  V4  1  0.37472147  0.62637107  0.24876971  1
  V  V5  1  0.62625587  0.87594422  0.74963678  1
  V  V6  1  0.37439406  0.00077555  0.37462928  1
  V  V7  1  0.87637534  0.87461310  0.00042983  1
  V  V8  1  0.25115608  0.75099972  0.49958877  1
  V  V9  1  0.87378332  0.12363432  0.25196855  1
  V  V10  1  0.24994860  0.25039141  0.50000168  1
  V  V11  1  0.49910474  0.37485048  0.37542797  1
  V  V12  1  0.25003745  -0.00003041  0.74965626  1
  V  V13  1  0.62560241  -0.00042922  0.62541277  1
  V  V14  1  0.37470269  0.87552267  0.49869766  1
  V  V15  1  0.75137897  0.87467370  0.12442506  1
  V  V16  1  -0.00142016  0.37543029  0.87682229  1
  V  V17  1  0.50060828  0.62474206  0.62454718  1
  V  V18  1  0.62555873  0.50002302  0.12617573  1
  V  V19  1  -0.00015153  0.24930497  0.25138875  1
  V  V20  1  0.37448566  0.50063735  0.37426777  1
  V  V21  1  0.49920296  0.49995431  -0.00049970  1
  V  V22  1  0.87334054  0.49957504  0.37570388  1
  V  V23  1  0.62629989  0.75010031  0.87476252  1
  V  V24  1  0.74853696  0.12322153  0.37484898  1
  V  V25  1  0.25064356  0.49997813  0.74905808  1
  V  V26  1  0.50061841  0.87570636  0.87473572  1
  V  V27  1  -0.00147989  0.87496145  0.37545982  1
  V  V28  1  0.74943752  0.49977657  0.74963911  1
  V  V29  1  0.12544983  0.37619035  0.24884506  1
  V  V30  1  0.37640673  0.62570543  0.74923777  1
  V  V31  1  -0.00047270  0.37416391  0.37641883  1
  V  V32  1  0.12522699  0.24856901  0.87507797  1
  V  V33  1  0.12469853  0.62279323  -0.00008476  1
  V  V34  1  0.12476896  0.75101988  0.37488398  1
  V  V35  1  0.37418698  0.37490434  0.49983319  1
  V  V36  1  0.24937194  0.62587531  0.37449665  1
  V  V37  1  0.62453988  0.37535043  0.25041655  1
  V  V38  1  -0.00000147  0.50043456  0.50100630  1
  V  V39  1  0.50052330  0.74933804  0.24883925  1
  V  V40  1  0.75013853  0.62523668  0.87476164  1
  V  V41  1  0.87584383  0.49956481  0.87562788  1
  V  V42  1  0.49846763  0.24996458  0.24943093  1
  V  V43  1  0.24973357  0.12585175  0.37524641  1
  V  V44  1  0.50047424  0.25043812  0.75230828  1
  V  V45  1  0.00016156  0.12432182  0.12597548  1
  V  V46  1  -0.00019699  0.24956210  0.75037624  1
  V  V47  1  0.25021826  0.87546446  0.62421763  1
  V  V48  1  0.62593286  0.62540177  -0.00013667  1
  V  V49  1  0.62330320  0.24923163  0.37558952  1
  V  V50  1  0.74982570  0.75045027  0.50022996  1
  V  V51  1  0.50035458  0.50026420  0.50039863  1
  V  V52  1  0.37493009  0.12412734  0.75009374  1
  V  V53  1  0.12562369  0.87550865  0.74910613  1
  V  V54  1  0.50036982  0.62568788  0.12537228  1
  V  V55  1  0.37547110  -0.00111023  0.87417011  1
  V  V56  1  0.12492819  0.24931911  0.37577491  1
  V  V57  1  0.62414322  0.12390477  0.50027318  1
  V  V58  1  0.24927767  0.37572809  0.62593649  1
  V  V59  1  0.49952259  -0.00061907  0.49903885  1
  V  V60  1  0.00037133  0.00053087  0.50067153  1
  V  V61  1  0.00045380  0.12501085  0.62461773  1
  V  V62  1  0.75023413  0.00072586  0.75014085  1
  V  V63  1  0.25070673  0.62561592  0.87362965  1
  V  V64  1  0.25111330  0.87453945  0.12324893  1
  V  V65  1  0.24794846  0.50026705  0.24869794  1
  V  V66  1  0.00022323  0.75012950  0.74917651  1
  V  V67  1  0.87445674  0.12486130  0.75031115  1
  V  V68  1  0.37374402  0.12496372  0.24999245  1
  V  V69  1  0.00009207  0.87579309  0.87486595  1
  V  V70  1  0.62415136  0.37435091  0.75163948  1
  V  V71  1  0.74966468  0.37489695  0.12690331  1
  V  V72  1  -0.00007927  -0.00008386  0.00088407  1
  V  V73  1  0.74954078  -0.00038681  0.25043376  1
  V  V74  1  0.87453007  0.25069201  0.62464789  1
  V  V75  1  0.62449867  0.50006037  0.62446025  1
  V  V76  1  0.87762070  0.74830723  0.12499613  1
  V  V77  1  0.62557664  0.74843384  0.37461981  1
  V  V78  1  0.87592137  0.62402214  0.25025726  1
  V  V79  1  0.25033814  0.25013945  -0.00008077  1
  V  V80  1  0.12487093  0.62506193  0.50024881  1
  V  V81  1  0.75002592  0.37426247  0.62521951  1
  V  V82  1  0.74961459  0.25086424  0.00114734  1
  V  V83  1  0.87432198  0.25057231  0.12749769  1
  V  V84  1  0.74968993  0.12590300  0.87651664  1
  V  V85  1  0.62451451  -0.00009466  0.12424004  1
  V  V86  1  0.49983259  0.12437053  0.12386855  1
  V  V87  1  0.37381036  0.25078372  0.12357721  1
  V  V88  1  0.50014497  -0.00037103  -0.00060248  1
  V  V89  1  0.62464856  0.87356000  0.24865197  1
  V  V90  1  0.37679384  0.49986800  0.87602040  1
  V  V91  1  0.12655808  0.74932559  0.87415539  1
  V  V92  1  0.12495765  0.87547442  0.24983152  1
  V  V93  1  0.87407144  0.75089256  0.62432890  1
  V  V94  1  0.49954013  0.12490033  0.62583405  1
  V  V95  1  0.00056204  0.62461861  0.62469287  1
  Zn  Zn96  1  0.12458807  0.12417308  0.00088125  1
  Zn  Zn97  1  0.87429987  0.87549990  0.50099818  1
  Zn  Zn98  1  0.37614036  0.37566999  0.00000448  1
  Zn  Zn99  1  0.87554362  -0.00079037  0.87556370  1
  Zn  Zn100  1  0.87528046  0.37827483  0.00358033  1
  Zn  Zn101  1  0.62472902  0.12551480  0.00053364  1
  Zn  Zn102  1  0.75167752  0.87658472  0.62474497  1
  Zn  Zn103  1  0.87489322  0.37474969  0.50103708  1
  Zn  Zn104  1  0.00116159  0.74847768  0.25005049  1
  Zn  Zn105  1  -0.00062876  0.49971412  0.00248498  1
  Zn  Zn106  1  0.87288138  -0.00204768  0.37616132  1
  Zn  Zn107  1  0.37468261  0.87327460  -0.00066306  1
  Zn  Zn108  1  0.62479879  0.25259446  0.87780012  1
  Zn  Zn109  1  0.74937965  0.62304080  0.37571850  1
  Zn  Zn110  1  0.12403072  0.50036948  0.62670433  1
  Zn  Zn111  1  0.12521959  0.00209873  0.62579704  1
  Zn  Zn112  1  0.37434910  0.24940766  0.62583520  1
  Zn  Zn113  1  0.50033548  0.37461315  0.87761356  1
  Zn  Zn114  1  0.74976431  0.49926793  0.25116175  1
  Zn  Zn115  1  0.00143165  0.62162437  0.12391103  1
  Zn  Zn116  1  0.24940876  0.12355111  0.87423829  1
  Zn  Zn117  1  0.24983340  0.00102562  0.24946601  1
  Zn  Zn118  1  0.12359342  0.49947527  0.12410479  1
  Zn  Zn119  1  0.25321602  0.75006839  -0.00093181  1
  Zn  Zn120  1  0.12601298  0.12542191  0.50147143  1
  Zn  Zn121  1  0.75164464  0.74999579  -0.00129878  1
  Zn  Zn122  1  0.62489460  0.62446212  0.49925192  1
  Zn  Zn123  1  0.37567316  0.75149244  0.12236929  1
  Zn  Zn124  1  0.49832235  0.87471003  0.37345431  1
  Zn  Zn125  1  0.24945487  0.37787803  0.12338458  1
  Zn  Zn126  1  0.12494032  0.37644587  0.74943452  1
  Zn  Zn127  1  0.37666538  0.75011520  0.62318691  1
  Zn  Zn128  1  0.18711644  0.18821689  0.18732516  1
  Zn  Zn129  1  0.18673820  0.18722603  0.68751899  1
  Zn  Zn130  1  0.18691218  0.68934129  0.18621192  1
  Zn  Zn131  1  0.18867036  0.68828362  0.68599256  1
  Zn  Zn132  1  0.68579719  0.18674279  0.18815531  1
  Zn  Zn133  1  0.68623826  0.18741315  0.68819563  1
  Zn  Zn134  1  0.69106136  0.68610500  0.18763756  1
  Zn  Zn135  1  0.68699176  0.68740568  0.68651829  1
  Zn  Zn136  1  0.31092505  0.31322789  0.31159287  1
  Zn  Zn137  1  0.31451993  0.31386246  0.81365252  1
  Zn  Zn138  1  0.31244777  0.81368009  0.31042585  1
  Zn  Zn139  1  0.31376804  0.81238274  0.81093450  1
  Zn  Zn140  1  0.81155270  0.31198443  0.31362340  1
  Zn  Zn141  1  0.81327495  0.31265735  0.81257490  1
  Zn  Zn142  1  0.81283526  0.81183688  0.31215045  1
  Zn  Zn143  1  0.81293735  0.81310685  0.81231924  1
  Zn  Zn144  1  0.18609081  0.43830839  0.43683144  1
  Zn  Zn145  1  0.18864163  0.43674817  0.93609703  1
  Zn  Zn146  1  0.18694269  0.93954062  0.43784558  1
  Zn  Zn147  1  0.18705135  0.93751577  0.93783080  1
  Zn  Zn148  1  0.68732647  0.43563080  0.43867011  1
  Zn  Zn149  1  0.68650140  0.43737968  0.93792371  1
  Zn  Zn150  1  0.68572903  0.93469208  0.43699992  1
  Zn  Zn151  1  0.68842046  0.93790494  0.93826285  1
  Zn  Zn152  1  0.31223437  0.06230793  0.06026261  1
  Zn  Zn153  1  0.31282771  0.06267564  0.56290046  1
  Zn  Zn154  1  0.31137690  0.56345344  0.06270534  1
  Zn  Zn155  1  0.31349173  0.56271027  0.56275969  1
  Zn  Zn156  1  0.81401981  0.06219019  0.06358462  1
  Zn  Zn157  1  0.81406341  0.06249495  0.56265737  1
  Zn  Zn158  1  0.81204199  0.56140675  0.06145112  1
  Zn  Zn159  1  0.81176662  0.56449103  0.56199005  1
  Zn  Zn160  1  0.43549354  0.43737953  0.18579923  1
  Zn  Zn161  1  0.43669669  0.43733983  0.68817283  1
  Zn  Zn162  1  0.43683125  0.93765459  0.18813159  1
  Zn  Zn163  1  0.43696509  0.93668278  0.68647853  1
  Zn  Zn164  1  0.94025874  0.43810713  0.18687531  1
  Zn  Zn165  1  0.93689692  0.43695709  0.68866335  1
  Zn  Zn166  1  0.93741224  0.93750499  0.18871463  1
  Zn  Zn167  1  0.93619420  0.93754644  0.68682524  1
  Zn  Zn168  1  0.06397552  0.06146859  0.31307973  1
  Zn  Zn169  1  0.06217729  0.06169106  0.81264118  1
  Zn  Zn170  1  0.06114314  0.56176879  0.31338133  1
  Zn  Zn171  1  0.06440885  0.56103256  0.81210071  1
  Zn  Zn172  1  0.56106057  0.06176107  0.31143361  1
  Zn  Zn173  1  0.56432141  0.06323541  0.81378340  1
  Zn  Zn174  1  0.56186748  0.56310435  0.31203535  1
  Zn  Zn175  1  0.56261768  0.56277013  0.81281045  1
  Zn  Zn176  1  0.43538368  0.18723277  0.43846844  1
  Zn  Zn177  1  0.43584659  0.18505937  0.93679414  1
  Zn  Zn178  1  0.43791736  0.68762030  0.43683596  1
  Zn  Zn179  1  0.43740087  0.68905606  0.93854380  1
  Zn  Zn180  1  0.93561855  0.18570682  0.43813242  1
  Zn  Zn181  1  0.93579716  0.18768927  0.94031576  1
  Zn  Zn182  1  0.93662808  0.68747260  0.43815675  1
  Zn  Zn183  1  0.93960435  0.68769063  0.93680860  1
  Zn  Zn184  1  0.06392622  0.31245316  0.06353080  1
  Zn  Zn185  1  0.06319031  0.31300252  0.56156544  1
  Zn  Zn186  1  0.06409198  0.81069449  0.06090762  1
  Zn  Zn187  1  0.06369951  0.81310322  0.56271697  1
  Zn  Zn188  1  0.56218278  0.31379477  0.06298423  1
  Zn  Zn189  1  0.56238907  0.31261666  0.56455220  1
  Zn  Zn190  1  0.56293638  0.81218882  0.06079359  1
  Zn  Zn191  1  0.56253399  0.81383408  0.56229054  1
  O  O192  1  0.11695789  0.11891285  0.12530565  1
  O  O193  1  0.11581323  0.12339197  0.62260561  1
  O  O194  1  0.12371567  0.62595758  0.11293850  1
  O  O195  1  0.11825251  0.62449600  0.61790727  1
  O  O196  1  0.61772497  0.11771473  0.12514794  1
  O  O197  1  0.61962349  0.11907925  0.61949164  1
  O  O198  1  0.62124655  0.61967808  0.12079795  1
  O  O199  1  0.61842071  0.61713678  0.62393249  1
  O  O200  1  0.38020535  0.38079059  0.37973089  1
  O  O201  1  0.37862706  0.38513546  0.87750567  1
  O  O202  1  0.37581813  0.88224338  0.38040219  1
  O  O203  1  0.38349026  0.88178727  0.87328479  1
  O  O204  1  0.88015602  0.38394742  0.37593280  1
  O  O205  1  0.88403613  0.37994673  0.87548180  1
  O  O206  1  0.88664376  0.87553766  0.37642294  1
  O  O207  1  0.88245953  0.87518390  0.88155452  1
  O  O208  1  0.25617336  0.00757841  0.37390350  1
  O  O209  1  0.25609014  0.00051173  0.86783176  1
  O  O210  1  0.25564833  0.50662909  0.37016631  1
  O  O211  1  0.25655370  0.50573235  0.86856673  1
  O  O212  1  0.74890185  0.00511999  0.36905308  1
  O  O213  1  0.75221526  0.01037296  0.87041273  1
  O  O214  1  0.76084656  0.50030478  0.37520533  1
  O  O215  1  0.75505937  0.50520222  0.86850861  1
  O  O216  1  0.24655447  0.49878489  0.13391927  1
  O  O217  1  0.25006414  0.49119110  0.62930442  1
  O  O218  1  0.24320629  0.99214681  0.12537289  1
  O  O219  1  0.24839475  0.99341052  0.63113874  1
  O  O220  1  0.74345281  0.49265033  0.12682064  1
  O  O221  1  0.74521815  0.49498262  0.63020063  1
  O  O222  1  0.74479575  0.99476048  0.13087676  1
  O  O223  1  0.74330668  1.00057661  0.63128641  1
  O  O224  1  0.00485437  0.36814660  0.25727283  1
  O  O225  1  0.00078943  0.36814814  0.76016811  1
  O  O226  1  0.00534516  0.87500422  0.26101609  1
  O  O227  1  0.00516782  0.86955054  0.75465996  1
  O  O228  1  0.50427551  0.36941973  0.25594360  1
  O  O229  1  0.50500521  0.36516317  0.74925157  1
  O  O230  1  0.50742365  0.86790153  0.25029809  1
  O  O231  1  0.50685428  0.87037289  0.75476612  1
  O  O232  1  0.49395021  0.13123974  0.24437095  1
  O  O233  1  0.49660858  0.13185929  0.74544157  1
  O  O234  1  0.49462258  0.62968360  0.24451236  1
  O  O235  1  0.49603039  0.63009189  0.74426176  1
  O  O236  1  0.99403134  0.12987348  0.24630065  1
  O  O237  1  0.99374374  0.13008948  0.74551444  1
  O  O238  1  0.98734421  0.62698982  0.24983316  1
  O  O239  1  0.99491291  0.63028847  0.74507733  1
  O  O240  1  0.36614610  0.24958229  0.00389677  1
  O  O241  1  0.36871362  0.25759591  0.50191806  1
  O  O242  1  0.37186117  0.75479504  0.00379088  1
  O  O243  1  0.36854052  0.75687395  0.49903481  1
  O  O244  1  0.86401095  0.25159130  0.00829819  1
  O  O245  1  0.86710798  0.25048312  0.50667724  1
  O  O246  1  0.87515830  0.75469526  0.00925334  1
  O  O247  1  0.86565535  0.75013773  0.50514685  1
  O  O248  1  0.13190370  0.24953836  0.49252192  1
  O  O249  1  0.13191929  0.24870431  0.99145043  1
  O  O250  1  0.13123554  0.74476430  0.49413683  1
  O  O251  1  0.12686379  0.74066254  0.99151613  1
  O  O252  1  0.62874432  0.24363620  0.49534727  1
  O  O253  1  0.63796475  0.24790157  1.00079745  1
  O  O254  1  0.63165392  0.75012371  0.49093377  1
  O  O255  1  0.62760650  0.74328601  0.99264422  1
  O  O256  1  0.49467577  0.24438356  0.13017808  1
  O  O257  1  0.49923355  0.24400160  0.63540530  1
  O  O258  1  0.50160550  0.74303906  0.13177646  1
  O  O259  1  0.50041522  0.74347793  0.63102201  1
  O  O260  1  0.99415190  0.24492824  0.13183173  1
  O  O261  1  0.99477648  0.24622050  0.63028400  1
  O  O262  1  0.98759081  0.74855796  0.12746170  1
  O  O263  1  0.99479574  0.74432467  0.62977999  1
  O  O264  1  0.00390201  0.25406065  0.37078451  1
  O  O265  1  0.00505503  0.25616114  0.87151704  1
  O  O266  1  0.00580134  0.76031828  0.37692388  1
  O  O267  1  0.00603697  0.75578954  0.86759049  1
  O  O268  1  0.50413944  0.25506595  0.37018325  1
  O  O269  1  0.50263147  0.24952697  0.86388061  1
  O  O270  1  0.51044639  0.75011267  0.36871755  1
  O  O271  1  0.50737584  0.75506151  0.86837059  1
  O  O272  1  0.24972300  0.13236466  0.49403719  1
  O  O273  1  0.24694729  0.13683338  0.99601092  1
  O  O274  1  0.24557278  0.63014744  0.49382026  1
  O  O275  1  0.24149630  0.62691251  0.99199794  1
  O  O276  1  0.74327025  0.12931640  0.49508061  1
  O  O277  1  0.75107636  0.13325287  0.99355156  1
  O  O278  1  0.74674439  0.63762279  0.49779215  1
  O  O279  1  0.74341686  0.62616729  0.99246870  1
  O  O280  1  0.25138457  0.36196032  0.00039750  1
  O  O281  1  0.25482386  0.37157599  0.50650396  1
  O  O282  1  0.24990073  0.87354517  0.01082710  1
  O  O283  1  0.25461937  0.87076307  0.50413175  1
  O  O284  1  0.75079451  0.36570747  0.00677397  1
  O  O285  1  0.75047652  0.36669504  0.50743819  1
  O  O286  1  0.75768353  0.87333126  0.00673968  1
  O  O287  1  0.75145032  0.86301846  0.50107291  1
  O  O288  1  0.13092603  0.49407806  0.25208835  1
  O  O289  1  0.13443796  0.49684053  0.74732767  1
  O  O290  1  0.12635873  0.99313863  0.24302732  1
  O  O291  1  0.13113418  0.99287955  0.74964006  1
  O  O292  1  0.62599414  0.49342355  0.24500612  1
  O  O293  1  0.63046714  0.49487055  0.74437399  1
  O  O294  1  0.62947707  0.99389571  0.24428292  1
  O  O295  1  0.63056812  0.99594634  0.74485786  1
  O  O296  1  0.37425284  0.00803455  0.25664942  1
  O  O297  1  0.37033055  0.00447082  0.75459633  1
  O  O298  1  0.36972757  0.50608654  0.25602355  1
  O  O299  1  0.37070407  0.50667451  0.75554945  1
  O  O300  1  0.86717855  0.00588991  0.25155810  1
  O  O301  1  0.86863166  0.00768112  0.75168116  1
  O  O302  1  0.87519877  0.50634137  0.26026649  1
  O  O303  1  0.86872496  0.50591241  0.75519751  1
  O  O304  1  0.11864391  0.36916512  0.36988076  1
  O  O305  1  0.11625738  0.36470258  0.87357885  1
  O  O306  1  0.11782058  0.87085761  0.37064737  1
  O  O307  1  0.11953633  0.86909862  0.86885256  1
  O  O308  1  0.61832745  0.36872850  0.37072265  1
  O  O309  1  0.62257397  0.37283860  0.86676025  1
  O  O310  1  0.62333333  0.86364723  0.36758447  1
  O  O311  1  0.62071263  0.87043851  0.86907161  1
  O  O312  1  0.38038642  0.13026996  0.13008666  1
  O  O313  1  0.38245851  0.12631446  0.63198538  1
  O  O314  1  0.38210146  0.62651543  0.13206503  1
  O  O315  1  0.38250968  0.62613304  0.63129886  1
  O  O316  1  0.87982929  0.13062760  0.13303758  1
  O  O317  1  0.88017219  0.13175972  0.63103035  1
  O  O318  1  0.87516828  0.63220207  0.13211113  1
  O  O319  1  0.88062777  0.63057304  0.63105268  1
  O  O320  1  0.25478369  0.24982695  0.11531787  1
  O  O321  1  0.25156466  0.25962782  0.62018696  1
  O  O322  1  0.25069120  0.76304609  0.12390951  1
  O  O323  1  0.25254557  0.75680306  0.61710845  1
  O  O324  1  0.75396111  0.25368378  0.11951085  1
  O  O325  1  0.75426140  0.25398674  0.62060902  1
  O  O326  1  0.76196181  0.75538985  0.12376691  1
  O  O327  1  0.75425158  0.75100437  0.61636865  1
  O  O328  1  0.24496246  0.24582009  0.38042849  1
  O  O329  1  0.24101003  0.25005925  0.88081468  1
  O  O330  1  0.24421056  0.74522285  0.37976239  1
  O  O331  1  0.24361158  0.74342056  0.87304522  1
  O  O332  1  0.74249679  0.24381359  0.38045885  1
  O  O333  1  0.75111526  0.24330585  0.88402085  1
  O  O334  1  0.74206256  0.74930853  0.38176619  1
  O  O335  1  0.74406071  0.74309842  0.87491797  1
  O  O336  1  -0.00083390  0.11912459  0.00859829  1
  O  O337  1  -0.00000751  0.11628538  0.50510131  1
  O  O338  1  0.01289478  0.62297720  -0.00273239  1
  O  O339  1  0.00505477  0.62074420  0.50531099  1
  O  O340  1  0.50240826  0.11867928  0.00605357  1
  O  O341  1  0.50496004  0.12004977  0.50537753  1
  O  O342  1  0.50726923  0.62011114  0.00576912  1
  O  O343  1  0.50095760  0.61773736  0.50568015  1
  O  O344  1  0.49459280  0.37966477  0.49520834  1
  O  O345  1  0.49841132  0.38386104  0.99852517  1
  O  O346  1  0.49370261  0.88198884  0.49772646  1
  O  O347  1  0.50037869  0.88198508  0.99228794  1
  O  O348  1  0.99749162  0.38158419  0.49408842  1
  O  O349  1  0.99799104  0.37349479  0.98711417  1
  O  O350  1  1.00062402  0.88250783  0.49149372  1
  O  O351  1  0.99590118  0.87977714  0.99457074  1
  O  O352  1  0.49447376  0.49428231  0.37985968  1
  O  O353  1  0.49421868  0.50112309  0.88161442  1
  O  O354  1  0.49372327  0.99916344  0.38151261  1
  O  O355  1  0.49648228  0.99503459  0.87905026  1
  O  O356  1  0.99111155  0.49472629  0.38088163  1
  O  O357  1  0.99504266  0.48925366  0.87330919  1
  O  O358  1  0.99951622  0.99138498  0.38298594  1
  O  O359  1  0.99820483  0.99378252  0.88167020  1
  O  O360  1  0.00468192  0.00427662  0.12076652  1
  O  O361  1  0.00004381  0.00545348  0.61649906  1
  O  O362  1  0.00450267  0.50322096  0.12013557  1
  O  O363  1  -0.00023933  0.50628995  0.61956756  1
  O  O364  1  0.50495937  0.00482593  0.11980736  1
  O  O365  1  0.50572616  0.00578411  0.61946111  1
  O  O366  1  0.50594240  0.50618416  0.12066264  1
  O  O367  1  0.50511157  0.50405630  0.61986071  1
  O  O368  1  0.24268594  0.38242534  0.25067771  1
  O  O369  1  0.25122699  0.38005359  0.74040441  1
  O  O370  1  0.24308945  0.87770154  0.24109222  1
  O  O371  1  0.24519369  0.87995001  0.74394047  1
  O  O372  1  0.74189200  0.37447441  0.24485637  1
  O  O373  1  0.74490820  0.37992057  0.74477949  1
  O  O374  1  0.74483167  0.87957404  0.24417503  1
  O  O375  1  0.74375204  0.88266743  0.74991514  1
  O  O376  1  0.25675655  0.12506456  0.25649936  1
  O  O377  1  0.25672772  0.11880297  0.75076482  1
  O  O378  1  0.25432832  0.62116670  0.25616596  1
  O  O379  1  0.25630159  0.62016611  0.75349577  1
  O  O380  1  0.75340450  0.11953210  0.25551192  1
  O  O381  1  0.75444945  0.12195557  0.75814744  1
  O  O382  1  0.76357511  0.62186050  0.25269526  1
  O  O383  1  0.75545155  0.61915564  0.75457350  1
  O  O384  1  0.36952047  0.12090015  0.36957236  1
  O  O385  1  0.37381304  0.11630876  0.86669451  1
  O  O386  1  0.36936003  0.61970640  0.36912083  1
  O  O387  1  0.37049442  0.61999165  0.86844117  1
  O  O388  1  0.86624032  0.12297510  0.36892203  1
  O  O389  1  0.86448048  0.12545124  0.86995294  1
  O  O390  1  0.87505056  0.61629092  0.36821529  1
  O  O391  1  0.87039583  0.62056162  0.86857792  1
  O  O392  1  0.12745179  0.37620896  0.13429773  1
  O  O393  1  0.13755238  0.37694291  0.62600001  1
  O  O394  1  0.13055796  0.87970051  0.12979949  1
  O  O395  1  0.13168079  0.87644204  0.63195140  1
  O  O396  1  0.62956381  0.38029780  0.13197033  1
  O  O397  1  0.63062307  0.38060394  0.63126392  1
  O  O398  1  0.63151838  0.87949291  0.12971979  1
  O  O399  1  0.62647157  0.88241508  0.63199581  1
  O  O400  1  0.11874531  0.25540432  0.25646153  1
  O  O401  1  0.11872331  0.25192182  0.76015740  1
  O  O402  1  0.12177153  0.75637940  0.25755115  1
  O  O403  1  0.11934411  0.75502251  0.75439592  1
  O  O404  1  0.61776530  0.25468773  0.25603646  1
  O  O405  1  0.61583180  0.25476129  0.75072072  1
  O  O406  1  0.62235336  0.75331801  0.25665819  1
  O  O407  1  0.62053769  0.75545516  0.75527885  1
  O  O408  1  0.38012640  0.24500797  0.24495164  1
  O  O409  1  0.38510077  0.24418684  0.74962098  1
  O  O410  1  0.38246501  0.74337158  0.24930159  1
  O  O411  1  0.38365111  0.74335899  0.74795307  1
  O  O412  1  0.88002281  0.24363224  0.24698747  1
  O  O413  1  0.87984968  0.24426790  0.74438614  1
  O  O414  1  0.87627698  0.74169656  0.24229616  1
  O  O415  1  0.88061416  0.74405623  0.74493756  1
  O  O416  1  0.38035062  0.49461617  0.49320957  1
  O  O417  1  0.38148859  0.50155604  0.99357332  1
  O  O418  1  0.38065891  0.99550501  0.49401410  1
  O  O419  1  0.38237739  0.99814635  0.99210754  1
  O  O420  1  0.88021785  0.50054842  0.49061634  1
  O  O421  1  0.87729189  0.49758578  0.99074740  1
  O  O422  1  0.88638792  0.99740984  0.49765923  1
  O  O423  1  0.88220555  0.99232308  1.00057078  1
  O  O424  1  0.11727569  0.00199574  0.00650730  1
  O  O425  1  0.11220992  0.00245112  0.50211953  1
  O  O426  1  0.12522419  0.51138308  -0.00204034  1
  O  O427  1  0.11772953  0.50768961  0.50038580  1
  O  O428  1  0.61915922  0.00183276  0.00704167  1
  O  O429  1  0.61980828  0.00493760  0.50466488  1
  O  O430  1  0.62000183  0.50614782  0.00625886  1
  O  O431  1  0.61828109  0.50032813  0.50598100  1
  O  O432  1  0.37134533  0.36594781  0.12236962  1
  O  O433  1  0.36484700  0.37463665  0.61881057  1
  O  O434  1  0.36330251  0.87550392  0.12469157  1
  O  O435  1  0.36865588  0.87351332  0.61698501  1
  O  O436  1  0.86839367  0.36775544  0.12630878  1
  O  O437  1  0.86756090  0.36838505  0.62462846  1
  O  O438  1  0.87136911  0.86642865  0.12171207  1
  O  O439  1  0.87240083  0.86602577  0.62268792  1
  O  O440  1  0.13134147  0.13218305  0.37623369  1
  O  O441  1  0.12410599  0.13823507  0.87701110  1
  O  O442  1  0.12959038  0.63122962  0.38034131  1
  O  O443  1  0.13121240  0.63000361  0.87961716  1
  O  O444  1  0.62865918  0.13009251  0.38021779  1
  O  O445  1  0.63918116  0.12842203  0.87684654  1
  O  O446  1  0.62750213  0.63629412  0.37516433  1
  O  O447  1  0.63096054  0.63022594  0.87927873  1
