# generated using pymatgen
data_V3Zn3O8
_symmetry_space_group_name_H-M   'P 1'
_cell_length_a   17.08464555
_cell_length_b   17.08509967
_cell_length_c   17.08434352
_cell_angle_alpha   90.00010023
_cell_angle_beta   90.00531286
_cell_angle_gamma   90.01212807
_symmetry_Int_Tables_number   1
_chemical_formula_structural   V3Zn3O8
_chemical_formula_sum   'V96 Zn96 O256'
_cell_volume   4986.79796457
_cell_formula_units_Z   32
loop_
 _symmetry_equiv_pos_site_id
 _symmetry_equiv_pos_as_xyz
  1  'x, y, z'
loop_
 _atom_site_type_symbol
 _atom_site_label
 _atom_site_symmetry_multiplicity
 _atom_site_fract_x
 _atom_site_fract_y
 _atom_site_fract_z
 _atom_site_occupancy
  V  V0  1  0.25103801  0.87298821  0.12599678  1
  V  V1  1  0.37480509  0.49992894  0.37530007  1
  V  V2  1  0.00076508  0.12451418  0.62473821  1
  V  V3  1  0.12468908  0.24836198  0.37578894  1
  V  V4  1  0.62417677  0.87546165  0.75030165  1
  V  V5  1  0.37454604  0.12582719  0.75092621  1
  V  V6  1  0.37403476  0.25132367  0.62497589  1
  V  V7  1  0.37530514  0.50015175  0.87618113  1
  V  V8  1  0.62518459  0.62654852  0.49905646  1
  V  V9  1  0.75069627  0.74957151  -0.00072686  1
  V  V10  1  0.49948559  0.62653344  0.62566012  1
  V  V11  1  0.87567031  0.62500931  0.24968430  1
  V  V12  1  0.62560736  0.00020549  0.12291572  1
  V  V13  1  -0.00127135  0.24875735  0.25020605  1
  V  V14  1  0.00019222  0.74924125  0.24957394  1
  V  V15  1  0.12463048  0.74994687  0.87418679  1
  V  V16  1  0.25067519  -0.00192292  0.25010049  1
  V  V17  1  0.25127614  0.12504998  0.87558329  1
  V  V18  1  0.00044082  0.37470404  0.87556315  1
  V  V19  1  0.87564464  0.87489091  -0.00003763  1
  V  V20  1  0.74900345  0.12708839  0.37594148  1
  V  V21  1  0.12345881  0.62408482  -0.00080521  1
  V  V22  1  -0.00143578  0.37515878  0.37459052  1
  V  V23  1  0.62390860  0.37600922  0.75032211  1
  V  V24  1  0.62527403  0.75079827  0.37464570  1
  V  V25  1  0.12501873  0.37422530  0.24967268  1
  V  V26  1  0.37522715  0.74874621  0.12531418  1
  V  V27  1  0.00047315  0.49919216  -0.00036840  1
  V  V28  1  0.87574654  0.50022461  0.37460622  1
  V  V29  1  0.75003040  0.62604480  0.87367988  1
  V  V30  1  -0.00091307  0.49962892  0.49945514  1
  V  V31  1  0.12585733  0.87440958  0.75072971  1
  V  V32  1  0.49973895  0.50086535  0.50085898  1
  V  V33  1  0.12443010  0.00093174  0.62401292  1
  V  V34  1  0.87547219  -0.00050158  0.87497750  1
  V  V35  1  0.00097873  0.62420142  0.12373427  1
  V  V36  1  0.75101511  0.00036642  0.75013066  1
  V  V37  1  0.74949670  0.62632711  0.37509111  1
  V  V38  1  0.25083193  0.00185187  0.75116305  1
  V  V39  1  0.87413481  0.62459824  0.74866350  1
  V  V40  1  0.50014484  0.37533445  0.37508258  1
  V  V41  1  0.12625762  0.87362335  0.24905176  1
  V  V42  1  0.37505064  0.62424733  0.24919772  1
  V  V43  1  0.62535878  0.50053759  0.12309976  1
  V  V44  1  0.74979139  0.00165668  0.25012779  1
  V  V45  1  0.62462848  0.12659976  0.49954747  1
  V  V46  1  0.50103652  0.12482064  0.12349886  1
  V  V47  1  -0.00043513  0.24955841  0.75039872  1
  V  V48  1  -0.00200065  0.87611028  0.37639114  1
  V  V49  1  0.24823679  0.24965855  0.49876373  1
  V  V50  1  0.75100367  0.87534799  0.62404128  1
  V  V51  1  -0.00022126  0.62420651  0.62443462  1
  V  V52  1  0.87406036  0.25054707  0.62512001  1
  V  V53  1  0.49998169  0.25182529  0.75035204  1
  V  V54  1  0.87459810  0.12528751  0.25051516  1
  V  V55  1  0.75051438  0.50022175  0.24980871  1
  V  V56  1  0.37494867  0.75035067  0.62563381  1
  V  V57  1  0.24960194  0.37399793  0.12638145  1
  V  V58  1  0.12458789  0.12342737  0.00131732  1
  V  V59  1  0.87476659  0.75140629  0.62361731  1
  V  V60  1  0.50075507  0.87520805  0.37438791  1
  V  V61  1  0.87443210  0.75009639  0.12377533  1
  V  V62  1  0.37694228  0.87586248  -0.00097894  1
  V  V63  1  0.74915600  0.50151198  0.75008538  1
  V  V64  1  0.25006496  0.62432998  0.37494321  1
  V  V65  1  0.12507674  0.24965452  0.87566956  1
  V  V66  1  0.62454764  0.50115265  0.62520839  1
  V  V67  1  0.25125755  0.74893885  0.49982773  1
  V  V68  1  0.75050935  0.37470157  0.62486858  1
  V  V69  1  0.62529808  0.00063459  0.62525818  1
  V  V70  1  0.24989474  0.24891895  0.00103441  1
  V  V71  1  -0.00084271  0.12418951  0.12577493  1
  V  V72  1  0.12587729  0.74826202  0.37553968  1
  V  V73  1  0.62441900  0.25141927  0.87467590  1
  V  V74  1  0.37419621  0.00029512  0.37484251  1
  V  V75  1  0.37519751  0.24860872  0.12581419  1
  V  V76  1  0.37428794  0.12381499  0.24989346  1
  V  V77  1  0.37523191  0.37506170  0.00040228  1
  V  V78  1  0.49942844  0.75135656  0.75033804  1
  V  V79  1  0.87500476  0.37453490  0.00064222  1
  V  V80  1  0.37461407  0.87515528  0.50035198  1
  V  V81  1  -0.00016136  -0.00018555  0.00042461  1
  V  V82  1  0.12456487  0.37501345  0.74958841  1
  V  V83  1  0.37453218  0.37578856  0.50065157  1
  V  V84  1  0.87463822  0.12407389  0.75083104  1
  V  V85  1  0.62442814  0.75066570  0.87502931  1
  V  V86  1  0.24848113  0.37599423  0.62535921  1
  V  V87  1  0.50025393  0.62455580  0.12378009  1
  V  V88  1  0.62416837  0.37432797  0.25121717  1
  V  V89  1  0.25011641  0.62372711  0.87470062  1
  V  V90  1  0.62528900  0.87563662  0.25077831  1
  V  V91  1  0.49899617  0.00119708  0.49988514  1
  V  V92  1  0.12373718  0.49948949  0.62525042  1
  V  V93  1  0.49951951  0.12606961  0.62510531  1
  V  V94  1  0.24981122  0.49813915  0.24985183  1
  V  V95  1  0.74885222  0.24962327  -0.00056926  1
  Zn  Zn96  1  -0.00083349  0.00108540  0.49863759  1
  Zn  Zn97  1  0.62605674  0.62526814  -0.00115410  1
  Zn  Zn98  1  0.75001283  0.75330807  0.49848254  1
  Zn  Zn99  1  0.74969699  0.87425770  0.12534634  1
  Zn  Zn100  1  0.87261198  0.37356632  0.49910350  1
  Zn  Zn101  1  0.24835023  0.12405558  0.37530053  1
  Zn  Zn102  1  0.50185177  0.49860209  -0.00146260  1
  Zn  Zn103  1  0.87271367  0.25013769  0.12620034  1
  Zn  Zn104  1  0.12480999  0.12389210  0.49768127  1
  Zn  Zn105  1  0.37515784  0.62562288  0.75111127  1
  Zn  Zn106  1  0.37815555  0.00038081  0.87567926  1
  Zn  Zn107  1  0.24993322  0.75025336  0.00099025  1
  Zn  Zn108  1  0.25011532  0.50000912  0.74890504  1
  Zn  Zn109  1  0.62581084  0.12460420  -0.00256707  1
  Zn  Zn110  1  0.00106659  0.74898025  0.74865015  1
  Zn  Zn111  1  0.12579717  0.62416531  0.50103512  1
  Zn  Zn112  1  0.87455677  0.87786254  0.49986905  1
  Zn  Zn113  1  0.50260988  -0.00114902  -0.00404341  1
  Zn  Zn114  1  0.12554747  0.49950746  0.12475182  1
  Zn  Zn115  1  0.49926976  0.37670878  0.87592398  1
  Zn  Zn116  1  0.74940798  0.25158169  0.50088861  1
  Zn  Zn117  1  0.49907174  0.87676156  0.87480237  1
  Zn  Zn118  1  0.12492605  -0.00254705  0.12476122  1
  Zn  Zn119  1  0.50091381  0.75048937  0.25007071  1
  Zn  Zn120  1  0.87429704  0.50107206  0.87398393  1
  Zn  Zn121  1  0.00091231  0.87416269  0.87612106  1
  Zn  Zn122  1  0.62307710  0.25137035  0.37699401  1
  Zn  Zn123  1  0.25024966  0.87449259  0.62457919  1
  Zn  Zn124  1  0.75013825  0.37490628  0.12500479  1
  Zn  Zn125  1  0.74828338  0.12373248  0.87511821  1
  Zn  Zn126  1  0.87546239  0.00008540  0.37778508  1
  Zn  Zn127  1  0.49936345  0.25012627  0.25137478  1
  Zn  Zn128  1  0.18647087  0.18520298  0.18851865  1
  Zn  Zn129  1  0.18750736  0.18783096  0.68710446  1
  Zn  Zn130  1  0.18812540  0.68694343  0.18720472  1
  Zn  Zn131  1  0.18910692  0.68546185  0.68704698  1
  Zn  Zn132  1  0.68775321  0.18954133  0.18624466  1
  Zn  Zn133  1  0.68809187  0.18774857  0.68849112  1
  Zn  Zn134  1  0.68809306  0.68845640  0.18836334  1
  Zn  Zn135  1  0.68729392  0.68967582  0.68741033  1
  Zn  Zn136  1  0.31249476  0.31085426  0.31273034  1
  Zn  Zn137  1  0.31168791  0.31337074  0.81277842  1
  Zn  Zn138  1  0.31417699  0.81098969  0.31238798  1
  Zn  Zn139  1  0.31192067  0.81259484  0.81298097  1
  Zn  Zn140  1  0.81182182  0.31219267  0.31274291  1
  Zn  Zn141  1  0.81168667  0.31305528  0.81281278  1
  Zn  Zn142  1  0.81173072  0.81296264  0.31095385  1
  Zn  Zn143  1  0.81219201  0.81336773  0.81180478  1
  Zn  Zn144  1  0.18541730  0.43636861  0.43797374  1
  Zn  Zn145  1  0.18783975  0.43736928  0.93887015  1
  Zn  Zn146  1  0.18732398  0.93527915  0.43725133  1
  Zn  Zn147  1  0.19077385  0.93839867  0.93896493  1
  Zn  Zn148  1  0.68862884  0.43898897  0.43835452  1
  Zn  Zn149  1  0.68820649  0.43753536  0.93563518  1
  Zn  Zn150  1  0.68807950  0.93918258  0.43862203  1
  Zn  Zn151  1  0.68969159  0.93492602  0.93674963  1
  Zn  Zn152  1  0.31249448  0.05926053  0.06354996  1
  Zn  Zn153  1  0.31037881  0.06433784  0.56249955  1
  Zn  Zn154  1  0.31091723  0.56135671  0.06126425  1
  Zn  Zn155  1  0.31190893  0.56375789  0.56341701  1
  Zn  Zn156  1  0.81315165  0.06386906  0.06256085  1
  Zn  Zn157  1  0.81487733  0.06142138  0.56055592  1
  Zn  Zn158  1  0.81280403  0.56281434  0.06124134  1
  Zn  Zn159  1  0.81208253  0.56251356  0.56061632  1
  Zn  Zn160  1  0.43771445  0.43789321  0.18699211  1
  Zn  Zn161  1  0.43658011  0.43900244  0.68963866  1
  Zn  Zn162  1  0.43880563  0.93773403  0.18677827  1
  Zn  Zn163  1  0.43734627  0.93756583  0.68748172  1
  Zn  Zn164  1  0.93863482  0.43743393  0.18600095  1
  Zn  Zn165  1  0.93619455  0.43740402  0.68721434  1
  Zn  Zn166  1  0.93613470  0.93827259  0.18818289  1
  Zn  Zn167  1  0.94000674  0.93615855  0.68971965  1
  Zn  Zn168  1  0.06421374  0.06129353  0.31091560  1
  Zn  Zn169  1  0.06190688  0.06226477  0.81384045  1
  Zn  Zn170  1  0.06384008  0.56164010  0.31211303  1
  Zn  Zn171  1  0.05990411  0.56091907  0.81077327  1
  Zn  Zn172  1  0.56261916  0.06256422  0.31123378  1
  Zn  Zn173  1  0.56194045  0.06326546  0.81421613  1
  Zn  Zn174  1  0.56203280  0.56232333  0.31194197  1
  Zn  Zn175  1  0.56167979  0.56507817  0.81237019  1
  Zn  Zn176  1  0.43698301  0.18890173  0.43597238  1
  Zn  Zn177  1  0.43848092  0.18837212  0.93747644  1
  Zn  Zn178  1  0.43834000  0.68864699  0.43747890  1
  Zn  Zn179  1  0.43852925  0.68911608  0.93913508  1
  Zn  Zn180  1  0.93710304  0.18704307  0.44014107  1
  Zn  Zn181  1  0.93662116  0.18601782  0.93736792  1
  Zn  Zn182  1  0.93839636  0.68762932  0.43900626  1
  Zn  Zn183  1  0.93728905  0.68732729  0.93596213  1
  Zn  Zn184  1  0.06216182  0.31034112  0.06451161  1
  Zn  Zn185  1  0.06054344  0.31276570  0.56105255  1
  Zn  Zn186  1  0.06218986  0.81209758  0.06171201  1
  Zn  Zn187  1  0.06341885  0.81124147  0.56164557  1
  Zn  Zn188  1  0.56070498  0.31326538  0.06139138  1
  Zn  Zn189  1  0.56368404  0.31257633  0.56262317  1
  Zn  Zn190  1  0.56281383  0.81158026  0.06230823  1
  Zn  Zn191  1  0.56251391  0.81311540  0.56210485  1
  O  O192  1  0.11793892  0.12258247  0.11852755  1
  O  O193  1  0.11933919  0.11519226  0.62721064  1
  O  O194  1  0.11857695  0.62453566  0.11757992  1
  O  O195  1  0.11837739  0.61790419  0.62476487  1
  O  O196  1  0.61705699  0.11752192  0.12504843  1
  O  O197  1  0.61884285  0.12001122  0.62088174  1
  O  O198  1  0.61742570  0.61608036  0.12720455  1
  O  O199  1  0.61933565  0.62069396  0.61953044  1
  O  O200  1  0.37984899  0.38081988  0.38066921  1
  O  O201  1  0.37324340  0.38450048  0.88103151  1
  O  O202  1  0.38118565  0.88015687  0.38054449  1
  O  O203  1  0.37460188  0.87517307  0.88655777  1
  O  O204  1  0.88073664  0.38274069  0.37403294  1
  O  O205  1  0.88153173  0.37577248  0.88478618  1
  O  O206  1  0.88653025  0.87411393  0.37430731  1
  O  O207  1  0.87811478  0.88046467  0.88061993  1
  O  O208  1  0.25670520  -0.00055633  0.36865129  1
  O  O209  1  0.25210116  0.00832072  0.86835361  1
  O  O210  1  0.25595092  0.50373764  0.37028893  1
  O  O211  1  0.25707665  0.50790589  0.87513243  1
  O  O212  1  0.74862801  0.01189682  0.36888088  1
  O  O213  1  0.75699982  0.00063297  0.86781965  1
  O  O214  1  0.75541862  0.50662262  0.36887469  1
  O  O215  1  0.75059383  0.50754241  0.86739959  1
  O  O216  1  0.24931480  0.49235236  0.13199855  1
  O  O217  1  0.24343383  0.49384618  0.62603598  1
  O  O218  1  0.24890229  0.99084533  0.13281409  1
  O  O219  1  0.23987929  1.00003856  0.63212400  1
  O  O220  1  0.74060274  0.50039077  0.13072442  1
  O  O221  1  0.74319692  0.49607837  0.63041689  1
  O  O222  1  0.73968283  1.00150345  0.13095495  1
  O  O223  1  0.74457424  0.99540845  0.63055913  1
  O  O224  1  0.00485872  0.36938391  0.25472984  1
  O  O225  1  0.00462707  0.36899025  0.75582805  1
  O  O226  1  0.00530889  0.86828407  0.25635784  1
  O  O227  1  0.01526664  0.87306762  0.75384476  1
  O  O228  1  0.50896577  0.37733546  0.25607383  1
  O  O229  1  0.50609931  0.36911030  0.75049027  1
  O  O230  1  0.50714513  0.87470987  0.25707363  1
  O  O231  1  0.50696973  0.86856220  0.74952810  1
  O  O232  1  0.49432891  0.12539582  0.23870958  1
  O  O233  1  0.49454185  0.13206633  0.74348341  1
  O  O234  1  0.49366642  0.62358970  0.23944141  1
  O  O235  1  0.49848173  0.63338712  0.74269790  1
  O  O236  1  0.99445304  0.12940138  0.24594728  1
  O  O237  1  0.99472784  0.13078392  0.74530076  1
  O  O238  1  0.99501045  0.62975032  0.24460599  1
  O  O239  1  0.99251062  0.62553293  0.74212708  1
  O  O240  1  0.36862155  0.25463095  0.00618415  1
  O  O241  1  0.36973210  0.25699333  0.50563034  1
  O  O242  1  0.37304075  0.75822658  0.00707422  1
  O  O243  1  0.37125423  0.75579949  0.50498997  1
  O  O244  1  0.86707441  0.25862118  -0.00073283  1
  O  O245  1  0.87185527  0.25231644  0.50992657  1
  O  O246  1  0.87117735  0.75484810  0.00447012  1
  O  O247  1  0.87331378  0.75129493  0.51294993  1
  O  O248  1  0.13077009  0.25049880  0.49332692  1
  O  O249  1  0.13038662  0.24393137  0.99479556  1
  O  O250  1  0.13295210  0.74752020  0.49344397  1
  O  O251  1  0.12626211  0.74398817  0.98932216  1
  O  O252  1  0.62735694  0.24195709  0.49834001  1
  O  O253  1  0.63426335  0.25274018  0.99430617  1
  O  O254  1  0.62582762  0.74386468  0.49293149  1
  O  O255  1  0.63253133  0.74871695  0.99404852  1
  O  O256  1  0.49454718  0.24060725  0.12649653  1
  O  O257  1  0.49349549  0.24563498  0.62993682  1
  O  O258  1  0.49587616  0.73912308  0.12745891  1
  O  O259  1  0.49495523  0.74533845  0.62957541  1
  O  O260  1  0.99818749  0.24228567  0.13257361  1
  O  O261  1  0.99528482  0.24521972  0.63206847  1
  O  O262  1  0.99447020  0.74357888  0.12984113  1
  O  O263  1  0.99177063  0.74411354  0.62603320  1
  O  O264  1  0.00414920  0.25520504  0.36936411  1
  O  O265  1  0.00595440  0.25442432  0.87018122  1
  O  O266  1  0.00505185  0.75559011  0.36879044  1
  O  O267  1  0.01358579  0.74993017  0.87099644  1
  O  O268  1  0.50208408  0.25935504  0.37166841  1
  O  O269  1  0.50603369  0.25249228  0.86802566  1
  O  O270  1  0.50671640  0.75685313  0.37303322  1
  O  O271  1  0.50659301  0.75097115  0.86838968  1
  O  O272  1  0.24707913  0.13423739  0.49735355  1
  O  O273  1  0.24541801  0.12972141  0.99634041  1
  O  O274  1  0.24981562  0.63085563  0.49196650  1
  O  O275  1  0.24315953  0.62563816  0.98960296  1
  O  O276  1  0.74338324  0.12424053  0.49094738  1
  O  O277  1  0.75020411  0.13819097  0.99805642  1
  O  O278  1  0.74227442  0.62609059  0.49226148  1
  O  O279  1  0.75030752  0.63175026  0.99214991  1
  O  O280  1  0.25456221  0.36809595  0.00643730  1
  O  O281  1  0.25571267  0.37029028  0.50560273  1
  O  O282  1  0.25953560  0.87282782  0.00697710  1
  O  O283  1  0.25727560  0.86717458  0.50090926  1
  O  O284  1  0.75896947  0.36804361  -0.00049036  1
  O  O285  1  0.75141938  0.37390279  0.50841089  1
  O  O286  1  0.75824286  0.86726141  0.00228793  1
  O  O287  1  0.75254205  0.87363081  0.50813031  1
  O  O288  1  0.13207430  0.49216074  0.24880171  1
  O  O289  1  0.12520767  0.49191248  0.74353722  1
  O  O290  1  0.13257037  0.99092422  0.24808119  1
  O  O291  1  0.13029004  0.99338783  0.74460652  1
  O  O292  1  0.62977412  0.49333693  0.24253838  1
  O  O293  1  0.62894296  0.49610878  0.74406480  1
  O  O294  1  0.62971309  0.99586932  0.24123028  1
  O  O295  1  0.63030459  0.99569852  0.74359138  1
  O  O296  1  0.37026030  0.00351609  0.25536044  1
  O  O297  1  0.36828647  0.00794826  0.74907524  1
  O  O298  1  0.36930752  0.50415716  0.25601117  1
  O  O299  1  0.37192286  0.50262265  0.76278255  1
  O  O300  1  0.86726093  0.00731226  0.25222061  1
  O  O301  1  0.87088988  0.00399493  0.75485874  1
  O  O302  1  0.87040432  0.50577827  0.25394407  1
  O  O303  1  0.86691219  0.50672112  0.75022814  1
  O  O304  1  0.11834353  0.36921255  0.36846423  1
  O  O305  1  0.12026128  0.36878011  0.87079020  1
  O  O306  1  0.11805969  0.86761691  0.36853967  1
  O  O307  1  0.12772624  0.86605540  0.86835027  1
  O  O308  1  0.61975528  0.37834278  0.36567140  1
  O  O309  1  0.62224066  0.37008881  0.86773037  1
  O  O310  1  0.61997571  0.87150304  0.37067215  1
  O  O311  1  0.62440545  0.86813726  0.86764361  1
  O  O312  1  0.38271287  0.12818485  0.12952650  1
  O  O313  1  0.38003624  0.13193613  0.63034176  1
  O  O314  1  0.38189048  0.62739477  0.12870859  1
  O  O315  1  0.38185506  0.63137638  0.62665322  1
  O  O316  1  0.88120258  0.12742677  0.13237746  1
  O  O317  1  0.88093360  0.12980062  0.63214934  1
  O  O318  1  0.88105004  0.62976081  0.13027036  1
  O  O319  1  0.87852420  0.63267107  0.62909868  1
  O  O320  1  0.25523366  0.25379264  0.12003449  1
  O  O321  1  0.25489522  0.25633355  0.61971067  1
  O  O322  1  0.25746225  0.75454652  0.12363948  1
  O  O323  1  0.25681862  0.74985745  0.61835743  1
  O  O324  1  0.75043643  0.25428026  0.11341273  1
  O  O325  1  0.75632914  0.25685562  0.62632353  1
  O  O326  1  0.75706108  0.74962118  0.11841628  1
  O  O327  1  0.75897812  0.75615293  0.62417386  1
  O  O328  1  0.24311567  0.25003917  0.38127780  1
  O  O329  1  0.24435911  0.24494658  0.88144612  1
  O  O330  1  0.24614881  0.74371833  0.37943613  1
  O  O331  1  0.24065019  0.74024599  0.87609120  1
  O  O332  1  0.74665142  0.23808059  0.37620461  1
  O  O333  1  0.74326240  0.25034662  0.88322204  1
  O  O334  1  0.74384221  0.74362550  0.37558705  1
  O  O335  1  0.74454489  0.74518316  0.87882707  1
  O  O336  1  0.00479812  0.12003401  0.00541138  1
  O  O337  1  0.00464940  0.12221859  0.50919211  1
  O  O338  1  0.00352883  0.61895193  0.00399334  1
  O  O339  1  0.00219239  0.61769955  0.50660599  1
  O  O340  1  0.50112211  0.12336055  0.01337060  1
  O  O341  1  0.50367021  0.12024536  0.50553063  1
  O  O342  1  0.50199574  0.62257253  0.01338105  1
  O  O343  1  0.50513906  0.61956402  0.50515181  1
  O  O344  1  0.49441184  0.38171523  0.49629538  1
  O  O345  1  0.49053968  0.37804394  0.99753168  1
  O  O346  1  0.49487580  0.88220677  0.49453630  1
  O  O347  1  0.48866203  0.87510780  1.00028937  1
  O  O348  1  0.99699369  0.38175828  0.49188975  1
  O  O349  1  0.99351125  0.37742303  0.99552966  1
  O  O350  1  1.00060331  0.87396128  0.48677853  1
  O  O351  1  0.99380805  0.88123859  0.99885960  1
  O  O352  1  0.49404830  0.49603895  0.38144369  1
  O  O353  1  0.48845981  0.50134070  0.87754312  1
  O  O354  1  0.49458789  0.99541280  0.38056923  1
  O  O355  1  0.49652296  0.99591196  0.87866842  1
  O  O356  1  0.99479576  0.49520645  0.37850361  1
  O  O357  1  0.99791219  0.49250250  0.88157966  1
  O  O358  1  1.00091041  0.98680328  0.37358134  1
  O  O359  1  0.99378283  0.99854197  0.88241591  1
  O  O360  1  0.00134435  0.00632284  0.11865662  1
  O  O361  1  0.01147960  0.00506457  0.62830453  1
  O  O362  1  0.00221421  0.50693729  0.11811431  1
  O  O363  1  0.00394244  0.50416130  0.61945552  1
  O  O364  1  0.50998002  0.00830999  0.12476562  1
  O  O365  1  0.50520160  0.00679171  0.61969230  1
  O  O366  1  0.50832534  0.50808771  0.12475329  1
  O  O367  1  0.50463987  0.50605525  0.62016244  1
  O  O368  1  0.24511711  0.37895711  0.24551870  1
  O  O369  1  0.24211038  0.37543112  0.74320939  1
  O  O370  1  0.24628151  0.87810513  0.24539942  1
  O  O371  1  0.23998053  0.88122817  0.74913721  1
  O  O372  1  0.74087700  0.38162895  0.24856211  1
  O  O373  1  0.74350576  0.38174317  0.74510152  1
  O  O374  1  0.74295716  0.88306303  0.24863732  1
  O  O375  1  0.74387933  0.88122013  0.74347222  1
  O  O376  1  0.25717035  0.11654285  0.25018975  1
  O  O377  1  0.25541702  0.12253830  0.75607773  1
  O  O378  1  0.25575598  0.61820703  0.25527841  1
  O  O379  1  0.25170329  0.62232806  0.76347646  1
  O  O380  1  0.75325997  0.12222495  0.25747132  1
  O  O381  1  0.75724741  0.11756444  0.75038348  1
  O  O382  1  0.75608381  0.61985198  0.25556283  1
  O  O383  1  0.75426547  0.62051129  0.75395662  1
  O  O384  1  0.37440390  0.11787322  0.36803314  1
  O  O385  1  0.36855978  0.12604075  0.86880976  1
  O  O386  1  0.37077185  0.61897366  0.36949849  1
  O  O387  1  0.36580277  0.61828648  0.87785214  1
  O  O388  1  0.86522879  0.12419447  0.36957090  1
  O  O389  1  0.87345940  0.11787388  0.86789214  1
  O  O390  1  0.87038137  0.62048254  0.36846234  1
  O  O391  1  0.86838739  0.62493512  0.86656528  1
  O  O392  1  0.13182669  0.37463937  0.13179283  1
  O  O393  1  0.12885293  0.37939572  0.63048314  1
  O  O394  1  0.13220661  0.87286373  0.13149230  1
  O  O395  1  0.12626405  0.88245611  0.63410780  1
  O  O396  1  0.62361548  0.38559732  0.13375766  1
  O  O397  1  0.62948018  0.38205356  0.63072909  1
  O  O398  1  0.62526859  0.88487167  0.13092814  1
  O  O399  1  0.62999102  0.88131934  0.62998887  1
  O  O400  1  0.11925968  0.25499413  0.25572585  1
  O  O401  1  0.11907616  0.25492554  0.75616089  1
  O  O402  1  0.11962889  0.75401232  0.25581944  1
  O  O403  1  0.12721444  0.75788449  0.75708613  1
  O  O404  1  0.62340367  0.26472098  0.24998546  1
  O  O405  1  0.61967201  0.25636257  0.75451006  1
  O  O406  1  0.62395944  0.75691773  0.25657027  1
  O  O407  1  0.61971803  0.75658380  0.75446962  1
  O  O408  1  0.37585639  0.24321270  0.24253773  1
  O  O409  1  0.37949196  0.24629609  0.74409032  1
  O  O410  1  0.37778846  0.74162856  0.24373654  1
  O  O411  1  0.38085202  0.74956415  0.74392313  1
  O  O412  1  0.88097313  0.24395131  0.24852524  1
  O  O413  1  0.88069159  0.24474650  0.74597146  1
  O  O414  1  0.88033976  0.74380807  0.24391391  1
  O  O415  1  0.87620693  0.74484854  0.73897489  1
  O  O416  1  0.38031341  0.49490320  0.49512416  1
  O  O417  1  0.37427403  0.49397362  0.99094194  1
  O  O418  1  0.37980603  0.99561296  0.49575733  1
  O  O419  1  0.37731658  0.98768268  1.00056029  1
  O  O420  1  0.88124772  0.49925885  0.49178896  1
  O  O421  1  0.88026315  0.48993617  0.99806191  1
  O  O422  1  0.88154537  0.99524188  0.49622022  1
  O  O423  1  0.87948802  0.99505467  0.99491415  1
  O  O424  1  0.11908378  0.00603660  0.00130050  1
  O  O425  1  0.12437947  -0.00114418  0.51336169  1
  O  O426  1  0.11821971  0.50588530  0.00125030  1
  O  O427  1  0.11754686  0.50055763  0.50689056  1
  O  O428  1  0.62654860  0.00130670  0.01154551  1
  O  O429  1  0.61788715  0.00622366  0.50624721  1
  O  O430  1  0.62538983  0.50138063  0.01190980  1
  O  O431  1  0.61847664  0.50632544  0.50550088  1
  O  O432  1  0.36935273  0.36893515  0.12119886  1
  O  O433  1  0.36925985  0.37116737  0.61995570  1
  O  O434  1  0.37137950  0.86851492  0.11975852  1
  O  O435  1  0.37334459  0.86896832  0.61800527  1
  O  O436  1  0.87369324  0.37316404  0.11262694  1
  O  O437  1  0.86778724  0.36830942  0.62552800  1
  O  O438  1  0.87330170  0.86750277  0.11912703  1
  O  O439  1  0.87131714  0.86581131  0.62722961  1
  O  O440  1  0.12711044  0.13290587  0.37608976  1
  O  O441  1  0.13063733  0.13101813  0.88090970  1
  O  O442  1  0.13228209  0.63075704  0.37541936  1
  O  O443  1  0.13084789  0.63063456  0.87770243  1
  O  O444  1  0.63250657  0.12609719  0.37931880  1
  O  O445  1  0.62740920  0.13496328  0.87780723  1
  O  O446  1  0.62929388  0.62967555  0.37874707  1
  O  O447  1  0.63184513  0.63235220  0.87627163  1
