# generated using pymatgen
data_V3Zn3O8
_symmetry_space_group_name_H-M   'P 1'
_cell_length_a   17.08590339
_cell_length_b   17.08621625
_cell_length_c   17.08566632
_cell_angle_alpha   89.99794712
_cell_angle_beta   89.97973426
_cell_angle_gamma   89.99302986
_symmetry_Int_Tables_number   1
_chemical_formula_structural   V3Zn3O8
_chemical_formula_sum   'V96 Zn96 O256'
_cell_volume   4987.87699682
_cell_formula_units_Z   32
loop_
 _symmetry_equiv_pos_site_id
 _symmetry_equiv_pos_as_xyz
  1  'x, y, z'
loop_
 _atom_site_type_symbol
 _atom_site_label
 _atom_site_symmetry_multiplicity
 _atom_site_fract_x
 _atom_site_fract_y
 _atom_site_fract_z
 _atom_site_occupancy
  V  V0  1  0.62364117  0.87496261  0.75038428  1
  V  V1  1  0.00060265  0.62366751  0.12454304  1
  V  V2  1  0.75008395  0.00160568  0.25066645  1
  V  V3  1  0.00044795  0.24939460  0.24914979  1
  V  V4  1  0.75039202  0.37696765  0.62605399  1
  V  V5  1  0.37256545  -0.00012126  0.87388906  1
  V  V6  1  0.49815210  -0.00090693  0.49791715  1
  V  V7  1  0.87698835  0.49981152  0.37588312  1
  V  V8  1  0.00029157  0.49803829  -0.00009669  1
  V  V9  1  0.24955300  0.37410311  0.62528448  1
  V  V10  1  0.37468109  0.24890371  0.62547108  1
  V  V11  1  0.25068553  0.74949430  0.49972700  1
  V  V12  1  0.87541853  0.37468543  -0.00066929  1
  V  V13  1  0.49984244  0.62477774  0.62518095  1
  V  V14  1  0.00026650  0.75055479  0.24982745  1
  V  V15  1  0.00048265  0.37510070  0.37579476  1
  V  V16  1  0.49999882  0.49902609  0.50069313  1
  V  V17  1  0.00097555  0.12462616  0.12370060  1
  V  V18  1  0.62576668  0.37642959  0.25078810  1
  V  V19  1  0.75076473  0.62515957  0.37540561  1
  V  V20  1  0.62614278  0.25113750  0.37619829  1
  V  V21  1  0.87563943  0.62472029  0.25069819  1
  V  V22  1  0.12645388  0.37474945  0.25030455  1
  V  V23  1  0.62523778  0.00102240  0.12535114  1
  V  V24  1  0.37435652  0.62389058  0.74951237  1
  V  V25  1  0.12512528  0.37392805  0.74875960  1
  V  V26  1  0.37407985  0.74938594  0.62384951  1
  V  V27  1  0.24869442  0.62474532  0.87447353  1
  V  V28  1  0.62515634  0.62566670  0.00045166  1
  V  V29  1  0.75008013  0.12455319  0.87370475  1
  V  V30  1  0.49939479  0.75050506  0.74998561  1
  V  V31  1  0.25063743  0.50049290  0.25031063  1
  V  V32  1  0.24867171  0.87526271  0.12580630  1
  V  V33  1  0.62509070  0.62514609  0.50036773  1
  V  V34  1  0.50227750  0.25152457  0.75300928  1
  V  V35  1  0.87601602  0.37608840  0.50012601  1
  V  V36  1  0.37400635  0.62515398  0.25026198  1
  V  V37  1  0.62546116  0.50034501  0.12600301  1
  V  V38  1  0.12441318  0.75112464  0.37420005  1
  V  V39  1  0.37424500  0.12390732  0.75104324  1
  V  V40  1  0.12562797  0.24947447  0.37458549  1
  V  V41  1  0.87397031  0.24928535  0.62495418  1
  V  V42  1  0.00013248  0.37442380  0.87387324  1
  V  V43  1  0.50022808  0.37591794  0.37598588  1
  V  V44  1  0.50194116  0.12576220  0.12579401  1
  V  V45  1  0.12359297  -0.00068089  0.62370736  1
  V  V46  1  0.12451897  0.62516570  0.50124032  1
  V  V47  1  0.87453703  0.74988259  0.12532004  1
  V  V48  1  0.49837400  0.87428258  0.87414303  1
  V  V49  1  0.49968878  0.50041353  -0.00026050  1
  V  V50  1  0.74960814  0.87459131  0.12467894  1
  V  V51  1  0.62375079  0.87501713  0.25049998  1
  V  V52  1  0.74929408  0.74962769  0.00142433  1
  V  V53  1  0.49924270  0.62575092  0.12513779  1
  V  V54  1  -0.00118968  0.75035466  0.75080566  1
  V  V55  1  -0.00162358  0.87536530  0.87622026  1
  V  V56  1  0.87438464  0.62535885  0.75076335  1
  V  V57  1  0.74859755  -0.00057822  0.75067776  1
  V  V58  1  0.25047581  0.24836320  -0.00177531  1
  V  V59  1  0.87596575  0.25104360  0.12468151  1
  V  V60  1  0.62603256  0.12662390  0.49942525  1
  V  V61  1  0.24960536  0.49787426  0.74912138  1
  V  V62  1  0.62438741  0.75049153  0.37418035  1
  V  V63  1  0.00093714  0.62531043  0.62454544  1
  V  V64  1  0.37551720  0.50006924  0.87551591  1
  V  V65  1  0.37446066  0.87441421  -0.00085194  1
  V  V66  1  0.87399527  0.00163592  0.37498128  1
  V  V67  1  0.62604064  0.50027987  0.62648586  1
  V  V68  1  0.12493414  0.12368979  0.49976968  1
  V  V69  1  0.37617110  0.37630054  0.00027270  1
  V  V70  1  0.37457905  0.75060038  0.12439833  1
  V  V71  1  0.75004327  0.62586785  0.87600272  1
  V  V72  1  0.75007951  0.49976544  0.25026392  1
  V  V73  1  0.37577381  0.37436552  0.49964732  1
  V  V74  1  0.25157157  0.37516908  0.12465038  1
  V  V75  1  0.25021525  0.00077764  0.24864940  1
  V  V76  1  -0.00082361  0.87466800  0.37428102  1
  V  V77  1  0.75033298  0.50176110  0.75048026  1
  V  V78  1  -0.00029119  0.00036977  -0.00035392  1
  V  V79  1  0.25069110  0.24925463  0.49925505  1
  V  V80  1  0.87467727  0.75061065  0.62519816  1
  V  V81  1  0.24991093  0.87509509  0.62469542  1
  V  V82  1  0.25070671  0.12410965  0.37244138  1
  V  V83  1  0.75075774  0.25060273  -0.00006187  1
  V  V84  1  0.50030519  0.75066123  0.25036374  1
  V  V85  1  0.87385456  0.87531338  0.49957586  1
  V  V86  1  0.62589691  0.12580256  0.00160323  1
  V  V87  1  0.74898374  0.87552019  0.62663828  1
  V  V88  1  0.74922054  0.75040871  0.50014532  1
  V  V89  1  0.12488656  0.74809251  0.87575423  1
  V  V90  1  0.12487442  0.49975702  0.12446978  1
  V  V91  1  0.24997098  0.62516841  0.37484605  1
  V  V92  1  0.50081715  0.25059419  0.24944778  1
  V  V93  1  0.49958909  0.12498201  0.62492319  1
  V  V94  1  0.37600846  0.12544701  0.24949917  1
  V  V95  1  -0.00029778  0.24788081  0.74915660  1
  Zn  Zn96  1  0.24878234  0.74783613  0.00039560  1
  Zn  Zn97  1  0.87387401  0.12215753  0.74823464  1
  Zn  Zn98  1  0.12633311  0.12478324  -0.00369026  1
  Zn  Zn99  1  0.62402189  0.75098589  0.87634179  1
  Zn  Zn100  1  -0.00150534  0.00082023  0.49970248  1
  Zn  Zn101  1  0.12403585  0.87669567  0.24942412  1
  Zn  Zn102  1  0.12545950  0.62245405  -0.00034849  1
  Zn  Zn103  1  0.87522572  0.50011761  0.87530740  1
  Zn  Zn104  1  0.00265083  0.50013219  0.50158754  1
  Zn  Zn105  1  0.62531444  0.25349392  0.87645849  1
  Zn  Zn106  1  0.62434881  -0.00001492  0.62466541  1
  Zn  Zn107  1  0.87309120  0.87525880  0.00082209  1
  Zn  Zn108  1  0.87510941  -0.00080838  0.87298490  1
  Zn  Zn109  1  0.75194030  0.12862754  0.37484615  1
  Zn  Zn110  1  0.12686652  0.24618049  0.87311515  1
  Zn  Zn111  1  0.37698268  0.25032409  0.12435767  1
  Zn  Zn112  1  0.37729319  0.87388101  0.49808336  1
  Zn  Zn113  1  0.50308249  0.37606730  0.87573734  1
  Zn  Zn114  1  0.24786866  0.12378261  0.87498129  1
  Zn  Zn115  1  0.62554854  0.37630574  0.75279864  1
  Zn  Zn116  1  0.50005738  0.00085115  0.00029489  1
  Zn  Zn117  1  0.24742256  0.00206056  0.75006200  1
  Zn  Zn118  1  0.37481137  0.49998703  0.37548921  1
  Zn  Zn119  1  0.37385155  -0.00371855  0.37439641  1
  Zn  Zn120  1  0.75006587  0.25126061  0.49979442  1
  Zn  Zn121  1  0.12429962  0.49976844  0.62380752  1
  Zn  Zn122  1  0.87450354  0.12692556  0.25189310  1
  Zn  Zn123  1  -0.00221410  0.12113988  0.62460642  1
  Zn  Zn124  1  0.49746828  0.87472636  0.37514111  1
  Zn  Zn125  1  0.12411509  0.87726650  0.75022572  1
  Zn  Zn126  1  0.12451924  -0.00051012  0.12496735  1
  Zn  Zn127  1  0.75066103  0.37530616  0.12442396  1
  Zn  Zn128  1  0.18751865  0.18752965  0.18399961  1
  Zn  Zn129  1  0.18777495  0.18509144  0.68753090  1
  Zn  Zn130  1  0.18616181  0.68814006  0.18823171  1
  Zn  Zn131  1  0.18625481  0.68782628  0.68862855  1
  Zn  Zn132  1  0.68981075  0.18809961  0.18869489  1
  Zn  Zn133  1  0.68633925  0.18733544  0.68652847  1
  Zn  Zn134  1  0.68733806  0.68699756  0.18771560  1
  Zn  Zn135  1  0.68658390  0.68874017  0.68910180  1
  Zn  Zn136  1  0.31455998  0.31169138  0.31220875  1
  Zn  Zn137  1  0.31555457  0.31304423  0.81439641  1
  Zn  Zn138  1  0.31422965  0.81372929  0.31320356  1
  Zn  Zn139  1  0.31088541  0.81276742  0.81012917  1
  Zn  Zn140  1  0.81265233  0.31261911  0.31287146  1
  Zn  Zn141  1  0.81247604  0.31366203  0.81269716  1
  Zn  Zn142  1  0.81170347  0.81370790  0.31133081  1
  Zn  Zn143  1  0.81155122  0.81194802  0.81440639  1
  Zn  Zn144  1  0.18756120  0.43885872  0.43826065  1
  Zn  Zn145  1  0.18651741  0.43413313  0.93576777  1
  Zn  Zn146  1  0.18765073  0.93724159  0.43708060  1
  Zn  Zn147  1  0.18590609  0.93626579  0.94028697  1
  Zn  Zn148  1  0.68891667  0.43752932  0.43892160  1
  Zn  Zn149  1  0.68733431  0.43724577  0.93582715  1
  Zn  Zn150  1  0.68601587  0.93834113  0.43684469  1
  Zn  Zn151  1  0.68546525  0.93766422  0.93774487  1
  Zn  Zn152  1  0.31580645  0.06281940  0.06286201  1
  Zn  Zn153  1  0.31244840  0.06244472  0.56165987  1
  Zn  Zn154  1  0.31095860  0.56339321  0.06134699  1
  Zn  Zn155  1  0.31189208  0.56074628  0.56228066  1
  Zn  Zn156  1  0.81459036  0.06262412  0.06169383  1
  Zn  Zn157  1  0.80998957  0.06200685  0.56275691  1
  Zn  Zn158  1  0.81339708  0.56130690  0.06245011  1
  Zn  Zn159  1  0.81443907  0.56251941  0.56280484  1
  Zn  Zn160  1  0.43732273  0.43808028  0.18741571  1
  Zn  Zn161  1  0.43726449  0.43590888  0.68724277  1
  Zn  Zn162  1  0.43724475  0.93914326  0.18750215  1
  Zn  Zn163  1  0.43679494  0.93799049  0.68599876  1
  Zn  Zn164  1  0.93788530  0.43628274  0.18750564  1
  Zn  Zn165  1  0.93778179  0.43913585  0.68712621  1
  Zn  Zn166  1  0.93534207  0.93730940  0.18824369  1
  Zn  Zn167  1  0.93662146  0.93703961  0.68941519  1
  Zn  Zn168  1  0.06326611  0.06098855  0.31032320  1
  Zn  Zn169  1  0.06483775  0.06404745  0.81171557  1
  Zn  Zn170  1  0.06337211  0.56262001  0.31314061  1
  Zn  Zn171  1  0.06207410  0.56043784  0.81117228  1
  Zn  Zn172  1  0.56263294  0.06301219  0.31384003  1
  Zn  Zn173  1  0.56266412  0.06219625  0.81361320  1
  Zn  Zn174  1  0.56176169  0.56279590  0.31348676  1
  Zn  Zn175  1  0.56364863  0.56387721  0.81367223  1
  Zn  Zn176  1  0.43780738  0.18657366  0.43518990  1
  Zn  Zn177  1  0.43655853  0.18651913  0.93853554  1
  Zn  Zn178  1  0.43713666  0.68684395  0.43674467  1
  Zn  Zn179  1  0.43588134  0.68807857  0.93731542  1
  Zn  Zn180  1  0.94005818  0.18694591  0.44024476  1
  Zn  Zn181  1  0.93526050  0.18730785  0.93601448  1
  Zn  Zn182  1  0.93838327  0.68816449  0.43843744  1
  Zn  Zn183  1  0.93609724  0.68583662  0.93992583  1
  Zn  Zn184  1  0.06496354  0.31217417  0.06100394  1
  Zn  Zn185  1  0.06242412  0.31178880  0.56252659  1
  Zn  Zn186  1  0.06285684  0.81171313  0.06141722  1
  Zn  Zn187  1  0.06196949  0.81279764  0.56007264  1
  Zn  Zn188  1  0.56421411  0.31345227  0.06296650  1
  Zn  Zn189  1  0.56304499  0.31305639  0.56536015  1
  Zn  Zn190  1  0.56165388  0.81406433  0.06197172  1
  Zn  Zn191  1  0.56320917  0.81328788  0.56365255  1
  O  O192  1  0.11091837  0.12462881  0.12091042  1
  O  O193  1  0.12648386  0.11390505  0.61848352  1
  O  O194  1  0.11845719  0.61798377  0.12432926  1
  O  O195  1  0.11864381  0.62643209  0.61905055  1
  O  O196  1  0.62172155  0.11986238  0.12126919  1
  O  O197  1  0.61842718  0.12496034  0.61454249  1
  O  O198  1  0.61879344  0.61981216  0.12082963  1
  O  O199  1  0.61955662  0.62090123  0.61932824  1
  O  O200  1  0.38218401  0.37574340  0.38209805  1
  O  O201  1  0.37833514  0.38384484  0.88223675  1
  O  O202  1  0.37924661  0.87781973  0.38058301  1
  O  O203  1  0.37823618  0.88090493  0.87788572  1
  O  O204  1  0.88122675  0.38014774  0.38001903  1
  O  O205  1  0.88213006  0.37671703  0.88149065  1
  O  O206  1  0.87806086  0.88256602  0.37963543  1
  O  O207  1  0.88786780  0.87384836  0.87829861  1
  O  O208  1  0.25013150  0.00687542  0.36758234  1
  O  O209  1  0.26123274  -0.00317969  0.87296155  1
  O  O210  1  0.25107950  0.50700818  0.36803250  1
  O  O211  1  0.25527181  0.50420882  0.86862379  1
  O  O212  1  0.75932910  0.00019218  0.36995993  1
  O  O213  1  0.75049086  0.00791916  0.86998657  1
  O  O214  1  0.75615203  0.50610697  0.37021404  1
  O  O215  1  0.75215687  0.50842601  0.86885723  1
  O  O216  1  0.24452353  0.49521677  0.13068445  1
  O  O217  1  0.25000573  0.49181045  0.63190388  1
  O  O218  1  0.25000575  0.99049583  0.12889960  1
  O  O219  1  0.24207603  0.99079459  0.62313530  1
  O  O220  1  0.74357294  0.49999594  0.13282030  1
  O  O221  1  0.74530147  0.49736579  0.63045859  1
  O  O222  1  0.74589876  0.99509531  0.13026963  1
  O  O223  1  0.74719638  0.99272171  0.63191141  1
  O  O224  1  0.00703157  0.36927601  0.25552162  1
  O  O225  1  0.00436418  0.36715464  0.75332011  1
  O  O226  1  0.00016799  0.86780506  0.25584853  1
  O  O227  1  0.00059614  0.86878753  0.76026673  1
  O  O228  1  0.50611131  0.37149845  0.25585068  1
  O  O229  1  0.50012294  0.36338649  0.75061782  1
  O  O230  1  0.50653676  0.86820411  0.24982836  1
  O  O231  1  0.50352439  0.86945612  0.75350869  1
  O  O232  1  0.49661179  0.13116838  0.24580538  1
  O  O233  1  0.49455882  0.13174578  0.74499664  1
  O  O234  1  0.49480653  0.63031871  0.24428090  1
  O  O235  1  0.49388679  0.62984184  0.74408987  1
  O  O236  1  0.99892551  0.13075602  0.24024110  1
  O  O237  1  0.99628609  0.13575659  0.74672767  1
  O  O238  1  0.99445689  0.63003757  0.24492481  1
  O  O239  1  0.99397512  0.63127875  0.74518760  1
  O  O240  1  0.36779814  0.25713066  0.00241541  1
  O  O241  1  0.37042161  0.25413024  0.50531848  1
  O  O242  1  0.37243317  0.75624971  0.00673238  1
  O  O243  1  0.36861717  0.74886686  0.50739903  1
  O  O244  1  0.87041612  0.25545158  0.00524060  1
  O  O245  1  0.87515931  0.25635601  0.50999714  1
  O  O246  1  0.86778333  0.75020496  0.00888657  1
  O  O247  1  0.86789410  0.75500939  0.50513113  1
  O  O248  1  0.13130591  0.24451575  0.49433111  1
  O  O249  1  0.13799939  0.25062655  0.99717747  1
  O  O250  1  0.13124459  0.74468060  0.49368231  1
  O  O251  1  0.12494291  0.74659664  0.98656929  1
  O  O252  1  0.62353426  0.24156973  0.49571128  1
  O  O253  1  0.63281905  0.24321903  1.00006966  1
  O  O254  1  0.63005464  0.74416315  0.49515424  1
  O  O255  1  0.63084870  0.74292301  1.00097151  1
  O  O256  1  0.50121460  0.24389478  0.13265593  1
  O  O257  1  0.49373583  0.24480796  0.63288377  1
  O  O258  1  0.49448504  0.74485107  0.13059383  1
  O  O259  1  0.49420546  0.74391694  0.62955294  1
  O  O260  1  0.99634838  0.24304244  0.12855085  1
  O  O261  1  0.99054412  0.25060128  0.63335995  1
  O  O262  1  0.99493788  0.74426271  0.12975589  1
  O  O263  1  0.99378967  0.74684688  0.63086025  1
  O  O264  1  0.00627350  0.25491780  0.36938705  1
  O  O265  1  -0.00196883  0.25481191  0.86265541  1
  O  O266  1  0.00385580  0.75484116  0.36899910  1
  O  O267  1  0.00597314  0.75581831  0.87197824  1
  O  O268  1  0.50646931  0.25656351  0.36945742  1
  O  O269  1  0.50024774  0.24943064  0.86355581  1
  O  O270  1  0.50750998  0.74877987  0.36825698  1
  O  O271  1  0.49867066  0.75618825  0.86713204  1
  O  O272  1  0.24542310  0.13075644  0.49311268  1
  O  O273  1  0.25045502  0.13615184  1.00102071  1
  O  O274  1  0.24533221  0.63040635  0.49509348  1
  O  O275  1  0.24633018  0.62731680  0.99062593  1
  O  O276  1  0.73636556  0.12685775  0.49913282  1
  O  O277  1  0.74646608  0.12962789  0.99274554  1
  O  O278  1  0.74497317  0.63075420  0.49504250  1
  O  O279  1  0.74470797  0.62955652  0.99650838  1
  O  O280  1  0.25633077  0.36915026  0.00510349  1
  O  O281  1  0.25537787  0.36832909  0.50436713  1
  O  O282  1  0.25545232  0.87247214  0.01023132  1
  O  O283  1  0.25055600  0.86821408  0.51005691  1
  O  O284  1  0.75688840  0.36888500  0.00115336  1
  O  O285  1  0.75772122  0.37460051  0.50792323  1
  O  O286  1  0.74987567  0.86857236  0.00712920  1
  O  O287  1  0.75350325  0.86926819  0.50569111  1
  O  O288  1  0.13077121  0.49411990  0.24475795  1
  O  O289  1  0.13237964  0.49227259  0.74768723  1
  O  O290  1  0.13391006  0.99686044  0.24526056  1
  O  O291  1  0.12724174  0.99772839  0.73751647  1
  O  O292  1  0.63017829  0.49638731  0.24605426  1
  O  O293  1  0.63174737  0.50210185  0.74265991  1
  O  O294  1  0.63018448  0.99520795  0.24544307  1
  O  O295  1  0.63050904  0.99329804  0.74790912  1
  O  O296  1  0.36830284  0.00788139  0.25129801  1
  O  O297  1  0.37376355  0.00483713  0.75822000  1
  O  O298  1  0.36853421  0.50725526  0.25140811  1
  O  O299  1  0.36991250  0.50473842  0.75484389  1
  O  O300  1  0.86904916  0.00054475  0.26049263  1
  O  O301  1  0.86515723  0.00203447  0.75236533  1
  O  O302  1  0.87058369  0.50516498  0.25583774  1
  O  O303  1  0.86828193  0.50844722  0.75050878  1
  O  O304  1  0.12121051  0.36885420  0.36986378  1
  O  O305  1  0.11834519  0.36988418  0.86599951  1
  O  O306  1  0.11812576  0.86813870  0.37408927  1
  O  O307  1  0.11518577  0.86649967  0.87443643  1
  O  O308  1  0.61956650  0.37149729  0.37108715  1
  O  O309  1  0.62071718  0.37133600  0.87059074  1
  O  O310  1  0.62369076  0.86761708  0.36805674  1
  O  O311  1  0.61631332  0.87370097  0.86868209  1
  O  O312  1  0.38419044  0.12689095  0.13198027  1
  O  O313  1  0.37977097  0.13048239  0.63036540  1
  O  O314  1  0.37954181  0.63047538  0.13023841  1
  O  O315  1  0.38017701  0.62904125  0.63027608  1
  O  O316  1  0.88668856  0.13133781  0.12546172  1
  O  O317  1  0.87473600  0.13684263  0.62534000  1
  O  O318  1  0.88060286  0.62942520  0.13210335  1
  O  O319  1  0.87981568  0.63266386  0.63021044  1
  O  O320  1  0.25231490  0.25725612  0.11606253  1
  O  O321  1  0.25573838  0.25409129  0.61871816  1
  O  O322  1  0.25587054  0.75871586  0.12542513  1
  O  O323  1  0.25371805  0.75652698  0.62020514  1
  O  O324  1  0.75814545  0.25121175  0.11864410  1
  O  O325  1  0.75963246  0.25683213  0.62546052  1
  O  O326  1  0.75489267  0.75445425  0.12160177  1
  O  O327  1  0.75509902  0.75509473  0.61978125  1
  O  O328  1  0.24446195  0.24454033  0.37938987  1
  O  O329  1  0.25187205  0.24944208  0.88680528  1
  O  O330  1  0.24451766  0.74468362  0.37950998  1
  O  O331  1  0.23993636  0.74530928  0.87349235  1
  O  O332  1  0.74276385  0.24888513  0.37946670  1
  O  O333  1  0.74919289  0.24050806  0.87982981  1
  O  O334  1  0.74496928  0.74445208  0.38010681  1
  O  O335  1  0.74794720  0.74398178  0.88324406  1
  O  O336  1  -0.00085062  0.11758161  0.00641522  1
  O  O337  1  0.00976248  0.12203824  0.50436206  1
  O  O338  1  0.00097845  0.61677656  0.00742763  1
  O  O339  1  0.00660587  0.62640503  0.50672924  1
  O  O340  1  0.50760993  0.12458734  0.00732147  1
  O  O341  1  0.50695258  0.11920988  0.50428224  1
  O  O342  1  0.50431411  0.62057442  0.00625270  1
  O  O343  1  0.50557639  0.61965793  0.50585402  1
  O  O344  1  0.49540134  0.37963210  0.49631149  1
  O  O345  1  0.49424708  0.38295627  1.00060585  1
  O  O346  1  0.50119800  0.88651916  0.50001121  1
  O  O347  1  0.49237891  0.87666350  0.99326275  1
  O  O348  1  0.99465819  0.37587986  0.49302504  1
  O  O349  1  0.99538887  0.37813853  0.99396928  1
  O  O350  1  0.99080025  0.87516202  0.49229251  1
  O  O351  1  0.99892057  0.88223217  0.99260046  1
  O  O352  1  0.49927090  0.49407414  0.38289907  1
  O  O353  1  0.49272641  0.50221684  0.88205362  1
  O  O354  1  0.49861213  0.99927081  0.38599714  1
  O  O355  1  0.48842985  0.99343888  0.87527876  1
  O  O356  1  0.99438143  0.49317636  0.37559516  1
  O  O357  1  0.99868213  0.49259462  0.88097947  1
  O  O358  1  0.98974160  0.99384957  0.37461821  1
  O  O359  1  1.00036525  0.99141362  0.88108570  1
  O  O360  1  -0.00166302  0.00737847  0.11780394  1
  O  O361  1  0.01046553  -0.00149074  0.62281835  1
  O  O362  1  0.00577432  0.50395227  0.12097420  1
  O  O363  1  0.00256839  0.50935803  0.62293888  1
  O  O364  1  0.50786632  0.00737504  0.12448511  1
  O  O365  1  0.50137484  0.00687592  0.61585911  1
  O  O366  1  0.50539685  0.50716865  0.12030129  1
  O  O367  1  0.50520835  0.50561412  0.62042078  1
  O  O368  1  0.24562351  0.37976415  0.24542258  1
  O  O369  1  0.24607185  0.37784632  0.74454296  1
  O  O370  1  0.25121915  0.88093029  0.23957208  1
  O  O371  1  0.24670188  0.87565752  0.73523024  1
  O  O372  1  0.74357220  0.38257166  0.24960839  1
  O  O373  1  0.74986003  0.38338843  0.74336020  1
  O  O374  1  0.74330229  0.88052103  0.24406385  1
  O  O375  1  0.74415367  0.87909818  0.74648093  1
  O  O376  1  0.25497124  0.12080770  0.25238811  1
  O  O377  1  0.25999369  0.12322465  0.75246063  1
  O  O378  1  0.25452849  0.62020952  0.25493680  1
  O  O379  1  0.25560747  0.61868848  0.75401310  1
  O  O380  1  0.75374199  0.11720908  0.25376855  1
  O  O381  1  0.74776460  0.11905866  0.75851799  1
  O  O382  1  0.75587107  0.61988471  0.25624430  1
  O  O383  1  0.75520838  0.62220602  0.75534308  1
  O  O384  1  0.36757525  0.12467720  0.36739173  1
  O  O385  1  0.37462824  0.11341467  0.87061115  1
  O  O386  1  0.36773118  0.62394370  0.36811864  1
  O  O387  1  0.36875750  0.62015528  0.86842535  1
  O  O388  1  0.87487284  0.11354196  0.37625708  1
  O  O389  1  0.86084512  0.12326092  0.87244288  1
  O  O390  1  0.87014830  0.62065346  0.37007671  1
  O  O391  1  0.86857452  0.62448159  0.86834042  1
  O  O392  1  0.13089039  0.38023646  0.13169461  1
  O  O393  1  0.13254475  0.37486865  0.63048041  1
  O  O394  1  0.13713687  0.87427266  0.12576186  1
  O  O395  1  0.13255132  0.88188859  0.62353170  1
  O  O396  1  0.62675023  0.38324383  0.13297454  1
  O  O397  1  0.63190433  0.38292029  0.62696411  1
  O  O398  1  0.63007671  0.88081575  0.13096425  1
  O  O399  1  0.63206370  0.87566391  0.63220219  1
  O  O400  1  0.12068867  0.25551498  0.25497796  1
  O  O401  1  0.11411192  0.25446386  0.74696999  1
  O  O402  1  0.11758771  0.75155129  0.25700664  1
  O  O403  1  0.11778801  0.75163879  0.76083198  1
  O  O404  1  0.62056400  0.25662429  0.25594786  1
  O  O405  1  0.61239217  0.25030992  0.74969675  1
  O  O406  1  0.61998648  0.75456755  0.25449995  1
  O  O407  1  0.61686278  0.75645735  0.75176917  1
  O  O408  1  0.38308624  0.24421826  0.24786823  1
  O  O409  1  0.38288912  0.24453160  0.74498722  1
  O  O410  1  0.38062613  0.74424141  0.24411194  1
  O  O411  1  0.37924655  0.74322593  0.74334704  1
  O  O412  1  0.88310537  0.24964659  0.24416068  1
  O  O413  1  0.88293086  0.25103005  0.73986902  1
  O  O414  1  0.87968598  0.74370071  0.24547137  1
  O  O415  1  0.87931745  0.74547137  0.74430421  1
  O  O416  1  0.38213370  0.49268651  0.49939640  1
  O  O417  1  0.38039184  0.49659187  0.99522611  1
  O  O418  1  0.38688003  1.00040639  0.49850482  1
  O  O419  1  0.37666385  0.99352645  0.98986528  1
  O  O420  1  0.87772136  0.49470150  0.49297907  1
  O  O421  1  0.88251269  0.49288748  0.99976507  1
  O  O422  1  0.87388934  0.99362881  0.49120333  1
  O  O423  1  0.88754415  0.99707180  0.99657774  1
  O  O424  1  0.11180635  0.00129677  0.00331777  1
  O  O425  1  0.12408099  0.00487738  0.50805637  1
  O  O426  1  0.11839863  0.49823209  0.00688111  1
  O  O427  1  0.12380733  0.50918106  0.50270559  1
  O  O428  1  0.62362627  0.00734234  0.00802432  1
  O  O429  1  0.61670043  0.00979660  0.50047040  1
  O  O430  1  0.61988104  0.50630530  0.00642081  1
  O  O431  1  0.62026351  0.50624460  0.50616763  1
  O  O432  1  0.36870077  0.37507917  0.11852026  1
  O  O433  1  0.36944799  0.36829282  0.61904006  1
  O  O434  1  0.36739055  0.87057609  0.11997759  1
  O  O435  1  0.36560200  0.86847831  0.62287062  1
  O  O436  1  0.87485516  0.36835086  0.11808665  1
  O  O437  1  0.87083286  0.36816608  0.62022419  1
  O  O438  1  0.86724884  0.86747911  0.12486890  1
  O  O439  1  0.86881526  0.86928440  0.61996186  1
  O  O440  1  0.13033165  0.13054105  0.37899319  1
  O  O441  1  0.13040017  0.12862458  0.87825145  1
  O  O442  1  0.13032062  0.63157842  0.37998197  1
  O  O443  1  0.12920574  0.63324876  0.87385289  1
  O  O444  1  0.62445235  0.13238153  0.38514060  1
  O  O445  1  0.63539146  0.12570939  0.88171525  1
  O  O446  1  0.63129451  0.63004367  0.38073922  1
  O  O447  1  0.63137566  0.62798998  0.88306212  1
