# generated using pymatgen
data_V3Zn3O8
_symmetry_space_group_name_H-M   'P 1'
_cell_length_a   17.09211754
_cell_length_b   17.09144207
_cell_length_c   17.09176105
_cell_angle_alpha   90.01045389
_cell_angle_beta   89.99704606
_cell_angle_gamma   89.99840289
_symmetry_Int_Tables_number   1
_chemical_formula_structural   V3Zn3O8
_chemical_formula_sum   'V96 Zn96 O256'
_cell_volume   4992.99789241
_cell_formula_units_Z   32
loop_
 _symmetry_equiv_pos_site_id
 _symmetry_equiv_pos_as_xyz
  1  'x, y, z'
loop_
 _atom_site_type_symbol
 _atom_site_label
 _atom_site_symmetry_multiplicity
 _atom_site_fract_x
 _atom_site_fract_y
 _atom_site_fract_z
 _atom_site_occupancy
  V  V0  1  0.24977657  0.75100123  0.49966426  1
  V  V1  1  0.24929331  0.37403620  0.12413566  1
  V  V2  1  0.12554461  0.12787661  0.49682761  1
  V  V3  1  0.87510299  0.37387028  0.00117888  1
  V  V4  1  0.25079360  0.50004235  0.75067429  1
  V  V5  1  0.62575399  0.75081794  0.87471198  1
  V  V6  1  0.62480408  0.62465929  0.00025199  1
  V  V7  1  0.50173818  0.37555026  0.37454486  1
  V  V8  1  0.00148076  0.37427675  0.87458565  1
  V  V9  1  0.37492560  0.62617372  0.74976098  1
  V  V10  1  0.74939764  0.00061900  0.24958412  1
  V  V11  1  0.62550910  0.87607806  0.24946669  1
  V  V12  1  0.62501793  0.12599853  0.50014295  1
  V  V13  1  0.87457127  0.12512069  0.24972117  1
  V  V14  1  0.50066872  0.25216661  0.75324877  1
  V  V15  1  0.12572500  0.62445637  0.00014742  1
  V  V16  1  0.37595708  0.37447874  0.50017256  1
  V  V17  1  0.25098575  0.37379232  0.62315931  1
  V  V18  1  0.00052310  0.24977499  0.25094346  1
  V  V19  1  -0.00122701  0.00046734  0.50011351  1
  V  V20  1  0.00040154  0.87411215  0.37484933  1
  V  V21  1  0.62508419  0.50088995  0.12450134  1
  V  V22  1  0.75070865  0.62522136  0.37497903  1
  V  V23  1  0.25132442  0.75010356  0.00088891  1
  V  V24  1  0.87539708  0.75058852  0.12489275  1
  V  V25  1  0.37543632  0.62416280  0.24986695  1
  V  V26  1  0.74972220  0.49949993  0.24953426  1
  V  V27  1  0.49965073  0.87559320  0.37519509  1
  V  V28  1  0.74746687  0.12855688  0.87618413  1
  V  V29  1  0.24893879  0.24819006  -0.00018102  1
  V  V30  1  0.75048574  0.62564262  0.87553887  1
  V  V31  1  0.87358789  0.25149715  0.62552279  1
  V  V32  1  0.37572119  0.37548850  -0.00300006  1
  V  V33  1  0.12478827  0.62414640  0.49896766  1
  V  V34  1  0.12535478  0.74955675  0.37491053  1
  V  V35  1  -0.00028985  0.12338004  0.12465704  1
  V  V36  1  0.00125411  0.49917061  -0.00026284  1
  V  V37  1  0.49983361  0.75013113  0.24947370  1
  V  V38  1  0.37430932  0.00152596  0.37483296  1
  V  V39  1  0.75030917  0.75062124  0.49981045  1
  V  V40  1  0.12485788  0.12272834  0.00051332  1
  V  V41  1  0.62456487  -0.00013413  0.62474080  1
  V  V42  1  0.87560180  0.74992176  0.62556385  1
  V  V43  1  0.74971288  0.87573733  0.62432153  1
  V  V44  1  0.74950688  0.37625164  0.62635199  1
  V  V45  1  -0.00174181  0.12585061  0.62473344  1
  V  V46  1  0.50021608  -0.00006280  0.00043231  1
  V  V47  1  0.12539970  0.75079057  0.87462391  1
  V  V48  1  0.62528809  0.00033222  0.12569906  1
  V  V49  1  0.49907086  0.00041712  0.50009310  1
  V  V50  1  0.37443483  0.75055550  0.62337512  1
  V  V51  1  0.74958019  0.25126454  0.50132554  1
  V  V52  1  0.37324655  0.12297024  0.75032623  1
  V  V53  1  0.50106717  0.62450378  0.12378998  1
  V  V54  1  0.12369633  0.49957877  0.62406404  1
  V  V55  1  0.62487440  0.87451895  0.75014561  1
  V  V56  1  0.87616180  0.50037806  0.87566903  1
  V  V57  1  0.62458537  0.12652865  -0.00057372  1
  V  V58  1  0.00110460  0.75099045  0.75057144  1
  V  V59  1  0.87420985  0.25035488  0.12377276  1
  V  V60  1  0.12576427  -0.00227396  0.62689244  1
  V  V61  1  0.49950960  0.62579396  0.62410638  1
  V  V62  1  0.25115305  0.49862783  0.24897859  1
  V  V63  1  0.00026252  0.37470766  0.37542461  1
  V  V64  1  0.49994944  0.24987751  0.24933487  1
  V  V65  1  0.87545974  0.62586911  0.75024654  1
  V  V66  1  0.74910667  0.00114368  0.74965403  1
  V  V67  1  0.00042422  0.25043848  0.75028369  1
  V  V68  1  0.62510924  0.75043176  0.37462873  1
  V  V69  1  0.37382184  0.24938478  0.62414559  1
  V  V70  1  0.49948778  0.12553875  0.12602492  1
  V  V71  1  0.62560270  0.37667092  0.24939972  1
  V  V72  1  0.12541743  0.87408926  0.25075644  1
  V  V73  1  0.62503345  0.62560249  0.50006650  1
  V  V74  1  0.37521084  0.74989311  0.12430815  1
  V  V75  1  0.50031291  0.50001295  0.49997373  1
  V  V76  1  0.37543652  0.50021387  0.37407134  1
  V  V77  1  0.00033421  0.62354836  0.12581421  1
  V  V78  1  0.74964692  0.12654906  0.37594651  1
  V  V79  1  0.12472937  0.24786807  0.87461550  1
  V  V80  1  0.50160286  0.87489917  0.87529670  1
  V  V81  1  0.49898323  0.12457459  0.62521052  1
  V  V82  1  0.37354829  -0.00085363  0.87503107  1
  V  V83  1  0.87580420  0.62459068  0.25012316  1
  V  V84  1  0.25080257  0.00184045  0.25154945  1
  V  V85  1  0.74978243  0.50054689  0.75023486  1
  V  V86  1  0.87641821  -0.00130977  0.87757718  1
  V  V87  1  0.12472618  -0.00115951  0.12561858  1
  V  V88  1  0.62555745  0.50037923  0.62647658  1
  V  V89  1  0.87447203  0.87524839  0.49955454  1
  V  V90  1  0.87563692  0.50002512  0.37587809  1
  V  V91  1  0.75143265  0.75109407  0.00052125  1
  V  V92  1  0.12584089  0.49830655  0.12535125  1
  V  V93  1  0.87341594  0.12570518  0.74971311  1
  V  V94  1  0.37392749  0.87480017  0.50065744  1
  V  V95  1  0.87459426  0.00013781  0.37474813  1
  Zn  Zn96  1  -0.00168604  0.49907699  0.50068954  1
  Zn  Zn97  1  0.00168329  0.74887047  0.25037928  1
  Zn  Zn98  1  0.37479062  0.12616630  0.25049829  1
  Zn  Zn99  1  0.50276419  0.37853792  0.87589955  1
  Zn  Zn100  1  0.87626168  0.87636622  0.00196723  1
  Zn  Zn101  1  0.12696964  0.37250701  0.25052277  1
  Zn  Zn102  1  0.37641344  0.87438834  0.00134835  1
  Zn  Zn103  1  -0.00092162  0.62373267  0.62436409  1
  Zn  Zn104  1  0.00100121  -0.00359664  0.00048994  1
  Zn  Zn105  1  0.24794213  -0.00232407  0.75125948  1
  Zn  Zn106  1  0.49938011  0.49969767  -0.00339491  1
  Zn  Zn107  1  0.74983534  0.37451394  0.12382766  1
  Zn  Zn108  1  0.12839968  0.25151546  0.37330987  1
  Zn  Zn109  1  0.37729282  0.50025226  0.87428911  1
  Zn  Zn110  1  0.25041900  0.62385796  0.37343798  1
  Zn  Zn111  1  0.25056244  0.25022415  0.49702491  1
  Zn  Zn112  1  0.62664959  0.25188820  0.37599600  1
  Zn  Zn113  1  0.25176122  0.87519019  0.12591596  1
  Zn  Zn114  1  0.87508489  0.37756420  0.50169729  1
  Zn  Zn115  1  0.25190170  0.62465486  0.87516859  1
  Zn  Zn116  1  -0.00060277  0.87524291  0.87796919  1
  Zn  Zn117  1  0.62404951  0.37637448  0.75406697  1
  Zn  Zn118  1  0.37315013  0.24784761  0.12459994  1
  Zn  Zn119  1  0.12668454  0.87509800  0.75006877  1
  Zn  Zn120  1  0.75102142  0.87640265  0.12427362  1
  Zn  Zn121  1  0.74694916  0.25357089  0.00176075  1
  Zn  Zn122  1  0.62337457  0.25418914  0.87760176  1
  Zn  Zn123  1  0.24784495  0.12231927  0.87444518  1
  Zn  Zn124  1  0.50017275  0.75037730  0.74955159  1
  Zn  Zn125  1  0.25248530  0.12976497  0.37516858  1
  Zn  Zn126  1  0.24980962  0.87535062  0.62737772  1
  Zn  Zn127  1  0.12618256  0.37288633  0.74911613  1
  Zn  Zn128  1  0.18593080  0.18758255  0.18687965  1
  Zn  Zn129  1  0.18843429  0.18464725  0.68751308  1
  Zn  Zn130  1  0.18842397  0.68578885  0.18749567  1
  Zn  Zn131  1  0.18847032  0.68697365  0.68521033  1
  Zn  Zn132  1  0.68714095  0.18906414  0.18675358  1
  Zn  Zn133  1  0.68546749  0.18906737  0.68780521  1
  Zn  Zn134  1  0.68859304  0.68719450  0.18714838  1
  Zn  Zn135  1  0.68794241  0.68770854  0.68811099  1
  Zn  Zn136  1  0.31307842  0.31270989  0.31335977  1
  Zn  Zn137  1  0.31140985  0.31093391  0.81303525  1
  Zn  Zn138  1  0.31144630  0.81288599  0.31364059  1
  Zn  Zn139  1  0.31062996  0.81489167  0.81096962  1
  Zn  Zn140  1  0.81345910  0.31301541  0.31241505  1
  Zn  Zn141  1  0.81323315  0.31462695  0.81247342  1
  Zn  Zn142  1  0.81249206  0.81288298  0.31070129  1
  Zn  Zn143  1  0.81169784  0.81377935  0.81241321  1
  Zn  Zn144  1  0.18871908  0.43648453  0.43599095  1
  Zn  Zn145  1  0.18865567  0.43480105  0.93617064  1
  Zn  Zn146  1  0.18784246  0.93819461  0.43791653  1
  Zn  Zn147  1  0.18781717  0.93489428  0.93921604  1
  Zn  Zn148  1  0.68838956  0.43734927  0.43800124  1
  Zn  Zn149  1  0.68711956  0.43669672  0.93758230  1
  Zn  Zn150  1  0.68684538  0.93879362  0.43665153  1
  Zn  Zn151  1  0.68916707  0.93736754  0.93963964  1
  Zn  Zn152  1  0.31261146  0.06331730  0.06393811  1
  Zn  Zn153  1  0.31021627  0.06328226  0.56222147  1
  Zn  Zn154  1  0.31316298  0.56154593  0.06287337  1
  Zn  Zn155  1  0.31135222  0.56288034  0.56191393  1
  Zn  Zn156  1  0.81124979  0.06447604  0.06179179  1
  Zn  Zn157  1  0.81163678  0.06401669  0.56179241  1
  Zn  Zn158  1  0.81196200  0.56234456  0.06263726  1
  Zn  Zn159  1  0.81305233  0.56255572  0.56256792  1
  Zn  Zn160  1  0.43729501  0.43639640  0.18359039  1
  Zn  Zn161  1  0.43751913  0.43687855  0.68610415  1
  Zn  Zn162  1  0.43658565  0.93698481  0.18676936  1
  Zn  Zn163  1  0.43742962  0.93613245  0.68862173  1
  Zn  Zn164  1  0.93764038  0.43606916  0.18871730  1
  Zn  Zn165  1  0.93761448  0.43670977  0.68900010  1
  Zn  Zn166  1  0.93902512  0.93631857  0.18869987  1
  Zn  Zn167  1  0.93826091  0.93701304  0.68915876  1
  Zn  Zn168  1  0.06228025  0.06204714  0.31203400  1
  Zn  Zn169  1  0.06067158  0.06435568  0.81188517  1
  Zn  Zn170  1  0.06306763  0.56003442  0.31166790  1
  Zn  Zn171  1  0.06328198  0.56478782  0.81239921  1
  Zn  Zn172  1  0.56325027  0.06418522  0.31337176  1
  Zn  Zn173  1  0.56084419  0.06325775  0.81258695  1
  Zn  Zn174  1  0.56252427  0.56287560  0.31165764  1
  Zn  Zn175  1  0.56110709  0.56176822  0.81409350  1
  Zn  Zn176  1  0.43792690  0.18812278  0.43572491  1
  Zn  Zn177  1  0.43536242  0.18692211  0.93806395  1
  Zn  Zn178  1  0.43698263  0.68717096  0.43668465  1
  Zn  Zn179  1  0.43870949  0.68734385  0.93579792  1
  Zn  Zn180  1  0.93637562  0.18978302  0.43817339  1
  Zn  Zn181  1  0.93820631  0.18634839  0.93935189  1
  Zn  Zn182  1  0.93956438  0.68715136  0.43747433  1
  Zn  Zn183  1  0.93881863  0.68689365  0.93890235  1
  Zn  Zn184  1  0.06248539  0.31078165  0.06258605  1
  Zn  Zn185  1  0.06148120  0.31317484  0.56172101  1
  Zn  Zn186  1  0.06072293  0.81507180  0.06235669  1
  Zn  Zn187  1  0.06143991  0.81225657  0.56204088  1
  Zn  Zn188  1  0.56228333  0.31304933  0.06339594  1
  Zn  Zn189  1  0.56312847  0.31274081  0.56562330  1
  Zn  Zn190  1  0.56367076  0.81327702  0.06215303  1
  Zn  Zn191  1  0.56094257  0.81255186  0.56259337  1
  O  O192  1  0.11863809  0.11824211  0.12007953  1
  O  O193  1  0.11771981  0.11732232  0.61723802  1
  O  O194  1  0.11989095  0.61848858  0.11939471  1
  O  O195  1  0.12507237  0.61619380  0.61595994  1
  O  O196  1  0.61942397  0.11904872  0.11980223  1
  O  O197  1  0.61967226  0.11834381  0.61998507  1
  O  O198  1  0.62032001  0.62128226  0.12025734  1
  O  O199  1  0.62043655  0.62113897  0.61898230  1
  O  O200  1  0.38302964  0.38165865  0.38051624  1
  O  O201  1  0.37395506  0.37586349  0.88635948  1
  O  O202  1  0.38138842  0.88036973  0.38096469  1
  O  O203  1  0.38237874  0.88335213  0.87592888  1
  O  O204  1  0.88373840  0.38148443  0.37591893  1
  O  O205  1  0.88197041  0.38121903  0.88026244  1
  O  O206  1  0.87918031  0.88016335  0.38037200  1
  O  O207  1  0.87290321  0.88829036  0.87465393  1
  O  O208  1  0.25525236  0.00111891  0.36640674  1
  O  O209  1  0.26196986  -0.00114029  0.87550338  1
  O  O210  1  0.25832701  0.50020087  0.36779160  1
  O  O211  1  0.24968851  0.50253701  0.86096515  1
  O  O212  1  0.75547959  0.00615265  0.37030213  1
  O  O213  1  0.75575219  0.00971143  0.86952192  1
  O  O214  1  0.75497763  0.50669656  0.36993143  1
  O  O215  1  0.75700720  0.50682560  0.87016552  1
  O  O216  1  0.24450875  0.49438478  0.12952245  1
  O  O217  1  0.24264475  0.49517846  0.63169033  1
  O  O218  1  0.24455599  0.99809512  0.13516550  1
  O  O219  1  0.23648892  0.99956603  0.62515023  1
  O  O220  1  0.74383824  0.50043582  0.13262496  1
  O  O221  1  0.74512234  0.49680436  0.63084694  1
  O  O222  1  0.74360255  1.00063115  0.13219677  1
  O  O223  1  0.74461783  0.99528337  0.62944442  1
  O  O224  1  0.00044043  0.36879873  0.25947977  1
  O  O225  1  0.00215605  0.36839154  0.75702941  1
  O  O226  1  0.00722938  0.87290654  0.25812917  1
  O  O227  1  0.00120729  0.86125291  0.75305229  1
  O  O228  1  0.50527276  0.36884363  0.25408542  1
  O  O229  1  0.49839311  0.36322623  0.75004967  1
  O  O230  1  0.50574916  0.86992443  0.25610548  1
  O  O231  1  0.50818198  0.87327070  0.75643786  1
  O  O232  1  0.50163256  0.13465747  0.24538741  1
  O  O233  1  0.49388906  0.13161353  0.74394673  1
  O  O234  1  0.49545314  0.63135985  0.24447783  1
  O  O235  1  0.48982738  0.62555613  0.74239624  1
  O  O236  1  0.99317622  0.12914697  0.24532353  1
  O  O237  1  0.99235902  0.13143701  0.74376416  1
  O  O238  1  0.99377511  0.62533903  0.24354628  1
  O  O239  1  0.99425584  0.63547236  0.74894455  1
  O  O240  1  0.36771786  0.25742986  0.00137761  1
  O  O241  1  0.37659380  0.25668957  0.50680349  1
  O  O242  1  0.36627953  0.74858122  0.00418726  1
  O  O243  1  0.37001033  0.75469003  0.50348463  1
  O  O244  1  0.87480040  0.25623207  0.00614802  1
  O  O245  1  0.86706644  0.25059266  0.50876470  1
  O  O246  1  0.87017096  0.74794953  0.01030231  1
  O  O247  1  0.86984027  0.75540017  0.50489334  1
  O  O248  1  0.12459465  0.23793976  0.50053893  1
  O  O249  1  0.12920810  0.24292897  0.99456837  1
  O  O250  1  0.12912573  0.74223685  0.49604391  1
  O  O251  1  0.13147699  0.74456463  0.99386520  1
  O  O252  1  0.63084513  0.24350746  0.50051778  1
  O  O253  1  0.62645754  0.24165609  0.99792125  1
  O  O254  1  0.63042236  0.74578901  0.49441951  1
  O  O255  1  0.63155950  0.74452463  0.99476032  1
  O  O256  1  0.50004086  0.24438883  0.13531159  1
  O  O257  1  0.49380554  0.24398386  0.63299888  1
  O  O258  1  0.49603073  0.74460803  0.13067686  1
  O  O259  1  0.49340081  0.74313542  0.62561784  1
  O  O260  1  0.99431238  0.24321414  0.13087512  1
  O  O261  1  0.99355159  0.24555205  0.63055872  1
  O  O262  1  0.99123458  0.74226400  0.12599418  1
  O  O263  1  0.99436535  0.74854592  0.63398163  1
  O  O264  1  -0.00149658  0.25931317  0.36943273  1
  O  O265  1  0.00442634  0.25421433  0.86958213  1
  O  O266  1  0.00683291  0.75676873  0.37418844  1
  O  O267  1  0.00811217  0.74867220  0.86729926  1
  O  O268  1  0.50293609  0.25693929  0.36620445  1
  O  O269  1  0.49900142  0.24862472  0.86244972  1
  O  O270  1  0.50563998  0.75550589  0.36964891  1
  O  O271  1  0.50829801  0.75640082  0.87288169  1
  O  O272  1  0.23760086  0.12630775  0.49848663  1
  O  O273  1  0.24266491  0.13048804  0.99940375  1
  O  O274  1  0.23975181  0.63018549  0.49820019  1
  O  O275  1  0.24480960  0.63457122  0.99889795  1
  O  O276  1  0.74437363  0.13070491  0.49577881  1
  O  O277  1  0.74364343  0.12613979  0.98977380  1
  O  O278  1  0.74443898  0.63154248  0.49473975  1
  O  O279  1  0.74511242  0.63068027  0.99407325  1
  O  O280  1  0.25590968  0.36860966  0.00447174  1
  O  O281  1  0.25824573  0.37473561  0.50603604  1
  O  O282  1  0.25174117  0.86017188  0.00254815  1
  O  O283  1  0.25685152  0.86916270  0.50159270  1
  O  O284  1  0.75979041  0.37352560  0.00179307  1
  O  O285  1  0.75100500  0.36931918  0.50774109  1
  O  O286  1  0.75403050  0.86698157  0.00404820  1
  O  O287  1  0.75475013  0.87045093  0.50448393  1
  O  O288  1  0.13282463  0.49800045  0.24260393  1
  O  O289  1  0.13404395  0.50247101  0.74015281  1
  O  O290  1  0.13264361  0.99476226  0.24663586  1
  O  O291  1  0.12175597  0.99931111  0.73832129  1
  O  O292  1  0.63023702  0.49664417  0.24472068  1
  O  O293  1  0.63232239  0.50240642  0.74317960  1
  O  O294  1  0.62964866  0.99570447  0.24573787  1
  O  O295  1  0.62966129  0.99515229  0.74398050  1
  O  O296  1  0.36609268  -0.00079136  0.25593777  1
  O  O297  1  0.37728599  0.00470174  0.76005577  1
  O  O298  1  0.37150202  0.50459846  0.25391158  1
  O  O299  1  0.36554200  0.50901530  0.74547716  1
  O  O300  1  0.86961322  0.00534733  0.25580602  1
  O  O301  1  0.86857624  0.00608834  0.75607845  1
  O  O302  1  0.86944772  0.50610517  0.25517721  1
  O  O303  1  0.87075995  0.50646220  0.75623699  1
  O  O304  1  0.11306058  0.37455895  0.37334366  1
  O  O305  1  0.11851930  0.36715877  0.87271277  1
  O  O306  1  0.11921091  0.86986317  0.37163292  1
  O  O307  1  0.12293850  0.86107802  0.87383438  1
  O  O308  1  0.61856622  0.37566765  0.36812434  1
  O  O309  1  0.62193170  0.37092430  0.87132725  1
  O  O310  1  0.61928654  0.86994289  0.37022354  1
  O  O311  1  0.62220213  0.87093222  0.86935022  1
  O  O312  1  0.38424200  0.12702009  0.12918652  1
  O  O313  1  0.38054921  0.12867045  0.62957568  1
  O  O314  1  0.38143192  0.63031167  0.13068128  1
  O  O315  1  0.37968756  0.62986459  0.63040691  1
  O  O316  1  0.87990908  0.12953269  0.13090607  1
  O  O317  1  0.87849113  0.13029310  0.63055860  1
  O  O318  1  0.88029078  0.63194117  0.12995395  1
  O  O319  1  0.87612030  0.63207126  0.63169326  1
  O  O320  1  0.25021423  0.25578261  0.11851280  1
  O  O321  1  0.25669149  0.25631597  0.62396646  1
  O  O322  1  0.25572837  0.74943163  0.11591454  1
  O  O323  1  0.25629116  0.75129086  0.61683224  1
  O  O324  1  0.75881389  0.25218532  0.12326899  1
  O  O325  1  0.75444657  0.25568750  0.62185981  1
  O  O326  1  0.76053956  0.74905196  0.12016017  1
  O  O327  1  0.75530348  0.75612228  0.61927878  1
  O  O328  1  0.24634244  0.24756490  0.37848120  1
  O  O329  1  0.24218522  0.24662130  0.88113790  1
  O  O330  1  0.24332631  0.74732745  0.38190835  1
  O  O331  1  0.24204146  0.74784181  0.88249920  1
  O  O332  1  0.74932468  0.24398001  0.38185629  1
  O  O333  1  0.75059033  0.23660064  0.87375162  1
  O  O334  1  0.74493822  0.74527806  0.38021815  1
  O  O335  1  0.74588737  0.74467275  0.87989334  1
  O  O336  1  0.00676630  0.12144732  0.00737281  1
  O  O337  1  0.00489503  0.11988486  0.50538383  1
  O  O338  1  0.00604195  0.61816336  0.00560782  1
  O  O339  1  0.01284180  0.62304408  0.50237566  1
  O  O340  1  0.50516535  0.11944829  0.00564983  1
  O  O341  1  0.50510630  0.11963990  0.50575174  1
  O  O342  1  0.50726505  0.62545002  0.00650450  1
  O  O343  1  0.50564305  0.61982422  0.50427709  1
  O  O344  1  0.49627596  0.38113937  0.49561098  1
  O  O345  1  0.48748051  0.37526089  1.00007891  1
  O  O346  1  0.49493372  0.88085155  0.49414224  1
  O  O347  1  0.50079610  0.88198786  0.99296853  1
  O  O348  1  0.99696529  0.37676679  0.48915290  1
  O  O349  1  0.99549007  0.38058403  0.99386150  1
  O  O350  1  0.99304922  0.88027523  0.49469477  1
  O  O351  1  0.99401972  0.87889958  0.99538189  1
  O  O352  1  0.49554915  0.49560612  0.38044587  1
  O  O353  1  0.49453944  0.49687206  0.87819180  1
  O  O354  1  0.49549928  0.99470805  0.38054752  1
  O  O355  1  0.49326262  0.99535717  0.88045212  1
  O  O356  1  0.99403116  0.49078198  0.37484205  1
  O  O357  1  0.99618264  0.49559286  0.87964024  1
  O  O358  1  0.99330867  0.99427898  0.38041384  1
  O  O359  1  0.98688982  0.99981296  0.87370041  1
  O  O360  1  0.00627957  0.00669287  0.12614610  1
  O  O361  1  0.00468509  0.00576424  0.61973922  1
  O  O362  1  0.00517698  0.50416631  0.11909027  1
  O  O363  1  0.01203778  0.50097288  0.62481185  1
  O  O364  1  0.50580042  0.00516590  0.12056179  1
  O  O365  1  0.50517744  0.00488226  0.61948791  1
  O  O366  1  0.50722326  0.50785543  0.12330133  1
  O  O367  1  0.50518928  0.50602378  0.61887180  1
  O  O368  1  0.25039051  0.38110402  0.24226263  1
  O  O369  1  0.24976575  0.38493453  0.74269258  1
  O  O370  1  0.24410069  0.88543587  0.25051010  1
  O  O371  1  0.24441498  0.87949067  0.74451199  1
  O  O372  1  0.74379496  0.38235660  0.24961300  1
  O  O373  1  0.74951434  0.38338537  0.74444031  1
  O  O374  1  0.74293088  0.88267744  0.24979941  1
  O  O375  1  0.74456413  0.88107414  0.74322568  1
  O  O376  1  0.25012369  0.11247246  0.25166651  1
  O  O377  1  0.25818338  0.11937234  0.75291345  1
  O  O378  1  0.25797439  0.61709488  0.25047317  1
  O  O379  1  0.25923645  0.61664790  0.74707158  1
  O  O380  1  0.75485632  0.12015935  0.25606424  1
  O  O381  1  0.75329234  0.12019133  0.75694812  1
  O  O382  1  0.75523890  0.62000232  0.25673679  1
  O  O383  1  0.75639123  0.62081311  0.75595937  1
  O  O384  1  0.37390122  0.11636424  0.37203944  1
  O  O385  1  0.37503791  0.11292453  0.87002127  1
  O  O386  1  0.37525766  0.61791889  0.36805258  1
  O  O387  1  0.37326930  0.62461777  0.86125751  1
  O  O388  1  0.86984379  0.11916647  0.37000719  1
  O  O389  1  0.86655209  0.11829451  0.86988437  1
  O  O390  1  0.86994603  0.62134401  0.37018498  1
  O  O391  1  0.87040379  0.61994040  0.87062765  1
  O  O392  1  0.13095424  0.38164844  0.12470579  1
  O  O393  1  0.13085185  0.38499029  0.62491282  1
  O  O394  1  0.12676315  0.88063353  0.13302401  1
  O  O395  1  0.12327043  0.88739713  0.62349330  1
  O  O396  1  0.62659604  0.38308965  0.13151837  1
  O  O397  1  0.63109968  0.38350558  0.62854355  1
  O  O398  1  0.62613800  0.88215391  0.13253803  1
  O  O399  1  0.63029802  0.88023624  0.62882737  1
  O  O400  1  0.11524761  0.25135155  0.25204788  1
  O  O401  1  0.11796062  0.24930070  0.75503495  1
  O  O402  1  0.12525417  0.75502596  0.25666053  1
  O  O403  1  0.11768978  0.74703309  0.75724752  1
  O  O404  1  0.61554748  0.25662261  0.25144440  1
  O  O405  1  0.61185148  0.25064136  0.75071016  1
  O  O406  1  0.61992401  0.75480053  0.25546862  1
  O  O407  1  0.62535392  0.75653045  0.75644415  1
  O  O408  1  0.38903741  0.25021382  0.24828455  1
  O  O409  1  0.38123303  0.24350174  0.74421473  1
  O  O410  1  0.38067202  0.74484917  0.24568667  1
  O  O411  1  0.37473594  0.74045415  0.74332654  1
  O  O412  1  0.88031249  0.24343508  0.24450891  1
  O  O413  1  0.88004849  0.24445189  0.74511586  1
  O  O414  1  0.87589128  0.74310244  0.24131690  1
  O  O415  1  0.88163045  0.74568441  0.74614595  1
  O  O416  1  0.38129139  0.49546994  0.49539488  1
  O  O417  1  0.37364580  0.48942623  0.99706644  1
  O  O418  1  0.38046850  0.99507787  0.49566370  1
  O  O419  1  0.38126176  0.99844213  0.99118594  1
  O  O420  1  0.87774146  0.49969070  0.49213379  1
  O  O421  1  0.88196905  0.49593512  0.99472640  1
  O  O422  1  0.87894013  0.99499860  0.49498554  1
  O  O423  1  0.87486388  1.00105433  0.98868539  1
  O  O424  1  0.12540461  0.00452615  0.00714632  1
  O  O425  1  0.11776616  0.00756836  0.50664569  1
  O  O426  1  0.12086265  0.50478859  0.00412608  1
  O  O427  1  0.12666913  0.50796453  0.50838706  1
  O  O428  1  0.61989250  0.00621538  0.00562014  1
  O  O429  1  0.61921686  0.00500393  0.50562111  1
  O  O430  1  0.62530835  0.50817068  0.00688701  1
  O  O431  1  0.62031095  0.50695922  0.50559199  1
  O  O432  1  0.36763635  0.37325604  0.11394532  1
  O  O433  1  0.37056967  0.36983226  0.61844784  1
  O  O434  1  0.37349038  0.86579330  0.12180868  1
  O  O435  1  0.37596734  0.86878698  0.61752446  1
  O  O436  1  0.87566200  0.36862695  0.11867004  1
  O  O437  1  0.86808963  0.36947318  0.62497311  1
  O  O438  1  0.87365276  0.86195905  0.12686516  1
  O  O439  1  0.86912563  0.87054180  0.61934438  1
  O  O440  1  0.12293406  0.12528311  0.38734608  1
  O  O441  1  0.12483616  0.12985929  0.88211125  1
  O  O442  1  0.12612697  0.62871742  0.38410174  1
  O  O443  1  0.12706194  0.63535183  0.88099896  1
  O  O444  1  0.63204098  0.12618996  0.38293211  1
  O  O445  1  0.63412433  0.12401922  0.87957938  1
  O  O446  1  0.63037364  0.63084151  0.38044883  1
  O  O447  1  0.63142946  0.63106921  0.87982257  1
