# generated using pymatgen
data_V3Zn3O8
_symmetry_space_group_name_H-M   'P 1'
_cell_length_a   17.08708961
_cell_length_b   17.08540386
_cell_length_c   17.08670600
_cell_angle_alpha   89.98758752
_cell_angle_beta   89.98774896
_cell_angle_gamma   89.99544428
_symmetry_Int_Tables_number   1
_chemical_formula_structural   V3Zn3O8
_chemical_formula_sum   'V96 Zn96 O256'
_cell_volume   4988.28974219
_cell_formula_units_Z   32
loop_
 _symmetry_equiv_pos_site_id
 _symmetry_equiv_pos_as_xyz
  1  'x, y, z'
loop_
 _atom_site_type_symbol
 _atom_site_label
 _atom_site_symmetry_multiplicity
 _atom_site_fract_x
 _atom_site_fract_y
 _atom_site_fract_z
 _atom_site_occupancy
  V  V0  1  0.12367401  0.87601825  0.25009794  1
  V  V1  1  0.25031405  0.25090635  0.50051594  1
  V  V2  1  0.62456584  0.12370992  0.49904983  1
  V  V3  1  0.12494211  0.12593205  0.50010167  1
  V  V4  1  0.12652759  0.12534684  -0.00082370  1
  V  V5  1  0.37647085  -0.00038566  0.87484363  1
  V  V6  1  0.49864294  0.87333602  0.37504715  1
  V  V7  1  -0.00024027  0.00125891  0.50112564  1
  V  V8  1  0.49911762  0.37433340  0.37427911  1
  V  V9  1  0.62541975  0.74924903  0.87546931  1
  V  V10  1  0.25083109  0.37423796  0.62388369  1
  V  V11  1  -0.00067512  0.62525390  0.12627984  1
  V  V12  1  0.12547678  0.74971420  0.87567006  1
  V  V13  1  0.49959029  0.62455895  0.62549828  1
  V  V14  1  0.00065753  0.12653329  0.12439450  1
  V  V15  1  0.50017346  0.74891264  0.75021356  1
  V  V16  1  0.49870229  0.62470358  0.12416661  1
  V  V17  1  -0.00084157  0.12596712  0.62662137  1
  V  V18  1  0.50104153  0.25049083  0.74989352  1
  V  V19  1  0.24947789  0.87411386  0.12457487  1
  V  V20  1  0.49999891  0.87480155  0.87517706  1
  V  V21  1  0.74844151  0.62464787  0.37452003  1
  V  V22  1  0.00053821  0.37640231  0.87434284  1
  V  V23  1  0.37530950  0.12382905  0.24950466  1
  V  V24  1  0.75096362  0.62536958  0.87404214  1
  V  V25  1  0.87400428  0.50090707  0.37516808  1
  V  V26  1  0.12475062  0.25047335  0.37481934  1
  V  V27  1  0.12592817  0.00057252  0.62613855  1
  V  V28  1  -0.00027379  0.87627360  0.37531834  1
  V  V29  1  0.87425006  0.37550542  0.49994476  1
  V  V30  1  0.62446465  0.62483136  0.49899222  1
  V  V31  1  0.37327860  0.75063588  0.12453149  1
  V  V32  1  0.74988939  0.37523358  0.62406308  1
  V  V33  1  0.49937666  0.49827399  0.49908699  1
  V  V34  1  0.37354972  0.62460201  0.25034296  1
  V  V35  1  0.00080551  0.87478809  0.87675897  1
  V  V36  1  0.25062911  0.37448742  0.12529508  1
  V  V37  1  0.12399683  0.50150040  0.62399325  1
  V  V38  1  0.49879096  0.75010527  0.25006946  1
  V  V39  1  -0.00013351  -0.00005938  -0.00031027  1
  V  V40  1  0.75073783  0.49988137  0.24963696  1
  V  V41  1  0.62484949  0.37326358  0.24864249  1
  V  V42  1  0.75102631  0.37624951  0.12453385  1
  V  V43  1  0.37497449  0.37425788  0.00073292  1
  V  V44  1  -0.00013937  0.25070976  0.75012006  1
  V  V45  1  0.75014887  0.50073517  0.74951181  1
  V  V46  1  0.87496218  0.00137276  0.37569587  1
  V  V47  1  0.37647750  0.12566633  0.74897285  1
  V  V48  1  0.87629361  0.37666643  -0.00107348  1
  V  V49  1  0.49975263  -0.00086628  0.49954319  1
  V  V50  1  -0.00227337  0.75054307  0.25042496  1
  V  V51  1  0.12577208  0.37503629  0.25017140  1
  V  V52  1  0.74879706  -0.00124831  0.24934173  1
  V  V53  1  0.74979955  0.87454939  0.62510704  1
  V  V54  1  -0.00021472  0.75032317  0.74994082  1
  V  V55  1  0.50106785  0.49971246  0.00000808  1
  V  V56  1  0.87559526  0.75104552  0.62533402  1
  V  V57  1  0.74984729  0.74968238  0.00189512  1
  V  V58  1  0.25042023  0.87521334  0.62549411  1
  V  V59  1  0.62436902  0.37426527  0.74932125  1
  V  V60  1  0.62325381  0.74868920  0.37454055  1
  V  V61  1  0.12425929  0.50060836  0.12529335  1
  V  V62  1  0.24971700  0.62483568  0.87540934  1
  V  V63  1  0.24832986  0.62575811  0.37740387  1
  V  V64  1  0.50035793  0.12437761  0.12618850  1
  V  V65  1  0.75045450  0.12511961  0.37567592  1
  V  V66  1  0.24999422  0.12454299  0.37410357  1
  V  V67  1  0.24905667  0.00029864  0.25023240  1
  V  V68  1  -0.00036576  0.37555257  0.37506939  1
  V  V69  1  0.87402704  0.87507282  0.00186241  1
  V  V70  1  0.12467584  0.00026577  0.12454907  1
  V  V71  1  0.24994545  0.49983055  0.25058398  1
  V  V72  1  0.25147093  0.24963411  0.00006837  1
  V  V73  1  0.25089253  0.12540679  0.87542605  1
  V  V74  1  0.37466859  0.87436616  0.50044969  1
  V  V75  1  0.87534374  0.50061497  0.87373390  1
  V  V76  1  0.87411873  0.87562957  0.50093033  1
  V  V77  1  0.75156787  0.00156370  0.75201510  1
  V  V78  1  0.50021650  0.12360725  0.62378274  1
  V  V79  1  0.50126521  -0.00028700  -0.00101707  1
  V  V80  1  0.74967492  0.24887170  0.49928400  1
  V  V81  1  0.37464910  0.74956593  0.62575713  1
  V  V82  1  0.25043653  0.49961255  0.75030971  1
  V  V83  1  0.62581661  0.87470992  0.74952710  1
  V  V84  1  0.87523458  0.24965471  0.62582361  1
  V  V85  1  0.62494213  0.50002021  0.62445770  1
  V  V86  1  0.24924858  0.74946303  0.00006624  1
  V  V87  1  0.37432374  0.49922362  0.87480175  1
  V  V88  1  0.75048483  0.25041711  -0.00109072  1
  V  V89  1  0.00047983  0.50141350  0.50096323  1
  V  V90  1  0.12459325  0.75095262  0.37647844  1
  V  V91  1  -0.00013080  0.25036120  0.24917260  1
  V  V92  1  0.12509714  0.37520569  0.75063130  1
  V  V93  1  0.25067685  0.00061259  0.74974657  1
  V  V94  1  0.87696179  0.25145116  0.12431983  1
  V  V95  1  0.62753283  0.12540033  -0.00108022  1
  Zn  Zn96  1  0.87299309  0.74872756  0.12819308  1
  Zn  Zn97  1  0.12387133  0.62368356  -0.00003707  1
  Zn  Zn98  1  0.50130171  0.37407441  0.87590385  1
  Zn  Zn99  1  0.62736383  -0.00328318  0.12498322  1
  Zn  Zn100  1  0.37396858  -0.00162840  0.37522876  1
  Zn  Zn101  1  0.74754939  0.87337538  0.12776313  1
  Zn  Zn102  1  0.62638478  0.50121504  0.12300657  1
  Zn  Zn103  1  0.74937250  0.75039327  0.49968299  1
  Zn  Zn104  1  0.87578436  0.00328383  0.87570704  1
  Zn  Zn105  1  0.37557896  0.87489701  -0.00035627  1
  Zn  Zn106  1  0.50003263  0.24797325  0.25103923  1
  Zn  Zn107  1  0.87483268  0.12553649  0.75356230  1
  Zn  Zn108  1  0.62367834  0.87420374  0.24826975  1
  Zn  Zn109  1  0.37475166  0.25069783  0.62222541  1
  Zn  Zn110  1  0.12352229  0.62785044  0.50237936  1
  Zn  Zn111  1  0.62511251  -0.00159849  0.62478152  1
  Zn  Zn112  1  0.37484131  0.37415507  0.49928480  1
  Zn  Zn113  1  0.87468432  0.12617213  0.24973424  1
  Zn  Zn114  1  0.24789746  0.75006147  0.50273493  1
  Zn  Zn115  1  0.75282506  0.12698676  0.87402918  1
  Zn  Zn116  1  0.12602395  0.87619947  0.75091478  1
  Zn  Zn117  1  0.87285358  0.62711064  0.25088492  1
  Zn  Zn118  1  0.00152035  0.50175140  -0.00150925  1
  Zn  Zn119  1  0.37517789  0.62391289  0.74985218  1
  Zn  Zn120  1  0.37358800  0.49880654  0.37590957  1
  Zn  Zn121  1  0.12555249  0.25091476  0.87479500  1
  Zn  Zn122  1  0.62508787  0.62426889  0.00093759  1
  Zn  Zn123  1  0.00051733  0.62659966  0.62279104  1
  Zn  Zn124  1  0.62742475  0.25158265  0.87423429  1
  Zn  Zn125  1  0.62516106  0.24845567  0.37435875  1
  Zn  Zn126  1  0.87559079  0.62473070  0.74771596  1
  Zn  Zn127  1  0.37645214  0.25046020  0.12576779  1
  Zn  Zn128  1  0.18831431  0.18841150  0.18630197  1
  Zn  Zn129  1  0.18708165  0.18862083  0.68808928  1
  Zn  Zn130  1  0.18497875  0.68795224  0.18938625  1
  Zn  Zn131  1  0.18695118  0.68648889  0.68901441  1
  Zn  Zn132  1  0.68930074  0.18686159  0.18637736  1
  Zn  Zn133  1  0.68604954  0.18572574  0.68459810  1
  Zn  Zn134  1  0.68386926  0.68575414  0.18703966  1
  Zn  Zn135  1  0.68791319  0.68748485  0.68692796  1
  Zn  Zn136  1  0.31492110  0.30924543  0.31159783  1
  Zn  Zn137  1  0.31418985  0.31266574  0.81301877  1
  Zn  Zn138  1  0.31205129  0.81174289  0.31261184  1
  Zn  Zn139  1  0.31353608  0.81263259  0.81175247  1
  Zn  Zn140  1  0.81281017  0.31228208  0.31231018  1
  Zn  Zn141  1  0.81254653  0.31261075  0.81296298  1
  Zn  Zn142  1  0.81147033  0.81221534  0.31434489  1
  Zn  Zn143  1  0.81382598  0.81452860  0.81406699  1
  Zn  Zn144  1  0.18663245  0.43829079  0.43864940  1
  Zn  Zn145  1  0.18640090  0.43828134  0.93881992  1
  Zn  Zn146  1  0.18793395  0.93796725  0.43899926  1
  Zn  Zn147  1  0.18801767  0.93662596  0.93724639  1
  Zn  Zn148  1  0.68603053  0.43750334  0.43618028  1
  Zn  Zn149  1  0.68698401  0.43639725  0.93498593  1
  Zn  Zn150  1  0.68581099  0.93630644  0.43635914  1
  Zn  Zn151  1  0.68725953  0.93748353  0.93627107  1
  Zn  Zn152  1  0.31439208  0.06113770  0.06219762  1
  Zn  Zn153  1  0.31433345  0.06260845  0.56196843  1
  Zn  Zn154  1  0.31205349  0.56284387  0.06170110  1
  Zn  Zn155  1  0.31431455  0.56023895  0.56206026  1
  Zn  Zn156  1  0.81407449  0.06311086  0.06445624  1
  Zn  Zn157  1  0.81186333  0.06234079  0.56529763  1
  Zn  Zn158  1  0.81485548  0.56249170  0.06176595  1
  Zn  Zn159  1  0.81328589  0.56542362  0.56210126  1
  Zn  Zn160  1  0.43614031  0.43885736  0.18752335  1
  Zn  Zn161  1  0.43567025  0.43608844  0.68615354  1
  Zn  Zn162  1  0.43664130  0.93777154  0.18725495  1
  Zn  Zn163  1  0.43793807  0.93708447  0.68697817  1
  Zn  Zn164  1  0.93736681  0.43909235  0.18810836  1
  Zn  Zn165  1  0.93743858  0.43767776  0.68745192  1
  Zn  Zn166  1  0.93482273  0.93869783  0.18705255  1
  Zn  Zn167  1  0.93698056  0.93706072  0.68864717  1
  Zn  Zn168  1  0.06200078  0.06387195  0.31190354  1
  Zn  Zn169  1  0.06294490  0.06304591  0.81329546  1
  Zn  Zn170  1  0.06212581  0.56333729  0.31244412  1
  Zn  Zn171  1  0.06353269  0.56403288  0.81127999  1
  Zn  Zn172  1  0.56323915  0.05984144  0.31478389  1
  Zn  Zn173  1  0.56509109  0.06288486  0.81254454  1
  Zn  Zn174  1  0.56223371  0.56046577  0.31089009  1
  Zn  Zn175  1  0.56347428  0.56294863  0.81371118  1
  Zn  Zn176  1  0.43625053  0.18845218  0.43608670  1
  Zn  Zn177  1  0.43838752  0.18758740  0.93681984  1
  Zn  Zn178  1  0.43532702  0.68715373  0.43896009  1
  Zn  Zn179  1  0.43495066  0.68639358  0.93748511  1
  Zn  Zn180  1  0.93644521  0.18779195  0.43800916  1
  Zn  Zn181  1  0.93707923  0.18807855  0.93532032  1
  Zn  Zn182  1  0.93629257  0.68728263  0.43816976  1
  Zn  Zn183  1  0.93661718  0.68642656  0.93830717  1
  Zn  Zn184  1  0.06412619  0.31335883  0.06016961  1
  Zn  Zn185  1  0.06310647  0.31411291  0.56329144  1
  Zn  Zn186  1  0.06263753  0.81033531  0.06250851  1
  Zn  Zn187  1  0.06380934  0.81435031  0.56272260  1
  Zn  Zn188  1  0.56315030  0.31121752  0.06376455  1
  Zn  Zn189  1  0.56330424  0.31038722  0.56187340  1
  Zn  Zn190  1  0.56378986  0.81401744  0.06429031  1
  Zn  Zn191  1  0.56260237  0.81165042  0.56237039  1
  O  O192  1  0.12041680  0.11945167  0.11912040  1
  O  O193  1  0.11938794  0.12039741  0.61898048  1
  O  O194  1  0.11524031  0.61911925  0.12676320  1
  O  O195  1  0.12271705  0.61702074  0.62278605  1
  O  O196  1  0.61750749  0.12303758  0.11605709  1
  O  O197  1  0.61757433  0.12151959  0.61633080  1
  O  O198  1  0.61458092  0.62098815  0.12082794  1
  O  O199  1  0.61952303  0.61925310  0.61930073  1
  O  O200  1  0.38746214  0.37641593  0.37366044  1
  O  O201  1  0.37767735  0.38193824  0.88262868  1
  O  O202  1  0.38018497  0.87456344  0.38203698  1
  O  O203  1  0.38260924  0.88206720  0.87560809  1
  O  O204  1  0.88003483  0.38048036  0.38103817  1
  O  O205  1  0.88046630  0.38149905  0.87959286  1
  O  O206  1  0.88104215  0.88152861  0.38159740  1
  O  O207  1  0.88168187  0.87614018  0.88778099  1
  O  O208  1  0.24867627  0.00697812  0.36779141  1
  O  O209  1  0.25609452  0.00552168  0.86992567  1
  O  O210  1  0.24888775  0.50928184  0.36892868  1
  O  O211  1  0.25458047  0.50439675  0.87026388  1
  O  O212  1  0.75576738  0.00511414  0.36896061  1
  O  O213  1  0.75141018  0.00038506  0.86326026  1
  O  O214  1  0.75443469  0.50440969  0.36981277  1
  O  O215  1  0.75512759  0.50505567  0.86898378  1
  O  O216  1  0.24455794  0.49488687  0.13136445  1
  O  O217  1  0.24453605  0.49449467  0.63011285  1
  O  O218  1  0.24361073  0.99460289  0.12975801  1
  O  O219  1  0.24549283  0.99635199  0.63045956  1
  O  O220  1  0.74988165  0.49344301  0.13051291  1
  O  O221  1  0.74462497  0.49486152  0.62913145  1
  O  O222  1  0.75143891  0.99931595  0.13785221  1
  O  O223  1  0.74872245  0.99279580  0.63491910  1
  O  O224  1  0.00604418  0.36996853  0.25563611  1
  O  O225  1  0.00551406  0.37012024  0.75450920  1
  O  O226  1  0.00472054  0.87221036  0.25550601  1
  O  O227  1  0.00085966  0.86567204  0.75743597  1
  O  O228  1  0.50857302  0.37521558  0.25561096  1
  O  O229  1  0.50537604  0.36550013  0.74820102  1
  O  O230  1  0.49804285  0.86751464  0.25691726  1
  O  O231  1  0.50606848  0.86917374  0.75532362  1
  O  O232  1  0.49564819  0.12263968  0.24200176  1
  O  O233  1  0.49718971  0.13167580  0.74464210  1
  O  O234  1  0.49311789  0.62921682  0.24484148  1
  O  O235  1  0.50004140  0.63090343  0.74312118  1
  O  O236  1  0.99961196  0.13261299  0.24273143  1
  O  O237  1  0.99992990  0.13195117  0.74322394  1
  O  O238  1  0.99866619  0.63168721  0.24275538  1
  O  O239  1  0.99816499  0.63968904  0.74876199  1
  O  O240  1  0.36976144  0.25582859  0.00170680  1
  O  O241  1  0.36550966  0.25241122  0.50112269  1
  O  O242  1  0.36770690  0.75172900  0.00708808  1
  O  O243  1  0.37286834  0.75641500  0.50846072  1
  O  O244  1  0.87069932  0.25719905  0.00555983  1
  O  O245  1  0.86992390  0.25645182  0.50573838  1
  O  O246  1  0.86575672  0.75801083  0.00048818  1
  O  O247  1  0.87457251  0.75843356  0.50729437  1
  O  O248  1  0.12910398  0.24498314  0.49379573  1
  O  O249  1  0.13312277  0.24312085  0.99826028  1
  O  O250  1  0.12716027  0.74891749  0.49205602  1
  O  O251  1  0.13176422  0.74793626  0.99345270  1
  O  O252  1  0.63320290  0.24232578  0.49872098  1
  O  O253  1  0.63109070  0.24157383  1.00000451  1
  O  O254  1  0.62490445  0.74183866  0.49307427  1
  O  O255  1  0.63519914  0.75027817  0.99361204  1
  O  O256  1  0.49921775  0.23572236  0.12664487  1
  O  O257  1  0.49932290  0.24367394  0.63446636  1
  O  O258  1  0.49301517  0.74462032  0.12956832  1
  O  O259  1  0.49528354  0.74409700  0.63095836  1
  O  O260  1  0.99682752  0.24646458  0.12969714  1
  O  O261  1  0.99495279  0.24605731  0.62966271  1
  O  O262  1  1.00033203  0.74100257  0.13202434  1
  O  O263  1  0.99455920  0.75324485  0.63441946  1
  O  O264  1  0.00486000  0.25596690  0.37014996  1
  O  O265  1  0.00195541  0.25827029  0.86793720  1
  O  O266  1  0.00431631  0.75718886  0.37050093  1
  O  O267  1  0.00420930  0.75454143  0.86892557  1
  O  O268  1  0.50386814  0.26095234  0.37247913  1
  O  O269  1  0.50233066  0.25024798  0.86123671  1
  O  O270  1  0.50325323  0.75298057  0.36929030  1
  O  O271  1  0.50500533  0.75411118  0.87051357  1
  O  O272  1  0.24365135  0.12960175  0.49445003  1
  O  O273  1  0.24623190  0.12899069  0.99526874  1
  O  O274  1  0.24886898  0.62574183  0.48766876  1
  O  O275  1  0.24803271  0.63168940  0.99368370  1
  O  O276  1  0.74520025  0.12879481  0.49570775  1
  O  O277  1  0.74117450  0.13061758  1.00287705  1
  O  O278  1  0.74161034  0.62555851  0.49284720  1
  O  O279  1  0.75062266  0.63474041  0.99390825  1
  O  O280  1  0.25519264  0.36994898  0.00578140  1
  O  O281  1  0.24924300  0.36833219  0.50514573  1
  O  O282  1  0.25140449  0.86853400  0.00735738  1
  O  O283  1  0.25654861  0.87458892  0.50727771  1
  O  O284  1  0.75561785  0.37082821  0.00515899  1
  O  O285  1  0.75452539  0.37008169  0.50460480  1
  O  O286  1  0.75787975  0.86654312  -0.00096637  1
  O  O287  1  0.75664285  0.87488821  0.50624894  1
  O  O288  1  0.13024401  0.49327477  0.24557960  1
  O  O289  1  0.13057386  0.49435092  0.74410255  1
  O  O290  1  0.12891708  0.99536889  0.24387553  1
  O  O291  1  0.13242007  0.99984264  0.74352325  1
  O  O292  1  0.63139851  0.48840601  0.24774838  1
  O  O293  1  0.63012923  0.49464748  0.74362718  1
  O  O294  1  0.63774781  0.99859800  0.25063209  1
  O  O295  1  0.63387135  0.99287669  0.74875741  1
  O  O296  1  0.36661285  0.00661621  0.25143989  1
  O  O297  1  0.37091979  0.00625449  0.75542841  1
  O  O298  1  0.36734600  0.50712318  0.25209873  1
  O  O299  1  0.36842070  0.49996553  0.75671282  1
  O  O300  1  0.86717556  0.00239812  0.25735773  1
  O  O301  1  0.86406284  0.00043867  0.75171036  1
  O  O302  1  0.86787772  0.49958975  0.25855693  1
  O  O303  1  0.86738489  0.50063061  0.75517758  1
  O  O304  1  0.11935509  0.36976229  0.36936907  1
  O  O305  1  0.11907348  0.37494421  0.86802683  1
  O  O306  1  0.11893899  0.87167390  0.36980781  1
  O  O307  1  0.11837795  0.86804636  0.87398192  1
  O  O308  1  0.61724689  0.37402857  0.36514122  1
  O  O309  1  0.62127401  0.37245602  0.86480769  1
  O  O310  1  0.61632106  0.86625796  0.37394758  1
  O  O311  1  0.61931598  0.86839607  0.86911563  1
  O  O312  1  0.38464449  0.12425262  0.13077719  1
  O  O313  1  0.38222314  0.12666133  0.63178479  1
  O  O314  1  0.37824273  0.63094862  0.13125002  1
  O  O315  1  0.38208435  0.63058406  0.62645623  1
  O  O316  1  0.88369526  0.13380317  0.12542678  1
  O  O317  1  0.88215050  0.13249475  0.62627204  1
  O  O318  1  0.88668001  0.62589085  0.12879603  1
  O  O319  1  0.87808337  0.63565690  0.62694727  1
  O  O320  1  0.25145971  0.25689208  0.11812339  1
  O  O321  1  0.24914746  0.25623354  0.61804939  1
  O  O322  1  0.25316045  0.75472594  0.12122114  1
  O  O323  1  0.25608324  0.75647955  0.62597380  1
  O  O324  1  0.75727510  0.25665839  0.11944915  1
  O  O325  1  0.75536905  0.25575273  0.61910804  1
  O  O326  1  0.75081720  0.74927245  0.11357130  1
  O  O327  1  0.75765030  0.75678554  0.62428789  1
  O  O328  1  0.24289628  0.24443902  0.37933624  1
  O  O329  1  0.24981403  0.24267392  0.88134419  1
  O  O330  1  0.24327917  0.74089219  0.37467034  1
  O  O331  1  0.24557524  0.74554249  0.87931826  1
  O  O332  1  0.75065245  0.24366203  0.38210434  1
  O  O333  1  0.74775125  0.24853141  0.88340059  1
  O  O334  1  0.74215793  0.74262695  0.37669109  1
  O  O335  1  0.74581725  0.74618512  0.88242065  1
  O  O336  1  0.00644929  0.12033856  0.00525508  1
  O  O337  1  0.00567962  0.12093145  0.50589369  1
  O  O338  1  0.00172055  0.62426329  0.01242341  1
  O  O339  1  0.00224501  0.61629453  0.50060886  1
  O  O340  1  0.50761981  0.12070367  0.00683004  1
  O  O341  1  0.50412631  0.11983187  0.50339784  1
  O  O342  1  0.49857375  0.61502423  0.00513730  1
  O  O343  1  0.50506756  0.61845197  0.50526045  1
  O  O344  1  0.50267240  0.37949283  0.48978986  1
  O  O345  1  0.49459826  0.38339194  1.00097197  1
  O  O346  1  0.49411746  0.87900065  0.49536191  1
  O  O347  1  0.49971639  0.88172071  0.99266081  1
  O  O348  1  0.99396749  0.38000242  0.49395770  1
  O  O349  1  0.99394429  0.37697437  0.99299006  1
  O  O350  1  0.99485869  0.88285264  0.49464687  1
  O  O351  1  0.99267287  0.87903456  0.99719991  1
  O  O352  1  0.49994801  0.48995437  0.37994185  1
  O  O353  1  0.49395193  0.49989748  0.88487136  1
  O  O354  1  0.49735594  0.99157931  0.38172095  1
  O  O355  1  0.49601797  0.99495182  0.87880453  1
  O  O356  1  0.99476637  0.49377112  0.37947482  1
  O  O357  1  0.99369235  0.49473979  0.87395150  1
  O  O358  1  0.99560488  0.99609437  0.38098088  1
  O  O359  1  1.00052965  0.99277699  0.88278200  1
  O  O360  1  0.00547236  0.00580987  0.11980716  1
  O  O361  1  0.00517398  0.00530904  0.62034573  1
  O  O362  1  0.00584864  0.50940435  0.12661503  1
  O  O363  1  0.00562181  0.50067685  0.61904066  1
  O  O364  1  0.50096040  0.01021435  0.11890820  1
  O  O365  1  0.50181186  0.00555357  0.61808887  1
  O  O366  1  0.49836494  0.50559762  0.11442153  1
  O  O367  1  0.50604219  0.50422519  0.62006158  1
  O  O368  1  0.24482626  0.37933630  0.24597269  1
  O  O369  1  0.24473808  0.37994323  0.74494294  1
  O  O370  1  0.24294847  0.88005339  0.24497206  1
  O  O371  1  0.24991868  0.88344113  0.74368449  1
  O  O372  1  0.74299765  0.37934804  0.24539230  1
  O  O373  1  0.74442279  0.38032312  0.74285446  1
  O  O374  1  0.74939598  0.88624222  0.25103151  1
  O  O375  1  0.74536081  0.88174332  0.74598180  1
  O  O376  1  0.25419184  0.11949921  0.25392883  1
  O  O377  1  0.25615936  0.12046399  0.75497872  1
  O  O378  1  0.25330110  0.62034346  0.25813842  1
  O  O379  1  0.25159343  0.61692791  0.75729709  1
  O  O380  1  0.75228139  0.11711541  0.25648634  1
  O  O381  1  0.74931922  0.11398220  0.74970847  1
  O  O382  1  0.74933344  0.61749336  0.25617233  1
  O  O383  1  0.75111031  0.61835762  0.75592283  1
  O  O384  1  0.36771705  0.12248366  0.36710793  1
  O  O385  1  0.37066671  0.11875693  0.86894795  1
  O  O386  1  0.36406099  0.62503011  0.36874049  1
  O  O387  1  0.36739091  0.61727807  0.87285253  1
  O  O388  1  0.86929878  0.11850566  0.37445310  1
  O  O389  1  0.87128710  0.12081018  0.87199373  1
  O  O390  1  0.86704230  0.61806828  0.37432810  1
  O  O391  1  0.86855455  0.61886259  0.87225228  1
  O  O392  1  0.13049946  0.38010819  0.13146813  1
  O  O393  1  0.13050449  0.38153660  0.63106794  1
  O  O394  1  0.12913209  0.88068872  0.13072998  1
  O  O395  1  0.13212192  0.88366579  0.62652431  1
  O  O396  1  0.63139359  0.37632930  0.13358932  1
  O  O397  1  0.63100207  0.38096087  0.62887692  1
  O  O398  1  0.62907480  0.87934224  0.13008233  1
  O  O399  1  0.63152018  0.87441467  0.63197820  1
  O  O400  1  0.11982210  0.25556648  0.25535805  1
  O  O401  1  0.11813151  0.25751749  0.75128402  1
  O  O402  1  0.11816017  0.75800681  0.25642268  1
  O  O403  1  0.11558414  0.75309916  0.75605120  1
  O  O404  1  0.62531754  0.26229554  0.25081756  1
  O  O405  1  0.61627861  0.25477561  0.74841028  1
  O  O406  1  0.61580938  0.74957804  0.25705698  1
  O  O407  1  0.62013530  0.75506402  0.75586532  1
  O  O408  1  0.37809914  0.23855857  0.24602348  1
  O  O409  1  0.38500507  0.24398327  0.74831131  1
  O  O410  1  0.37899926  0.74395768  0.24365309  1
  O  O411  1  0.38309081  0.74829354  0.74365834  1
  O  O412  1  0.88241536  0.25053587  0.24263688  1
  O  O413  1  0.88132951  0.25061316  0.74208856  1
  O  O414  1  0.88243775  0.74897683  0.24849241  1
  O  O415  1  0.88415248  0.75190238  0.74427326  1
  O  O416  1  0.38394967  0.49553158  0.49592407  1
  O  O417  1  0.38204514  0.49421929  0.99535884  1
  O  O418  1  0.38151317  0.99256128  0.49812141  1
  O  O419  1  0.38294730  0.99895931  0.99230407  1
  O  O420  1  0.87956916  0.49386483  0.49503736  1
  O  O421  1  0.87708982  0.49325950  0.99183182  1
  O  O422  1  0.88087092  0.99560149  0.49607264  1
  O  O423  1  0.88069622  0.99051841  1.00063564  1
  O  O424  1  0.12023385  0.00516373  0.00609438  1
  O  O425  1  0.11905318  0.00682335  0.50564266  1
  O  O426  1  0.12231343  0.50252050  0.01001284  1
  O  O427  1  0.11738327  0.50038144  0.50653173  1
  O  O428  1  0.62050216  0.00941090  0.00109157  1
  O  O429  1  0.61793418  0.00572817  0.50116305  1
  O  O430  1  0.61283384  0.50004206  0.00014570  1
  O  O431  1  0.61951539  0.50490988  0.50562973  1
  O  O432  1  0.36778126  0.37367674  0.11942784  1
  O  O433  1  0.36577665  0.37189308  0.62150292  1
  O  O434  1  0.36699762  0.86838284  0.12410271  1
  O  O435  1  0.37017118  0.86929571  0.62015168  1
  O  O436  1  0.87108804  0.37079073  0.11921822  1
  O  O437  1  0.86892825  0.36997534  0.61865945  1
  O  O438  1  0.87352381  0.87158941  0.11242892  1
  O  O439  1  0.87011384  0.86965868  0.61974784  1
  O  O440  1  0.12932057  0.13125470  0.38028882  1
  O  O441  1  0.13296628  0.12609955  0.88212579  1
  O  O442  1  0.13423628  0.63144691  0.37422430  1
  O  O443  1  0.13174571  0.63184778  0.87662786  1
  O  O444  1  0.63200403  0.12676418  0.38163095  1
  O  O445  1  0.62644349  0.12749596  0.88898741  1
  O  O446  1  0.62840490  0.62859134  0.37981862  1
  O  O447  1  0.63275052  0.63190262  0.87786268  1
