# generated using pymatgen
data_V3Zn3O8
_symmetry_space_group_name_H-M   'P 1'
_cell_length_a   17.08873982
_cell_length_b   17.09010717
_cell_length_c   17.08979918
_cell_angle_alpha   89.99645019
_cell_angle_beta   89.98590801
_cell_angle_gamma   89.99342068
_symmetry_Int_Tables_number   1
_chemical_formula_structural   V3Zn3O8
_chemical_formula_sum   'V96 Zn96 O256'
_cell_volume   4991.04822500
_cell_formula_units_Z   32
loop_
 _symmetry_equiv_pos_site_id
 _symmetry_equiv_pos_as_xyz
  1  'x, y, z'
loop_
 _atom_site_type_symbol
 _atom_site_label
 _atom_site_symmetry_multiplicity
 _atom_site_fract_x
 _atom_site_fract_y
 _atom_site_fract_z
 _atom_site_occupancy
  V  V0  1  0.37544116  0.12510076  0.25167639  1
  V  V1  1  0.12611758  0.12528900  0.00150499  1
  V  V2  1  0.87413042  0.25063365  0.12456767  1
  V  V3  1  0.87360195  0.37470763  -0.00050882  1
  V  V4  1  0.25020326  -0.00017881  0.25090668  1
  V  V5  1  0.49964925  0.62566392  0.62445243  1
  V  V6  1  0.62652406  0.75020014  0.87511155  1
  V  V7  1  0.00179285  -0.00037427  0.50065750  1
  V  V8  1  0.87551736  0.87593440  -0.00044594  1
  V  V9  1  0.24967102  0.74955598  0.00033166  1
  V  V10  1  0.87627527  -0.00017629  0.87415407  1
  V  V11  1  0.12530021  0.25001381  0.87507711  1
  V  V12  1  0.37427676  0.87370112  0.50051758  1
  V  V13  1  0.24839172  0.49944987  0.24973240  1
  V  V14  1  0.87559549  0.00135633  0.37451466  1
  V  V15  1  0.12434728  0.62506041  0.49915827  1
  V  V16  1  -0.00033383  0.87610156  0.37453017  1
  V  V17  1  0.62535428  0.00054027  0.62416836  1
  V  V18  1  0.87464961  0.12624136  0.24904887  1
  V  V19  1  0.62446081  0.62569350  -0.00021108  1
  V  V20  1  0.75006696  0.00104962  0.25015212  1
  V  V21  1  0.25032078  -0.00329488  0.74945958  1
  V  V22  1  0.49843853  0.37650413  0.87484237  1
  V  V23  1  0.37453959  0.37573586  -0.00064623  1
  V  V24  1  0.49910590  0.62523198  0.12402975  1
  V  V25  1  0.49892922  0.37539926  0.37485127  1
  V  V26  1  0.37493108  0.24956775  0.62593338  1
  V  V27  1  0.87487406  0.74947953  0.62408595  1
  V  V28  1  -0.00211727  0.49917472  0.49928881  1
  V  V29  1  0.62507929  0.37615673  0.74958502  1
  V  V30  1  0.37710831  0.12535867  0.75063299  1
  V  V31  1  0.75081057  0.87682440  0.12464343  1
  V  V32  1  0.62424179  0.37633356  0.24831551  1
  V  V33  1  0.00023165  0.50026043  -0.00006311  1
  V  V34  1  0.12433165  0.87523343  0.24972869  1
  V  V35  1  0.37640843  0.87600457  0.00170732  1
  V  V36  1  0.50131130  0.87326477  0.37424946  1
  V  V37  1  0.25012278  0.50023252  0.74956750  1
  V  V38  1  0.00106236  0.00059497  -0.00042626  1
  V  V39  1  -0.00129871  0.37498144  0.37542002  1
  V  V40  1  0.12528567  0.75061402  0.87477769  1
  V  V41  1  0.37406907  0.62499560  0.24891392  1
  V  V42  1  0.87703067  0.12466626  0.74950455  1
  V  V43  1  0.24847452  0.62430797  0.37521834  1
  V  V44  1  0.49961522  0.50073273  0.50057853  1
  V  V45  1  0.37408200  0.49952966  0.37546895  1
  V  V46  1  0.75135323  0.87407544  0.62407043  1
  V  V47  1  0.24950713  0.12526405  0.37708280  1
  V  V48  1  0.62607445  0.87503479  0.75027615  1
  V  V49  1  0.12469848  0.49915315  0.62496748  1
  V  V50  1  0.74941780  0.49965285  0.74802547  1
  V  V51  1  0.75123345  -0.00083681  0.74918920  1
  V  V52  1  0.25072189  0.62500062  0.87467027  1
  V  V53  1  0.74924641  0.12643454  0.37560076  1
  V  V54  1  0.62498062  0.12439306  0.49970353  1
  V  V55  1  -0.00101968  0.74901741  0.24948934  1
  V  V56  1  0.12548015  0.00110535  0.12539971  1
  V  V57  1  -0.00068368  0.12607845  0.12572445  1
  V  V58  1  0.25002652  0.75050695  0.50124614  1
  V  V59  1  0.62489065  0.24998665  0.37628672  1
  V  V60  1  0.87496169  0.62422770  0.74974824  1
  V  V61  1  0.74891773  0.37605479  0.12391717  1
  V  V62  1  0.87501550  0.49970043  0.87422927  1
  V  V63  1  0.74866347  0.74786193  0.49673495  1
  V  V64  1  0.25027824  0.25006206  0.00097301  1
  V  V65  1  0.12345751  0.62387534  0.00074689  1
  V  V66  1  0.00114213  0.24873432  0.75013117  1
  V  V67  1  0.62444819  0.49840925  0.62474898  1
  V  V68  1  0.62637625  0.24972240  0.87479821  1
  V  V69  1  0.00170242  0.12415657  0.62492103  1
  V  V70  1  0.00194465  0.87479417  0.87396526  1
  V  V71  1  0.49955440  0.25073590  0.25038475  1
  V  V72  1  0.50111195  0.00055259  0.00147440  1
  V  V73  1  0.62453250  0.87436927  0.25107200  1
  V  V74  1  0.37294792  0.37437430  0.50161315  1
  V  V75  1  0.87564396  0.74944169  0.12376869  1
  V  V76  1  0.75045589  0.12510930  0.87455921  1
  V  V77  1  0.62397343  0.50048222  0.12345620  1
  V  V78  1  0.50041570  -0.00088690  0.50065998  1
  V  V79  1  -0.00052644  0.62477206  0.62422327  1
  V  V80  1  0.87132061  0.50070025  0.37271265  1
  V  V81  1  0.25029906  0.87504841  0.12582102  1
  V  V82  1  0.24878951  0.37519156  0.12583733  1
  V  V83  1  0.37479577  0.74914783  0.12636664  1
  V  V84  1  -0.00010032  0.37361389  0.87391563  1
  V  V85  1  0.12466860  0.24898828  0.37734121  1
  V  V86  1  0.37782600  0.00056844  0.87738550  1
  V  V87  1  0.74952200  0.62541628  0.87478693  1
  V  V88  1  0.50125188  0.12542475  0.12570892  1
  V  V89  1  0.62532865  0.00139834  0.12502699  1
  V  V90  1  0.12479823  0.37522349  0.25069017  1
  V  V91  1  0.25213600  0.12515028  0.87685376  1
  V  V92  1  0.49971270  0.75039963  0.75023952  1
  V  V93  1  0.00124273  0.74986073  0.75012863  1
  V  V94  1  0.37476581  -0.00065693  0.37612422  1
  V  V95  1  0.37505246  0.25068708  0.12636028  1
  Zn  Zn96  1  0.87251566  0.62370038  0.24815773  1
  Zn  Zn97  1  0.37466375  0.75146839  0.62708329  1
  Zn  Zn98  1  0.24924168  0.24925039  0.50266182  1
  Zn  Zn99  1  0.74674216  0.62512446  0.37008142  1
  Zn  Zn100  1  0.87001212  0.37177973  0.50005578  1
  Zn  Zn101  1  0.12715047  -0.00330064  0.62523583  1
  Zn  Zn102  1  0.49997185  0.24882946  0.74940401  1
  Zn  Zn103  1  0.12222635  0.50007162  0.12536827  1
  Zn  Zn104  1  0.37457319  0.50196648  0.87497253  1
  Zn  Zn105  1  0.37509546  0.62553487  0.75171674  1
  Zn  Zn106  1  0.50167243  0.74870082  0.25147720  1
  Zn  Zn107  1  0.12487743  0.37389727  0.74867551  1
  Zn  Zn108  1  0.75080234  0.25022212  0.50453924  1
  Zn  Zn109  1  0.49690697  0.50224440  -0.00155899  1
  Zn  Zn110  1  0.50260256  0.87602005  0.87670406  1
  Zn  Zn111  1  0.62680707  0.12547613  0.00060299  1
  Zn  Zn112  1  0.87429388  0.25333455  0.62267385  1
  Zn  Zn113  1  0.24718835  0.37335039  0.62543731  1
  Zn  Zn114  1  0.87552234  0.87400440  0.49915674  1
  Zn  Zn115  1  0.75007867  0.75123305  -0.00085661  1
  Zn  Zn116  1  -0.00117929  0.25063329  0.25069647  1
  Zn  Zn117  1  0.25021720  0.87456877  0.62592096  1
  Zn  Zn118  1  0.12735621  0.87396027  0.74829546  1
  Zn  Zn119  1  0.12747909  0.12454940  0.50259496  1
  Zn  Zn120  1  0.74976263  0.24900392  -0.00022676  1
  Zn  Zn121  1  0.62507120  0.62394276  0.49506243  1
  Zn  Zn122  1  0.74911403  0.50376849  0.24908742  1
  Zn  Zn123  1  0.75196525  0.37240519  0.62323442  1
  Zn  Zn124  1  0.50132363  0.12464174  0.62656322  1
  Zn  Zn125  1  0.12267716  0.74945082  0.37453719  1
  Zn  Zn126  1  0.62441045  0.74640042  0.37257868  1
  Zn  Zn127  1  -0.00056201  0.62160865  0.12521911  1
  Zn  Zn128  1  0.18752071  0.18851226  0.19061386  1
  Zn  Zn129  1  0.18867959  0.18456442  0.68901957  1
  Zn  Zn130  1  0.18543602  0.68608560  0.18609495  1
  Zn  Zn131  1  0.18622836  0.68560859  0.68666980  1
  Zn  Zn132  1  0.68809098  0.18971188  0.18832152  1
  Zn  Zn133  1  0.68855555  0.18762350  0.68738348  1
  Zn  Zn134  1  0.68835243  0.68727349  0.18823774  1
  Zn  Zn135  1  0.68659130  0.68621397  0.68543850  1
  Zn  Zn136  1  0.31071967  0.31235319  0.31397992  1
  Zn  Zn137  1  0.31172175  0.31383806  0.81086286  1
  Zn  Zn138  1  0.31286205  0.81100815  0.31468579  1
  Zn  Zn139  1  0.31594596  0.81334072  0.81614640  1
  Zn  Zn140  1  0.81033384  0.31406367  0.31173930  1
  Zn  Zn141  1  0.81264461  0.31190443  0.80885718  1
  Zn  Zn142  1  0.81314690  0.81494023  0.31265963  1
  Zn  Zn143  1  0.81365493  0.81176076  0.81164639  1
  Zn  Zn144  1  0.18710589  0.43582771  0.43929080  1
  Zn  Zn145  1  0.18615612  0.43762679  0.93638583  1
  Zn  Zn146  1  0.18587915  0.93570521  0.43650747  1
  Zn  Zn147  1  0.18891452  0.93693870  0.93693608  1
  Zn  Zn148  1  0.68752395  0.43585689  0.43927179  1
  Zn  Zn149  1  0.68686268  0.43894165  0.93829767  1
  Zn  Zn150  1  0.68802451  0.93573428  0.43750135  1
  Zn  Zn151  1  0.68784613  0.93782473  0.93791152  1
  Zn  Zn152  1  0.31419932  0.06320627  0.06452840  1
  Zn  Zn153  1  0.31361329  0.06381202  0.56331587  1
  Zn  Zn154  1  0.31131940  0.56047994  0.06160903  1
  Zn  Zn155  1  0.31339258  0.56357848  0.56424290  1
  Zn  Zn156  1  0.81210627  0.06410059  0.06099306  1
  Zn  Zn157  1  0.81408962  0.06417544  0.56149429  1
  Zn  Zn158  1  0.81094568  0.56288034  0.06121135  1
  Zn  Zn159  1  0.81177110  0.56132838  0.56037755  1
  Zn  Zn160  1  0.43755693  0.43947492  0.18647179  1
  Zn  Zn161  1  0.43611536  0.43699622  0.68848465  1
  Zn  Zn162  1  0.43860033  0.93704530  0.18864668  1
  Zn  Zn163  1  0.43691055  0.93630024  0.68596518  1
  Zn  Zn164  1  0.93766539  0.43588521  0.18808789  1
  Zn  Zn165  1  0.93711230  0.43520537  0.68664845  1
  Zn  Zn166  1  0.93732850  0.93782061  0.18735108  1
  Zn  Zn167  1  0.93794791  0.93529243  0.68666328  1
  Zn  Zn168  1  0.06209255  0.06406853  0.31241008  1
  Zn  Zn169  1  0.06539817  0.06304736  0.81301514  1
  Zn  Zn170  1  0.06051005  0.56231230  0.31300599  1
  Zn  Zn171  1  0.06384879  0.56288430  0.81296104  1
  Zn  Zn172  1  0.56243573  0.06152871  0.31351071  1
  Zn  Zn173  1  0.56280404  0.06323169  0.81222029  1
  Zn  Zn174  1  0.56264803  0.56356944  0.31130388  1
  Zn  Zn175  1  0.56337715  0.56275805  0.81194089  1
  Zn  Zn176  1  0.43833838  0.18732350  0.44006835  1
  Zn  Zn177  1  0.43965273  0.18866928  0.93897145  1
  Zn  Zn178  1  0.43681207  0.68782146  0.43645372  1
  Zn  Zn179  1  0.43713331  0.68790509  0.93696152  1
  Zn  Zn180  1  0.93685850  0.18809580  0.43918689  1
  Zn  Zn181  1  0.93712378  0.18805217  0.93813677  1
  Zn  Zn182  1  0.93446179  0.68573239  0.43630591  1
  Zn  Zn183  1  0.93796222  0.68692482  0.93725835  1
  Zn  Zn184  1  0.06120478  0.31321866  0.06256279  1
  Zn  Zn185  1  0.06024497  0.31397259  0.56218428  1
  Zn  Zn186  1  0.06295890  0.81291389  0.06199819  1
  Zn  Zn187  1  0.06572113  0.81458422  0.56465767  1
  Zn  Zn188  1  0.56207777  0.31338412  0.06007650  1
  Zn  Zn189  1  0.56126106  0.31207242  0.56236672  1
  Zn  Zn190  1  0.56256169  0.81177222  0.06397765  1
  Zn  Zn191  1  0.56471804  0.81286282  0.56170945  1
  O  O192  1  0.12086557  0.12036492  0.12109289  1
  O  O193  1  0.11373569  0.11984043  0.62480802  1
  O  O194  1  0.12115296  0.62242085  0.11595410  1
  O  O195  1  0.11779738  0.61937816  0.61811991  1
  O  O196  1  0.61893123  0.11965758  0.12535640  1
  O  O197  1  0.62385159  0.11728619  0.61894092  1
  O  O198  1  0.61924541  0.62100518  0.11917019  1
  O  O199  1  0.61308262  0.61827451  0.62427811  1
  O  O200  1  0.37974220  0.38001029  0.38005146  1
  O  O201  1  0.38404211  0.37346186  0.88020141  1
  O  O202  1  0.38025623  0.88106856  0.38020036  1
  O  O203  1  0.37903538  0.88232839  0.88499170  1
  O  O204  1  0.88130409  0.38372757  0.37397367  1
  O  O205  1  0.88003511  0.38031353  0.87907198  1
  O  O206  1  0.88259695  0.88450082  0.37544681  1
  O  O207  1  0.88152059  0.88040747  0.87953931  1
  O  O208  1  0.25501990  0.00440862  0.36945433  1
  O  O209  1  0.25785639  0.00566012  0.87063472  1
  O  O210  1  0.25497584  0.50484963  0.37006358  1
  O  O211  1  0.24834985  0.50634895  0.86539360  1
  O  O212  1  0.75567157  0.00556632  0.36945089  1
  O  O213  1  0.75674421  0.00415130  0.86841278  1
  O  O214  1  0.76050890  0.49948117  0.37328514  1
  O  O215  1  0.75534367  0.50596704  0.86869620  1
  O  O216  1  0.24794196  0.49221270  0.13210970  1
  O  O217  1  0.24348836  0.50200769  0.63398495  1
  O  O218  1  0.24529028  0.99535035  0.13119591  1
  O  O219  1  0.25085718  1.00063140  0.63824692  1
  O  O220  1  0.74252918  0.49338624  0.12459974  1
  O  O221  1  0.74156598  0.50154269  0.63177201  1
  O  O222  1  0.74573537  0.99645170  0.13080002  1
  O  O223  1  0.74617065  0.99454004  0.62993460  1
  O  O224  1  0.00740502  0.37235542  0.25751020  1
  O  O225  1  0.00179451  0.36739577  0.75738829  1
  O  O226  1  0.00494100  0.86915031  0.25380262  1
  O  O227  1  0.00147586  0.86782899  0.75701998  1
  O  O228  1  0.50331656  0.36953644  0.25499489  1
  O  O229  1  0.50521194  0.37366270  0.76037143  1
  O  O230  1  0.50635216  0.87474718  0.25636055  1
  O  O231  1  0.50715996  0.86563746  0.75002597  1
  O  O232  1  0.49419690  0.13062967  0.24597896  1
  O  O233  1  0.49169018  0.12709534  0.74825430  1
  O  O234  1  0.49091721  0.62576163  0.24238617  1
  O  O235  1  0.50078893  0.63413935  0.74275810  1
  O  O236  1  0.99269520  0.12556837  0.24260646  1
  O  O237  1  0.99689998  0.12721038  0.74357003  1
  O  O238  1  0.99782332  0.63818504  0.24750581  1
  O  O239  1  0.99440218  0.63020166  0.74472131  1
  O  O240  1  0.36929774  0.25480944  0.00698503  1
  O  O241  1  0.37435469  0.25515016  0.50927249  1
  O  O242  1  0.36883049  0.75592401  0.00624294  1
  O  O243  1  0.36493126  0.75466050  0.49973362  1
  O  O244  1  0.87366896  0.25695897  0.00590717  1
  O  O245  1  0.87097886  0.25157198  0.50279622  1
  O  O246  1  0.87633367  0.75756466  0.00816433  1
  O  O247  1  0.86703049  0.75117660  0.50653101  1
  O  O248  1  0.12620331  0.24860198  0.48810467  1
  O  O249  1  0.13089842  0.24400026  0.99573555  1
  O  O250  1  0.13337731  0.74389244  0.49805316  1
  O  O251  1  0.13050535  0.74570437  0.99488502  1
  O  O252  1  0.62263520  0.24186538  0.49241938  1
  O  O253  1  0.62657845  0.24913312  0.98641376  1
  O  O254  1  0.63721569  0.74915822  0.49861126  1
  O  O255  1  0.62708822  0.74474412  0.99348665  1
  O  O256  1  0.49462792  0.24593441  0.13073294  1
  O  O257  1  0.48762261  0.24773646  0.62773025  1
  O  O258  1  0.49182088  0.74344456  0.12717316  1
  O  O259  1  0.50237912  0.74257157  0.63346411  1
  O  O260  1  0.99321436  0.24325896  0.12646498  1
  O  O261  1  1.00146837  0.23832946  0.63081118  1
  O  O262  1  0.99110209  0.75330502  0.13283602  1
  O  O263  1  0.99516359  0.74413008  0.62963010  1
  O  O264  1  0.00961810  0.25442874  0.37353701  1
  O  O265  1  0.00592147  0.25308862  0.87045600  1
  O  O266  1  -0.00182772  0.75631017  0.36456446  1
  O  O267  1  0.00503387  0.75512092  0.86970668  1
  O  O268  1  0.50399643  0.25558659  0.36938852  1
  O  O269  1  0.50838643  0.25945784  0.87410112  1
  O  O270  1  0.50105233  0.75857791  0.37252660  1
  O  O271  1  0.50715150  0.75114549  0.86520301  1
  O  O272  1  0.24694890  0.12612236  0.49222802  1
  O  O273  1  0.24597115  0.13038817  0.99699592  1
  O  O274  1  0.24539034  0.63145898  0.49468524  1
  O  O275  1  0.24401141  0.63077740  0.99507609  1
  O  O276  1  0.74228196  0.12350693  0.49194111  1
  O  O277  1  0.74761942  0.12755045  0.99047072  1
  O  O278  1  0.74809787  0.63699144  0.49909446  1
  O  O279  1  0.74334620  0.62805155  0.99206451  1
  O  O280  1  0.25413932  0.36837919  0.00516345  1
  O  O281  1  0.25841582  0.37247806  0.50376173  1
  O  O282  1  0.25559968  0.87006550  0.00673720  1
  O  O283  1  0.25477969  0.86543404  0.49775642  1
  O  O284  1  0.75661955  0.37391218  0.00515464  1
  O  O285  1  0.75009953  0.36954864  0.50419552  1
  O  O286  1  0.75798814  0.87483356  0.00642451  1
  O  O287  1  0.75282915  0.86671915  0.50642722  1
  O  O288  1  0.13091926  0.49341418  0.24992196  1
  O  O289  1  0.13355749  0.50083356  0.74373262  1
  O  O290  1  0.13048789  0.99562713  0.24438948  1
  O  O291  1  0.13995280  0.99906493  0.75351735  1
  O  O292  1  0.62344811  0.49240708  0.24127876  1
  O  O293  1  0.63007000  0.49555073  0.74491148  1
  O  O294  1  0.63077992  0.99537263  0.24441169  1
  O  O295  1  0.63174542  0.99478108  0.74498566  1
  O  O296  1  0.36958092  0.00538165  0.25580203  1
  O  O297  1  0.36929206  0.00435558  0.75691828  1
  O  O298  1  0.36815713  0.50491646  0.25571700  1
  O  O299  1  0.36277209  0.50238618  0.75173128  1
  O  O300  1  0.86968331  0.00621025  0.25395992  1
  O  O301  1  0.87094553  0.00408387  0.75551931  1
  O  O302  1  0.87465541  0.50094304  0.25985968  1
  O  O303  1  0.87030258  0.50600462  0.75569060  1
  O  O304  1  0.12050894  0.36726872  0.37040470  1
  O  O305  1  0.11766113  0.36659653  0.87466675  1
  O  O306  1  0.11736610  0.87302892  0.36641670  1
  O  O307  1  0.11936383  0.86823331  0.87463760  1
  O  O308  1  0.61677085  0.37038620  0.36856979  1
  O  O309  1  0.61776850  0.36897626  0.87062970  1
  O  O310  1  0.61860875  0.87511633  0.36769807  1
  O  O311  1  0.62495052  0.86911501  0.86786120  1
  O  O312  1  0.38054330  0.13119273  0.13244341  1
  O  O313  1  0.37720839  0.13357000  0.63150348  1
  O  O314  1  0.37810199  0.62979468  0.12911300  1
  O  O315  1  0.38885584  0.62756450  0.62801881  1
  O  O316  1  0.87977719  0.13004201  0.12929848  1
  O  O317  1  0.88792124  0.12244406  0.63180568  1
  O  O318  1  0.87736954  0.63835209  0.12360297  1
  O  O319  1  0.88044258  0.62933929  0.63085364  1
  O  O320  1  0.25577695  0.25453610  0.12104814  1
  O  O321  1  0.26105944  0.24998444  0.62498127  1
  O  O322  1  0.25444129  0.75585775  0.11978801  1
  O  O323  1  0.25200936  0.74769631  0.61247090  1
  O  O324  1  0.75563366  0.25706495  0.12242995  1
  O  O325  1  0.75458868  0.25196207  0.62466522  1
  O  O326  1  0.76155458  0.75830267  0.12382734  1
  O  O327  1  0.75500128  0.75403437  0.61832319  1
  O  O328  1  0.24112243  0.24398093  0.37621802  1
  O  O329  1  0.24588236  0.24440258  0.88129742  1
  O  O330  1  0.24746943  0.74343497  0.38450061  1
  O  O331  1  0.24535003  0.74552036  0.88139630  1
  O  O332  1  0.74071414  0.24249141  0.37294573  1
  O  O333  1  0.74121518  0.24467100  0.87410326  1
  O  O334  1  0.75163489  0.75110099  0.38597889  1
  O  O335  1  0.74470232  0.74336358  0.87471062  1
  O  O336  1  0.00634768  0.11939269  0.00545487  1
  O  O337  1  0.00168650  0.11573566  0.50849514  1
  O  O338  1  0.00583389  0.61822652  -0.00075444  1
  O  O339  1  0.00475690  0.62015157  0.50493802  1
  O  O340  1  0.50167486  0.11918913  0.00855322  1
  O  O341  1  0.50675686  0.11587684  0.50030433  1
  O  O342  1  0.50606067  0.62483097  0.00571854  1
  O  O343  1  0.49955955  0.62005118  0.50914954  1
  O  O344  1  0.49309584  0.38119764  0.49385634  1
  O  O345  1  0.49351427  0.37556213  0.99011843  1
  O  O346  1  0.49502300  0.87982427  0.49460426  1
  O  O347  1  0.49375031  0.88230966  1.00115986  1
  O  O348  1  0.99947969  0.38318992  0.49146357  1
  O  O349  1  0.99357146  0.37980147  0.99332628  1
  O  O350  1  0.99905761  0.88347490  0.49434346  1
  O  O351  1  0.99580910  0.88189804  0.99423801  1
  O  O352  1  0.49267002  0.49460825  0.38003917  1
  O  O353  1  0.49892422  0.48809779  0.87535558  1
  O  O354  1  0.49350150  0.99382525  0.38042617  1
  O  O355  1  0.49513802  0.99914091  0.88273134  1
  O  O356  1  0.99241859  0.49494052  0.37973647  1
  O  O357  1  0.99404550  0.49419019  0.87898411  1
  O  O358  1  0.99543671  0.99720797  0.38181007  1
  O  O359  1  0.99614202  0.99567950  0.88013701  1
  O  O360  1  0.00587950  0.00545707  0.11926876  1
  O  O361  1  0.00073031  0.00623730  0.61745811  1
  O  O362  1  0.00070675  0.50081449  0.11582064  1
  O  O363  1  0.00461824  0.50688718  0.62010438  1
  O  O364  1  0.50517099  0.00629646  0.12166042  1
  O  O365  1  0.50761581  -0.00034857  0.61818708  1
  O  O366  1  0.50533204  0.50721251  0.12170675  1
  O  O367  1  0.50335136  0.50777195  0.62159057  1
  O  O368  1  0.24510870  0.38013163  0.24560764  1
  O  O369  1  0.24622076  0.38704211  0.74868165  1
  O  O370  1  0.24492910  0.88034311  0.24554155  1
  O  O371  1  0.25227383  0.88579915  0.75192906  1
  O  O372  1  0.74070077  0.37726876  0.24160793  1
  O  O373  1  0.74224507  0.38348202  0.75036900  1
  O  O374  1  0.74561958  0.88281973  0.24432157  1
  O  O375  1  0.74601737  0.87995880  0.74428784  1
  O  O376  1  0.25630350  0.11902841  0.25568419  1
  O  O377  1  0.25721673  0.11627169  0.75817682  1
  O  O378  1  0.25370578  0.61950404  0.25500999  1
  O  O379  1  0.25062146  0.61720860  0.75559248  1
  O  O380  1  0.75491587  0.11942484  0.25519884  1
  O  O381  1  0.75686015  0.11744148  0.75548029  1
  O  O382  1  0.75520889  0.62177334  0.25166302  1
  O  O383  1  0.75538198  0.61974017  0.75469565  1
  O  O384  1  0.37031234  0.11948632  0.37015501  1
  O  O385  1  0.37056612  0.12076111  0.87216538  1
  O  O386  1  0.36869823  0.61829135  0.36923841  1
  O  O387  1  0.36653603  0.62311395  0.87303346  1
  O  O388  1  0.86979380  0.11978776  0.36830998  1
  O  O389  1  0.87172389  0.11831177  0.86954068  1
  O  O390  1  0.87358060  0.61268186  0.37167852  1
  O  O391  1  0.86985008  0.61974519  0.86919150  1
  O  O392  1  0.13175615  0.37415425  0.13200384  1
  O  O393  1  0.12620028  0.38343145  0.62763460  1
  O  O394  1  0.13074323  0.88188770  0.12938116  1
  O  O395  1  0.13186164  0.87946574  0.63095882  1
  O  O396  1  0.62827767  0.37986061  0.12817125  1
  O  O397  1  0.62122749  0.38206181  0.63352057  1
  O  O398  1  0.63120466  0.88186052  0.13036447  1
  O  O399  1  0.63203343  0.88105987  0.63093501  1
  O  O400  1  0.12420880  0.25585010  0.26143109  1
  O  O401  1  0.11976569  0.24862840  0.75814736  1
  O  O402  1  0.11462115  0.75657311  0.24863970  1
  O  O403  1  0.11866030  0.74919270  0.75727762  1
  O  O404  1  0.61758148  0.25596395  0.25537604  1
  O  O405  1  0.62308964  0.25568108  0.76124182  1
  O  O406  1  0.62346520  0.76047426  0.25021814  1
  O  O407  1  0.61843790  0.75471057  0.75437930  1
  O  O408  1  0.37998211  0.24509869  0.24597804  1
  O  O409  1  0.37481245  0.24415003  0.74236630  1
  O  O410  1  0.37359201  0.74262860  0.24338961  1
  O  O411  1  0.38757315  0.74954949  0.74934969  1
  O  O412  1  0.87564631  0.24345823  0.24295960  1
  O  O413  1  0.88430788  0.24087594  0.75066962  1
  O  O414  1  0.88424846  0.75414348  0.23996388  1
  O  O415  1  0.88117738  0.74329436  0.74463264  1
  O  O416  1  0.37975400  0.49509511  0.49500763  1
  O  O417  1  0.37571103  0.49086237  0.99615036  1
  O  O418  1  0.37988068  0.99431017  0.49444885  1
  O  O419  1  0.38068310  0.99577949  0.99768943  1
  O  O420  1  0.88124663  0.49953901  0.48966188  1
  O  O421  1  0.87975417  0.49474839  0.99278278  1
  O  O422  1  0.88644147  0.99938564  0.49392129  1
  O  O423  1  0.88199445  0.99564817  0.99411049  1
  O  O424  1  0.12140739  0.00576204  0.00563222  1
  O  O425  1  0.11233200  0.00167677  0.49934664  1
  O  O426  1  0.11807291  0.50583914  -0.00006645  1
  O  O427  1  0.11890913  0.50596909  0.50455471  1
  O  O428  1  0.61925008  0.00135226  0.00742575  1
  O  O429  1  0.62018093  0.00397831  0.50472702  1
  O  O430  1  0.62165154  0.50779323  0.00540618  1
  O  O431  1  0.61569737  0.50084602  0.50684086  1
  O  O432  1  0.36933010  0.36891428  0.12070620  1
  O  O433  1  0.37385351  0.36575119  0.62025618  1
  O  O434  1  0.36882956  0.87032019  0.12156828  1
  O  O435  1  0.37147550  0.87164300  0.61578430  1
  O  O436  1  0.86920821  0.37003139  0.11924850  1
  O  O437  1  0.87260320  0.37267253  0.62083473  1
  O  O438  1  0.87104991  0.86970824  0.11923018  1
  O  O439  1  0.86872658  0.86694452  0.62412117  1
  O  O440  1  0.13041238  0.13406988  0.37420874  1
  O  O441  1  0.13185849  0.12998713  0.88310255  1
  O  O442  1  0.13068033  0.62619184  0.38130624  1
  O  O443  1  0.13043081  0.63194507  0.88125197  1
  O  O444  1  0.62955186  0.12963829  0.37918108  1
  O  O445  1  0.63107903  0.13429105  0.87457320  1
  O  O446  1  0.62763652  0.62838634  0.37769603  1
  O  O447  1  0.63031060  0.63026899  0.87939671  1
