# generated using pymatgen
data_V3Zn3O8
_symmetry_space_group_name_H-M   'P 1'
_cell_length_a   17.08459868
_cell_length_b   17.08553188
_cell_length_c   17.08520804
_cell_angle_alpha   90.00159098
_cell_angle_beta   90.00781218
_cell_angle_gamma   90.00089729
_symmetry_Int_Tables_number   1
_chemical_formula_structural   V3Zn3O8
_chemical_formula_sum   'V96 Zn96 O256'
_cell_volume   4987.16287453
_cell_formula_units_Z   32
loop_
 _symmetry_equiv_pos_site_id
 _symmetry_equiv_pos_as_xyz
  1  'x, y, z'
loop_
 _atom_site_type_symbol
 _atom_site_label
 _atom_site_symmetry_multiplicity
 _atom_site_fract_x
 _atom_site_fract_y
 _atom_site_fract_z
 _atom_site_occupancy
  V  V0  1  0.37448393  0.87581263  0.50162378  1
  V  V1  1  0.75160543  0.62580457  0.37449477  1
  V  V2  1  0.37445480  0.62350464  0.25015980  1
  V  V3  1  0.25037374  0.87513269  0.12544081  1
  V  V4  1  0.87532705  0.25110531  0.12493993  1
  V  V5  1  0.24927041  0.25002888  0.50025934  1
  V  V6  1  -0.00081378  0.62746907  0.12671357  1
  V  V7  1  0.00102542  0.12498885  0.12490169  1
  V  V8  1  0.00032965  0.00069316  0.00041421  1
  V  V9  1  0.37462232  0.75034336  0.12435806  1
  V  V10  1  -0.00165723  0.00011713  0.50062452  1
  V  V11  1  0.24859389  0.87473445  0.62553020  1
  V  V12  1  0.00078058  0.50034784  -0.00146824  1
  V  V13  1  0.49872125  0.25014560  0.75023643  1
  V  V14  1  0.37481948  0.37447848  0.49923717  1
  V  V15  1  0.87404545  0.74951480  0.62550812  1
  V  V16  1  0.49847817  0.00003509  0.50109247  1
  V  V17  1  0.00028992  0.62616947  0.62450206  1
  V  V18  1  0.12294235  0.12536270  0.50037012  1
  V  V19  1  0.75108804  0.37528802  0.12447810  1
  V  V20  1  0.74682601  -0.00020144  0.75005357  1
  V  V21  1  0.62552029  -0.00026227  0.12520788  1
  V  V22  1  0.50001550  -0.00058427  0.00087736  1
  V  V23  1  0.24957377  0.62483769  0.87436285  1
  V  V24  1  0.37296481  0.24971119  0.62505412  1
  V  V25  1  0.62455508  0.12578210  0.50019942  1
  V  V26  1  0.74981959  0.12498595  0.87562793  1
  V  V27  1  0.12552637  0.49942627  0.62327983  1
  V  V28  1  0.37429383  0.37395600  -0.00093670  1
  V  V29  1  0.37496981  0.87530054  0.00001329  1
  V  V30  1  0.50038656  0.50011928  -0.00033538  1
  V  V31  1  0.74972649  0.74887988  0.00098680  1
  V  V32  1  0.74905545  -0.00085357  0.25010858  1
  V  V33  1  -0.00236582  0.74951487  0.75003500  1
  V  V34  1  0.12330863  -0.00079027  0.62586787  1
  V  V35  1  0.37328500  0.12432184  0.75155473  1
  V  V36  1  0.74789760  0.12722661  0.37737401  1
  V  V37  1  0.24947858  0.12502574  0.37522836  1
  V  V38  1  0.49968335  0.49858416  0.49712258  1
  V  V39  1  0.12565323  0.37555295  0.24848123  1
  V  V40  1  0.25150554  0.75069199  0.50109661  1
  V  V41  1  0.87530633  0.12515941  0.25099488  1
  V  V42  1  0.87629538  0.50135912  0.37372148  1
  V  V43  1  0.37458179  0.50033858  0.87347723  1
  V  V44  1  0.00060039  0.25014939  0.24927208  1
  V  V45  1  0.75014744  0.87555930  0.12620984  1
  V  V46  1  0.25065078  -0.00011896  0.25016113  1
  V  V47  1  0.12444305  0.25018173  0.37443545  1
  V  V48  1  0.87444574  -0.00016225  0.37605346  1
  V  V49  1  0.87323144  0.87460954  0.50095505  1
  V  V50  1  0.75195514  0.50202026  0.24905075  1
  V  V51  1  0.25019166  0.50036983  0.24901214  1
  V  V52  1  0.12425940  0.12467137  0.00014836  1
  V  V53  1  0.12635216  0.62591999  0.49979562  1
  V  V54  1  0.12417254  0.25023815  0.87374481  1
  V  V55  1  0.62372095  0.37319273  0.25215305  1
  V  V56  1  0.00072311  0.87529312  0.37456344  1
  V  V57  1  0.49992131  0.62380823  0.12451040  1
  V  V58  1  0.12464707  0.74942528  0.87480105  1
  V  V59  1  0.87500441  0.50007543  0.87415727  1
  V  V60  1  0.00210179  0.37418693  0.87259607  1
  V  V61  1  0.62501959  0.12396320  0.00128072  1
  V  V62  1  -0.00062796  0.87479142  0.87567907  1
  V  V63  1  0.37452625  -0.00055661  0.87642863  1
  V  V64  1  0.25067451  0.62461935  0.37452135  1
  V  V65  1  0.62364583  0.75017385  0.87396998  1
  V  V66  1  0.37602579  0.24881889  0.12586903  1
  V  V67  1  0.12574814  0.62541094  -0.00158966  1
  V  V68  1  0.24968227  0.12417266  0.87515200  1
  V  V69  1  0.87500864  0.87492398  0.00118144  1
  V  V70  1  0.75058829  0.25014835  0.00108811  1
  V  V71  1  0.62429278  -0.00031363  0.62706892  1
  V  V72  1  0.37603239  0.12588124  0.25037629  1
  V  V73  1  0.49950633  0.37517915  0.87424492  1
  V  V74  1  0.50141601  0.75148726  0.25269214  1
  V  V75  1  0.87478238  0.12646300  0.74954443  1
  V  V76  1  0.87376146  0.37418372  0.50030048  1
  V  V77  1  0.75051334  0.74915252  0.50030484  1
  V  V78  1  0.62642100  0.49840920  0.62506526  1
  V  V79  1  -0.00044523  0.37632544  0.37372597  1
  V  V80  1  0.49923820  0.62770701  0.62659320  1
  V  V81  1  0.37547434  0.00035679  0.37656031  1
  V  V82  1  0.75132948  0.49888936  0.74987811  1
  V  V83  1  0.62512080  0.37450099  0.74930553  1
  V  V84  1  0.12535593  0.75128454  0.37479448  1
  V  V85  1  0.25019711  0.49953655  0.74834768  1
  V  V86  1  0.62663433  0.62504927  0.49839973  1
  V  V87  1  0.62478404  0.24966822  0.87563686  1
  V  V88  1  0.12404836  0.87509927  0.74985579  1
  V  V89  1  0.62495526  0.49995452  0.12370093  1
  V  V90  1  0.49861374  0.12519448  0.62563930  1
  V  V91  1  0.87378212  0.00054956  0.87522781  1
  V  V92  1  -0.00256019  0.12623579  0.62582935  1
  V  V93  1  0.12610680  0.49975368  0.12403119  1
  V  V94  1  0.12600686  0.87567994  0.25043993  1
  V  V95  1  0.25005080  0.25001014  -0.00068061  1
  Zn  Zn96  1  0.24799226  0.37381891  0.62361618  1
  Zn  Zn97  1  0.62675648  0.75278196  0.37497976  1
  Zn  Zn98  1  0.62248639  0.87361681  0.74941573  1
  Zn  Zn99  1  0.75106344  0.37231280  0.62363126  1
  Zn  Zn100  1  0.87469701  0.62542280  0.74972526  1
  Zn  Zn101  1  0.87508395  0.75036196  0.12712450  1
  Zn  Zn102  1  0.87409759  0.25192918  0.62692256  1
  Zn  Zn103  1  0.37476243  0.49789191  0.37338478  1
  Zn  Zn104  1  0.00070584  0.50079739  0.49851556  1
  Zn  Zn105  1  -0.00003797  0.24929079  0.74841571  1
  Zn  Zn106  1  0.12448874  0.37205839  0.74545808  1
  Zn  Zn107  1  0.49849208  0.75124466  0.75159744  1
  Zn  Zn108  1  0.62568842  0.62417391  -0.00022525  1
  Zn  Zn109  1  0.24942532  -0.00141190  0.75119187  1
  Zn  Zn110  1  0.74830409  0.25113254  0.50357124  1
  Zn  Zn111  1  0.25063396  0.75060333  -0.00100529  1
  Zn  Zn112  1  0.12562429  -0.00046485  0.12489299  1
  Zn  Zn113  1  0.24982985  0.37553890  0.12420282  1
  Zn  Zn114  1  0.74748322  0.87376256  0.62669969  1
  Zn  Zn115  1  0.87620844  0.62887997  0.25081433  1
  Zn  Zn116  1  0.37571678  0.75130866  0.62861844  1
  Zn  Zn117  1  0.74982767  0.62431284  0.87683450  1
  Zn  Zn118  1  0.37670064  0.62725713  0.75015063  1
  Zn  Zn119  1  0.50044925  0.24949591  0.25264928  1
  Zn  Zn120  1  0.87562819  0.37452999  0.00056973  1
  Zn  Zn121  1  0.50221645  0.12468472  0.12758262  1
  Zn  Zn122  1  0.50160612  0.87469319  0.37699705  1
  Zn  Zn123  1  0.62241080  0.25127679  0.37691323  1
  Zn  Zn124  1  0.49975586  0.37238948  0.37397245  1
  Zn  Zn125  1  0.49850978  0.87353053  0.87254811  1
  Zn  Zn126  1  -0.00112187  0.75216176  0.24913643  1
  Zn  Zn127  1  0.62448571  0.87577059  0.25313101  1
  Zn  Zn128  1  0.18906099  0.18709668  0.18668181  1
  Zn  Zn129  1  0.18610887  0.18635416  0.68812789  1
  Zn  Zn130  1  0.18723721  0.68886545  0.18746734  1
  Zn  Zn131  1  0.18734736  0.68788349  0.68806502  1
  Zn  Zn132  1  0.68875110  0.18757145  0.18770900  1
  Zn  Zn133  1  0.68918010  0.18837359  0.68588519  1
  Zn  Zn134  1  0.68646521  0.68676991  0.18690384  1
  Zn  Zn135  1  0.68794134  0.68459986  0.68823072  1
  Zn  Zn136  1  0.31192594  0.31407264  0.31310413  1
  Zn  Zn137  1  0.31038918  0.31352637  0.81185008  1
  Zn  Zn138  1  0.31404234  0.81330053  0.31358325  1
  Zn  Zn139  1  0.31354445  0.81115447  0.81087890  1
  Zn  Zn140  1  0.81192194  0.31339596  0.31269920  1
  Zn  Zn141  1  0.81352935  0.31223254  0.81233217  1
  Zn  Zn142  1  0.81434284  0.81090746  0.31137100  1
  Zn  Zn143  1  0.80971885  0.81459896  0.81260052  1
  Zn  Zn144  1  0.18846209  0.43733967  0.43574594  1
  Zn  Zn145  1  0.18760448  0.43699524  0.93678853  1
  Zn  Zn146  1  0.18761932  0.93777699  0.43854975  1
  Zn  Zn147  1  0.18809468  0.93742098  0.93808351  1
  Zn  Zn148  1  0.68971347  0.43964806  0.43570189  1
  Zn  Zn149  1  0.68733124  0.43535506  0.93799607  1
  Zn  Zn150  1  0.68466948  0.93614443  0.43865900  1
  Zn  Zn151  1  0.68604112  0.93475804  0.93747314  1
  Zn  Zn152  1  0.31224822  0.06230807  0.06306888  1
  Zn  Zn153  1  0.31032386  0.06172990  0.56420403  1
  Zn  Zn154  1  0.31248989  0.56258441  0.06163965  1
  Zn  Zn155  1  0.31444436  0.56366491  0.56250274  1
  Zn  Zn156  1  0.81312474  0.06284244  0.06339142  1
  Zn  Zn157  1  0.81091008  0.06247132  0.56455462  1
  Zn  Zn158  1  0.81425012  0.56236808  0.06197107  1
  Zn  Zn159  1  0.81414162  0.56138025  0.56191644  1
  Zn  Zn160  1  0.43748107  0.43670184  0.18585083  1
  Zn  Zn161  1  0.43698055  0.43782535  0.68503731  1
  Zn  Zn162  1  0.43762801  0.93749440  0.18713557  1
  Zn  Zn163  1  0.43777646  0.93550488  0.69030415  1
  Zn  Zn164  1  0.93779897  0.43960237  0.18718094  1
  Zn  Zn165  1  0.93917985  0.43773076  0.68614393  1
  Zn  Zn166  1  0.93773323  0.93800739  0.18757324  1
  Zn  Zn167  1  0.93482486  0.93788749  0.68781630  1
  Zn  Zn168  1  0.06277406  0.06116695  0.31218011  1
  Zn  Zn169  1  0.06131331  0.06240823  0.81215466  1
  Zn  Zn170  1  0.06381816  0.56273843  0.31156869  1
  Zn  Zn171  1  0.06314256  0.56329255  0.80976789  1
  Zn  Zn172  1  0.56101736  0.06250263  0.31196616  1
  Zn  Zn173  1  0.56054191  0.06188224  0.81402962  1
  Zn  Zn174  1  0.56474075  0.56340014  0.31184851  1
  Zn  Zn175  1  0.56557898  0.56451324  0.81361028  1
  Zn  Zn176  1  0.43938293  0.18930162  0.43575199  1
  Zn  Zn177  1  0.43833528  0.18536032  0.93888967  1
  Zn  Zn178  1  0.43569813  0.68688088  0.43795983  1
  Zn  Zn179  1  0.43701741  0.68646353  0.93816824  1
  Zn  Zn180  1  0.93649146  0.18960086  0.43807143  1
  Zn  Zn181  1  0.93713682  0.18796725  0.93747266  1
  Zn  Zn182  1  0.93881548  0.68826608  0.43829376  1
  Zn  Zn183  1  0.93667515  0.68661138  0.93865076  1
  Zn  Zn184  1  0.06251419  0.31329430  0.06076486  1
  Zn  Zn185  1  0.05926264  0.31260581  0.56171557  1
  Zn  Zn186  1  0.06477238  0.81229060  0.06224935  1
  Zn  Zn187  1  0.06177139  0.81199011  0.56206510  1
  Zn  Zn188  1  0.56186309  0.31295418  0.06332343  1
  Zn  Zn189  1  0.56343430  0.31118740  0.56248875  1
  Zn  Zn190  1  0.56286221  0.81381540  0.06280465  1
  Zn  Zn191  1  0.56453499  0.81357548  0.56155536  1
  O  O192  1  0.11865715  0.12455315  0.11851297  1
  O  O193  1  0.11813068  0.11905238  0.61901638  1
  O  O194  1  0.11836591  0.61979988  0.11898324  1
  O  O195  1  0.12101094  0.61816708  0.61940508  1
  O  O196  1  0.62641592  0.11846220  0.11842316  1
  O  O197  1  0.61730385  0.12046844  0.62039508  1
  O  O198  1  0.61763315  0.61669036  0.12355891  1
  O  O199  1  0.61875585  0.61735112  0.61847298  1
  O  O200  1  0.37776865  0.37750357  0.38513537  1
  O  O201  1  0.38050522  0.38004455  0.87948190  1
  O  O202  1  0.37561225  0.88307575  0.38334166  1
  O  O203  1  0.37391908  0.88151582  0.88278597  1
  O  O204  1  0.87987085  0.38092967  0.37999744  1
  O  O205  1  0.88444216  0.38377937  0.87622765  1
  O  O206  1  0.88054064  0.88135613  0.38091220  1
  O  O207  1  0.88022114  0.88121896  0.88134085  1
  O  O208  1  0.25508057  0.00642976  0.37085026  1
  O  O209  1  0.25605544  0.00725156  0.87469731  1
  O  O210  1  0.24995145  0.50745300  0.36712535  1
  O  O211  1  0.25349591  0.50440320  0.86611704  1
  O  O212  1  0.75547673  0.00834515  0.37089014  1
  O  O213  1  0.75440617  0.00600750  0.87165632  1
  O  O214  1  0.75680475  0.50705816  0.36836880  1
  O  O215  1  0.75878582  0.49723486  0.86851461  1
  O  O216  1  0.24348969  0.49905804  0.13057449  1
  O  O217  1  0.24241825  0.50079239  0.63178082  1
  O  O218  1  0.24911859  0.99393412  0.13280159  1
  O  O219  1  0.24055877  0.99360553  0.62676301  1
  O  O220  1  0.74554937  0.49481819  0.12862512  1
  O  O221  1  0.74571486  0.49796519  0.63470183  1
  O  O222  1  0.74603181  0.99568613  0.13051471  1
  O  O223  1  0.74138051  1.00146902  0.63286166  1
  O  O224  1  0.00586745  0.36956367  0.25411146  1
  O  O225  1  0.00227706  0.37464946  0.76190397  1
  O  O226  1  0.00756070  0.87674672  0.25711886  1
  O  O227  1  0.00376231  0.86964288  0.75622430  1
  O  O228  1  0.51240114  0.37637554  0.25015530  1
  O  O229  1  0.50438558  0.36985433  0.75478895  1
  O  O230  1  0.49881749  0.86257982  0.25126422  1
  O  O231  1  0.50447111  0.86993984  0.75428699  1
  O  O232  1  0.49130093  0.12782901  0.24736516  1
  O  O233  1  0.49301396  0.13162352  0.74607046  1
  O  O234  1  0.49443489  0.63055978  0.24445758  1
  O  O235  1  0.50152982  0.62239944  0.73675045  1
  O  O236  1  0.99497231  0.13041245  0.24583158  1
  O  O237  1  0.99215202  0.12409302  0.74395611  1
  O  O238  1  1.00202721  0.62638584  0.23749911  1
  O  O239  1  0.99870502  0.63222453  0.74278110  1
  O  O240  1  0.37010850  0.25383520  0.00621845  1
  O  O241  1  0.36939357  0.25516104  0.50532762  1
  O  O242  1  0.37366913  0.75635091  0.00696410  1
  O  O243  1  0.36808460  0.75692118  0.50232216  1
  O  O244  1  0.86857531  0.25089361  0.00687577  1
  O  O245  1  0.87286950  0.26280748  0.49908188  1
  O  O246  1  0.86561907  0.75613619  0.00019449  1
  O  O247  1  0.87037426  0.75524759  0.50596449  1
  O  O248  1  0.12885789  0.24493013  0.49367749  1
  O  O249  1  0.13024711  0.24432201  0.99428857  1
  O  O250  1  0.13142440  0.74536517  0.49461228  1
  O  O251  1  0.12662280  0.74346736  0.99171432  1
  O  O252  1  0.62774323  0.24168817  0.49747278  1
  O  O253  1  0.63046082  0.24518762  0.99535734  1
  O  O254  1  0.63238903  0.74204200  0.49881926  1
  O  O255  1  0.63498207  0.75001733  0.99410933  1
  O  O256  1  0.48719846  0.24807987  0.12593950  1
  O  O257  1  0.49343957  0.24431340  0.63110520  1
  O  O258  1  0.49467182  0.74438883  0.13254377  1
  O  O259  1  0.50213367  0.73644126  0.62329320  1
  O  O260  1  0.99534475  0.24503106  0.12994695  1
  O  O261  1  0.99708605  0.24172648  0.62729001  1
  O  O262  1  1.00044141  0.73835375  0.12352064  1
  O  O263  1  0.99476083  0.74534513  0.63021823  1
  O  O264  1  0.00538629  0.25497536  0.36793443  1
  O  O265  1  0.00508856  0.25944360  0.87582896  1
  O  O266  1  0.00797437  0.75795617  0.37515376  1
  O  O267  1  0.00400609  0.75527723  0.87026445  1
  O  O268  1  0.50469468  0.25465662  0.37036490  1
  O  O269  1  0.50481479  0.25519466  0.87013978  1
  O  O270  1  0.49979787  0.74837900  0.36329176  1
  O  O271  1  0.51195935  0.74871399  0.87667219  1
  O  O272  1  0.24282283  0.13036314  0.49504516  1
  O  O273  1  0.24410599  0.13014842  0.99441947  1
  O  O274  1  0.24582651  0.63043798  0.49469375  1
  O  O275  1  0.24301320  0.62520457  0.99238950  1
  O  O276  1  0.74432961  0.12326003  0.49042386  1
  O  O277  1  0.74516086  0.13050792  0.99488601  1
  O  O278  1  0.74568961  0.62863763  0.49479865  1
  O  O279  1  0.74994894  0.63677606  1.00005816  1
  O  O280  1  0.25661625  0.36821619  -0.00058261  1
  O  O281  1  0.25745163  0.36835408  0.50010013  1
  O  O282  1  0.25642196  0.87409616  0.00741316  1
  O  O283  1  0.25404095  0.87050711  0.50603981  1
  O  O284  1  0.75140467  0.36755441  0.00664703  1
  O  O285  1  0.76150661  0.37537742  0.49895809  1
  O  O286  1  0.75573926  0.86784090  0.00564457  1
  O  O287  1  0.75682107  0.86819713  0.50143431  1
  O  O288  1  0.13064199  0.49465538  0.24360250  1
  O  O289  1  0.13360232  0.50012042  0.73958632  1
  O  O290  1  0.13292681  0.99407354  0.24972938  1
  O  O291  1  0.12434869  0.99257505  0.74405058  1
  O  O292  1  0.63144409  0.49276494  0.24355833  1
  O  O293  1  0.63320130  0.49373369  0.74676598  1
  O  O294  1  0.63172994  1.00013744  0.24311726  1
  O  O295  1  0.63014781  1.00271174  0.74464309  1
  O  O296  1  0.36977815  0.00568145  0.25591166  1
  O  O297  1  0.37292370  0.00724451  0.75783910  1
  O  O298  1  0.36893679  0.50544832  0.24993189  1
  O  O299  1  0.36548208  0.50036923  0.75418004  1
  O  O300  1  0.87004581  0.00628367  0.25641963  1
  O  O301  1  0.86787197  0.00586853  0.75654963  1
  O  O302  1  0.86899432  0.50210548  0.25600882  1
  O  O303  1  0.86792317  0.49811137  0.75790408  1
  O  O304  1  0.11973785  0.36918413  0.36890539  1
  O  O305  1  0.11580308  0.37037156  0.87389046  1
  O  O306  1  0.12054732  0.87107212  0.37084051  1
  O  O307  1  0.11840215  0.87003480  0.87036037  1
  O  O308  1  0.62645631  0.37568776  0.36265169  1
  O  O309  1  0.61870676  0.36880040  0.86946619  1
  O  O310  1  0.61956250  0.87125259  0.37166780  1
  O  O311  1  0.62259880  0.86284216  0.87506846  1
  O  O312  1  0.37449544  0.13446575  0.13063126  1
  O  O313  1  0.37865582  0.13051147  0.63083690  1
  O  O314  1  0.38021748  0.63001334  0.13034418  1
  O  O315  1  0.38738550  0.62581439  0.62561527  1
  O  O316  1  0.88067838  0.13096646  0.13151533  1
  O  O317  1  0.88108540  0.12453915  0.63151268  1
  O  O318  1  0.88894361  0.62443910  0.12461714  1
  O  O319  1  0.88267107  0.63069127  0.62582098  1
  O  O320  1  0.25976703  0.25119218  0.11805121  1
  O  O321  1  0.25431791  0.25046918  0.61809709  1
  O  O322  1  0.25709799  0.75650933  0.12382336  1
  O  O323  1  0.24894561  0.75655399  0.61804681  1
  O  O324  1  0.75650484  0.25510964  0.12050416  1
  O  O325  1  0.75529132  0.25468519  0.62199090  1
  O  O326  1  0.74964634  0.75571159  0.11557688  1
  O  O327  1  0.75643833  0.74882946  0.61861902  1
  O  O328  1  0.24365621  0.24417885  0.38004557  1
  O  O329  1  0.24485961  0.24465151  0.88053464  1
  O  O330  1  0.24515955  0.74465426  0.38100652  1
  O  O331  1  0.24193576  0.74251791  0.87485578  1
  O  O332  1  0.74958972  0.23581894  0.37500972  1
  O  O333  1  0.74427313  0.24520831  0.88075372  1
  O  O334  1  0.75082663  0.74294817  0.38228539  1
  O  O335  1  0.74390070  0.74990086  0.88561803  1
  O  O336  1  0.00455433  0.12055113  0.00513615  1
  O  O337  1  0.00393864  0.11954692  0.50409448  1
  O  O338  1  0.00620056  0.61958686  0.00618299  1
  O  O339  1  0.00895510  0.62394416  0.50625271  1
  O  O340  1  0.50793506  0.11838363  0.00247933  1
  O  O341  1  0.50362805  0.12002662  0.50680998  1
  O  O342  1  0.50030485  0.61672255  0.00757610  1
  O  O343  1  0.50481815  0.61624506  0.50629255  1
  O  O344  1  0.49377855  0.38403544  0.50110065  1
  O  O345  1  0.49462859  0.37986695  0.99339461  1
  O  O346  1  0.49217519  0.88264432  0.50087916  1
  O  O347  1  0.49207657  0.88202751  0.99965239  1
  O  O348  1  0.99165185  0.37715882  0.49111995  1
  O  O349  1  0.99989516  0.38141846  0.98869090  1
  O  O350  1  0.99422362  0.88085000  0.49437896  1
  O  O351  1  0.99550289  0.88031694  0.99480447  1
  O  O352  1  0.49967788  0.50008864  0.38791282  1
  O  O353  1  0.49537676  0.49424192  0.87899308  1
  O  O354  1  0.49190317  1.00094970  0.38346255  1
  O  O355  1  0.49222597  0.99986755  0.88366505  1
  O  O356  1  0.99565616  0.49378793  0.37495884  1
  O  O357  1  0.99447124  0.49346288  0.87749592  1
  O  O358  1  0.99413075  0.99580078  0.38116001  1
  O  O359  1  0.99343837  0.99459883  0.88090154  1
  O  O360  1  0.00122468  0.00765756  0.11844443  1
  O  O361  1  0.00394623  0.00506179  0.61913486  1
  O  O362  1  0.00619853  0.50714849  0.11885163  1
  O  O363  1  0.01130115  0.50647993  0.62381795  1
  O  O364  1  0.50683402  0.00152177  0.11880731  1
  O  O365  1  0.50348151  0.00731909  0.62078622  1
  O  O366  1  0.50465502  0.50412325  0.11881224  1
  O  O367  1  0.50542130  0.50616282  0.61576383  1
  O  O368  1  0.24276084  0.38154519  0.24822080  1
  O  O369  1  0.24731978  0.38748875  0.74773141  1
  O  O370  1  0.24624109  0.88071331  0.24565426  1
  O  O371  1  0.24091735  0.87556386  0.74372778  1
  O  O372  1  0.74346133  0.38116560  0.24416162  1
  O  O373  1  0.74433057  0.38458271  0.75077571  1
  O  O374  1  0.74997932  0.88227195  0.24424584  1
  O  O375  1  0.74612360  0.88552876  0.74840249  1
  O  O376  1  0.25491579  0.12002286  0.25655298  1
  O  O377  1  0.25587342  0.12344339  0.75752976  1
  O  O378  1  0.25489020  0.62005968  0.25440460  1
  O  O379  1  0.24944888  0.61350801  0.75490176  1
  O  O380  1  0.75586542  0.11942143  0.25787295  1
  O  O381  1  0.75441474  0.11986657  0.75759350  1
  O  O382  1  0.75145883  0.61876500  0.25520574  1
  O  O383  1  0.75204448  0.60949901  0.75360083  1
  O  O384  1  0.36777891  0.12061861  0.37080326  1
  O  O385  1  0.36902110  0.12038535  0.87126154  1
  O  O386  1  0.36763492  0.62207584  0.36841835  1
  O  O387  1  0.36848493  0.61648403  0.87402909  1
  O  O388  1  0.86809184  0.11968584  0.37090441  1
  O  O389  1  0.86907234  0.11939100  0.87107667  1
  O  O390  1  0.87045554  0.61847338  0.37509431  1
  O  O391  1  0.87495018  0.61082216  0.87289546  1
  O  O392  1  0.12554286  0.38138667  0.13034782  1
  O  O393  1  0.12614130  0.38648758  0.62369945  1
  O  O394  1  0.13193318  0.87668710  0.13162163  1
  O  O395  1  0.12788269  0.87983298  0.63002318  1
  O  O396  1  0.63073136  0.38002762  0.13203258  1
  O  O397  1  0.62560067  0.38133250  0.63220464  1
  O  O398  1  0.63294967  0.88263209  0.12691272  1
  O  O399  1  0.62714571  0.88505856  0.62673692  1
  O  O400  1  0.12026249  0.25473180  0.25475479  1
  O  O401  1  0.12235114  0.25237974  0.75827533  1
  O  O402  1  0.12461105  0.75797760  0.25770971  1
  O  O403  1  0.11735394  0.75535504  0.75538790  1
  O  O404  1  0.62585789  0.26240920  0.24922046  1
  O  O405  1  0.61858527  0.25421484  0.75619394  1
  O  O406  1  0.61244439  0.75010579  0.25040006  1
  O  O407  1  0.62692001  0.74864416  0.76249859  1
  O  O408  1  0.37305501  0.24575810  0.24052622  1
  O  O409  1  0.37920684  0.24535574  0.74529140  1
  O  O410  1  0.38186575  0.74373920  0.24466855  1
  O  O411  1  0.37947644  0.74427139  0.74638916  1
  O  O412  1  0.88094617  0.24476504  0.24500901  1
  O  O413  1  0.87789845  0.24146904  0.74991148  1
  O  O414  1  0.88085720  0.74669960  0.24467494  1
  O  O415  1  0.87976851  0.74883819  0.74510999  1
  O  O416  1  0.38353202  0.49253272  0.49994347  1
  O  O417  1  0.38013200  0.49352650  0.99382806  1
  O  O418  1  0.37881454  0.99635573  0.49608500  1
  O  O419  1  0.38001475  0.99561827  0.99602738  1
  O  O420  1  0.87797608  0.49123514  0.49259237  1
  O  O421  1  0.88120691  0.49781695  0.98960803  1
  O  O422  1  0.87952344  0.99504492  0.49517459  1
  O  O423  1  0.88030218  0.99567445  0.99426610  1
  O  O424  1  0.11766919  0.00706772  0.00070229  1
  O  O425  1  0.11784198  0.00576363  0.50501535  1
  O  O426  1  0.11996059  0.50583751  0.00390687  1
  O  O427  1  0.12663075  0.50642576  0.50847045  1
  O  O428  1  0.62109540  0.00516971  0.00496143  1
  O  O429  1  0.61826244  0.00671621  0.50694337  1
  O  O430  1  0.61825761  0.49895056  0.00587243  1
  O  O431  1  0.61800471  0.50393155  0.50484400  1
  O  O432  1  0.37331666  0.36531207  0.11800256  1
  O  O433  1  0.37260960  0.36812616  0.61616940  1
  O  O434  1  0.36931837  0.86991643  0.12016278  1
  O  O435  1  0.36649804  0.87547551  0.61877332  1
  O  O436  1  0.86978055  0.36927706  0.12378364  1
  O  O437  1  0.87617068  0.37632164  0.61257930  1
  O  O438  1  0.86891626  0.87501960  0.11772653  1
  O  O439  1  0.87317215  0.86825299  0.61816784  1
  O  O440  1  0.12914252  0.13065825  0.38034333  1
  O  O441  1  0.12898706  0.13010283  0.88080748  1
  O  O442  1  0.13104120  0.63087660  0.38006699  1
  O  O443  1  0.12887757  0.62967896  0.87921595  1
  O  O444  1  0.63486656  0.12289768  0.38060760  1
  O  O445  1  0.63038767  0.13100806  0.88127561  1
  O  O446  1  0.63363930  0.62560882  0.38155963  1
  O  O447  1  0.62972275  0.63390824  0.88028229  1
