# generated using pymatgen
data_V3Zn3O8
_symmetry_space_group_name_H-M   'P 1'
_cell_length_a   17.08548426
_cell_length_b   17.08601233
_cell_length_c   17.08617054
_cell_angle_alpha   90.00665143
_cell_angle_beta   89.99893869
_cell_angle_gamma   89.99172451
_symmetry_Int_Tables_number   1
_chemical_formula_structural   V3Zn3O8
_chemical_formula_sum   'V96 Zn96 O256'
_cell_volume   4987.84256757
_cell_formula_units_Z   32
loop_
 _symmetry_equiv_pos_site_id
 _symmetry_equiv_pos_as_xyz
  1  'x, y, z'
loop_
 _atom_site_type_symbol
 _atom_site_label
 _atom_site_symmetry_multiplicity
 _atom_site_fract_x
 _atom_site_fract_y
 _atom_site_fract_z
 _atom_site_occupancy
  V  V0  1  0.24969349  -0.00055147  0.24986590  1
  V  V1  1  0.00112887  -0.00012317  0.50208038  1
  V  V2  1  0.37508096  0.12598075  0.74993321  1
  V  V3  1  0.25078461  0.75023159  0.00021601  1
  V  V4  1  0.25170973  0.62560418  0.87441359  1
  V  V5  1  0.12353233  0.25107431  0.87430166  1
  V  V6  1  0.62526895  0.49948105  0.12453093  1
  V  V7  1  0.37554677  0.00032310  0.87624762  1
  V  V8  1  0.62552329  0.25014321  0.87546206  1
  V  V9  1  0.25014453  0.00028306  0.75050142  1
  V  V10  1  0.74996690  0.37431519  0.12510597  1
  V  V11  1  0.62524764  0.87510336  0.25052915  1
  V  V12  1  0.62582088  0.75052297  0.37704621  1
  V  V13  1  0.12390989  0.62435383  0.50050460  1
  V  V14  1  0.37583916  -0.00021558  0.37452381  1
  V  V15  1  0.37508769  0.87520311  0.49909708  1
  V  V16  1  0.37499040  0.37515721  -0.00175576  1
  V  V17  1  0.75019746  0.49933809  0.24977180  1
  V  V18  1  0.12402412  0.12571239  0.00134152  1
  V  V19  1  0.37471237  0.12585647  0.24922656  1
  V  V20  1  0.50089604  0.62630834  0.12490272  1
  V  V21  1  0.62645591  0.62425209  -0.00090577  1
  V  V22  1  0.37511723  0.62572583  0.74888969  1
  V  V23  1  0.87546335  0.62532481  0.24974094  1
  V  V24  1  0.87463450  0.62419700  0.74947078  1
  V  V25  1  0.62631560  0.74986598  0.87390905  1
  V  V26  1  -0.00001472  0.87511076  0.37722488  1
  V  V27  1  0.87612438  0.49750194  0.37515162  1
  V  V28  1  0.25021923  0.87497052  0.12565614  1
  V  V29  1  0.75061758  0.87542371  0.62640862  1
  V  V30  1  0.75108112  0.62387491  0.87357389  1
  V  V31  1  0.87596057  0.37471936  -0.00026782  1
  V  V32  1  0.87620340  0.87595981  0.50158082  1
  V  V33  1  0.62518840  0.00154716  0.62693958  1
  V  V34  1  0.87495212  0.37508184  0.49863643  1
  V  V35  1  0.12541808  0.12474194  0.50096225  1
  V  V36  1  0.25186545  0.87493807  0.62479951  1
  V  V37  1  0.37388798  0.50094447  0.37316820  1
  V  V38  1  0.87464370  0.12392271  0.25173382  1
  V  V39  1  0.87481041  0.00016726  0.87634015  1
  V  V40  1  0.24966401  0.12577781  0.87519919  1
  V  V41  1  0.12534189  0.87505547  0.25048647  1
  V  V42  1  0.00040053  -0.00057668  0.00168825  1
  V  V43  1  0.62573690  0.87497180  0.75175719  1
  V  V44  1  0.00067493  0.62437086  0.62396416  1
  V  V45  1  0.62327170  0.37412538  0.24936463  1
  V  V46  1  0.24977487  0.37661350  0.12411568  1
  V  V47  1  0.75140426  0.74876009  0.00093596  1
  V  V48  1  0.12384467  0.37565568  0.74926177  1
  V  V49  1  0.12536340  0.62464704  -0.00022318  1
  V  V50  1  0.37534472  0.24985388  0.62504419  1
  V  V51  1  0.75152927  0.87238725  0.12581598  1
  V  V52  1  0.12568625  0.87506753  0.75098816  1
  V  V53  1  0.37461226  0.24987862  0.12434875  1
  V  V54  1  0.24905516  0.37622071  0.62446421  1
  V  V55  1  0.74850837  0.12372454  0.37532130  1
  V  V56  1  0.50043700  0.74913263  0.24911777  1
  V  V57  1  0.50099229  0.50058356  -0.00141028  1
  V  V58  1  -0.00072072  0.12414489  0.12627407  1
  V  V59  1  0.74985691  0.25002736  0.00052863  1
  V  V60  1  0.62498257  0.12350432  0.00002468  1
  V  V61  1  0.37531893  0.50096536  0.87316631  1
  V  V62  1  0.74982068  0.50060631  0.74843124  1
  V  V63  1  0.62462498  0.37426415  0.74942560  1
  V  V64  1  0.50001580  0.50036834  0.49902830  1
  V  V65  1  0.24971973  0.50068970  0.24857866  1
  V  V66  1  0.00060538  0.75019116  0.75125802  1
  V  V67  1  0.75148310  0.00029648  0.75238442  1
  V  V68  1  0.12324448  0.37354901  0.25094189  1
  V  V69  1  0.12562146  0.00081909  0.62545137  1
  V  V70  1  0.87647764  0.24815773  0.62718607  1
  V  V71  1  0.24884050  0.24937260  0.49927523  1
  V  V72  1  0.74857155  0.24932135  0.50003578  1
  V  V73  1  0.62417750  0.12514584  0.50110245  1
  V  V74  1  0.74899894  0.37514676  0.62379537  1
  V  V75  1  0.50002950  0.12516840  0.62553515  1
  V  V76  1  0.49840103  0.25025172  0.24866915  1
  V  V77  1  0.00026050  0.49894451  -0.00089043  1
  V  V78  1  0.24962926  0.62475938  0.37323964  1
  V  V79  1  0.49961749  0.75008440  0.74860303  1
  V  V80  1  0.50072648  0.37489524  0.87406859  1
  V  V81  1  -0.00091548  0.74937322  0.25042410  1
  V  V82  1  0.62323897  0.49999379  0.62199842  1
  V  V83  1  0.49852074  0.37479963  0.37279741  1
  V  V84  1  0.74858349  0.75050376  0.50032282  1
  V  V85  1  0.49994718  0.87569503  0.37509557  1
  V  V86  1  0.87466855  0.75009412  0.62546408  1
  V  V87  1  0.25099494  0.75051852  0.49927204  1
  V  V88  1  0.37515034  0.87592490  -0.00009432  1
  V  V89  1  0.87504422  0.24873583  0.12559210  1
  V  V90  1  0.62437615  -0.00005741  0.12520319  1
  V  V91  1  0.24961079  0.25087660  -0.00103128  1
  V  V92  1  0.12527482  0.74930559  0.37474921  1
  V  V93  1  0.37330888  0.37541119  0.49909744  1
  V  V94  1  0.24954025  0.12539959  0.37555204  1
  V  V95  1  0.00143891  0.87487220  0.87649211  1
  Zn  Zn96  1  0.50004301  -0.00140064  -0.00140515  1
  Zn  Zn97  1  -0.00211876  0.24829892  0.75197017  1
  Zn  Zn98  1  0.00117514  0.24930295  0.25298508  1
  Zn  Zn99  1  0.49875182  0.62491622  0.62164063  1
  Zn  Zn100  1  0.12431583  0.50035974  0.62400380  1
  Zn  Zn101  1  0.74814098  0.62517565  0.37685033  1
  Zn  Zn102  1  0.12417640  0.00030167  0.12618151  1
  Zn  Zn103  1  0.87832453  0.87166238  0.00305845  1
  Zn  Zn104  1  0.50057461  0.25012377  0.75028966  1
  Zn  Zn105  1  0.12503068  0.50025691  0.12523097  1
  Zn  Zn106  1  0.49878783  0.12437492  0.12488675  1
  Zn  Zn107  1  0.00109563  0.49826150  0.50083996  1
  Zn  Zn108  1  0.87525099  -0.00007838  0.37764177  1
  Zn  Zn109  1  0.87633658  0.12597404  0.75113881  1
  Zn  Zn110  1  0.12539566  0.75104749  0.87520084  1
  Zn  Zn111  1  0.00013839  0.62685541  0.12334737  1
  Zn  Zn112  1  -0.00220744  0.37348108  0.87340828  1
  Zn  Zn113  1  0.50000158  0.00045597  0.50021486  1
  Zn  Zn114  1  0.00061552  0.37153833  0.37576362  1
  Zn  Zn115  1  0.74989847  -0.00132641  0.25253019  1
  Zn  Zn116  1  0.24955755  0.50234329  0.74706708  1
  Zn  Zn117  1  0.12193576  0.24938440  0.37614207  1
  Zn  Zn118  1  0.50081410  0.87661564  0.87664775  1
  Zn  Zn119  1  0.87674444  0.74906009  0.12489969  1
  Zn  Zn120  1  0.62193284  0.24918974  0.37423140  1
  Zn  Zn121  1  0.87521511  0.49783335  0.87352573  1
  Zn  Zn122  1  0.62396143  0.62521643  0.49942950  1
  Zn  Zn123  1  0.00039068  0.12513444  0.62752430  1
  Zn  Zn124  1  0.37593572  0.74907641  0.62303199  1
  Zn  Zn125  1  0.75140880  0.12518181  0.87455278  1
  Zn  Zn126  1  0.37626767  0.74948308  0.12494265  1
  Zn  Zn127  1  0.37423143  0.62648756  0.24695008  1
  Zn  Zn128  1  0.18765827  0.18860045  0.18701465  1
  Zn  Zn129  1  0.18747167  0.18923607  0.68693535  1
  Zn  Zn130  1  0.18730851  0.68844812  0.18512525  1
  Zn  Zn131  1  0.18737329  0.68903242  0.68644784  1
  Zn  Zn132  1  0.68739480  0.18796479  0.18806825  1
  Zn  Zn133  1  0.68952610  0.18652039  0.68994697  1
  Zn  Zn134  1  0.68700265  0.68680782  0.18965914  1
  Zn  Zn135  1  0.68560322  0.68553296  0.68490888  1
  Zn  Zn136  1  0.30989147  0.31243032  0.31211517  1
  Zn  Zn137  1  0.31090638  0.31283982  0.81076731  1
  Zn  Zn138  1  0.31444240  0.81126251  0.31118975  1
  Zn  Zn139  1  0.31319483  0.81237938  0.81442922  1
  Zn  Zn140  1  0.81068898  0.31017945  0.31249285  1
  Zn  Zn141  1  0.81083905  0.31384428  0.81380647  1
  Zn  Zn142  1  0.81258982  0.81253858  0.31502533  1
  Zn  Zn143  1  0.81420985  0.81298538  0.81406123  1
  Zn  Zn144  1  0.18670471  0.43928316  0.43642239  1
  Zn  Zn145  1  0.18783446  0.43900039  0.93413938  1
  Zn  Zn146  1  0.18790771  0.93806985  0.43714184  1
  Zn  Zn147  1  0.18726798  0.93878599  0.93849373  1
  Zn  Zn148  1  0.68692208  0.43674581  0.43558273  1
  Zn  Zn149  1  0.68909836  0.43709120  0.93599269  1
  Zn  Zn150  1  0.68715495  0.93844780  0.44015804  1
  Zn  Zn151  1  0.68972985  0.93501703  0.93894806  1
  Zn  Zn152  1  0.31071196  0.06196713  0.06326144  1
  Zn  Zn153  1  0.31311772  0.06187837  0.56218470  1
  Zn  Zn154  1  0.31416132  0.56292366  0.06254788  1
  Zn  Zn155  1  0.31243339  0.56291449  0.56317977  1
  Zn  Zn156  1  0.81182026  0.06050979  0.06267141  1
  Zn  Zn157  1  0.81244256  0.06267995  0.56350175  1
  Zn  Zn158  1  0.81406820  0.56116826  0.06287568  1
  Zn  Zn159  1  0.81115443  0.56391079  0.56112282  1
  Zn  Zn160  1  0.43635469  0.43907259  0.18632599  1
  Zn  Zn161  1  0.43753026  0.43775597  0.68701684  1
  Zn  Zn162  1  0.43763789  0.93663568  0.18678997  1
  Zn  Zn163  1  0.43812811  0.93761250  0.68788365  1
  Zn  Zn164  1  0.93980355  0.43844788  0.18503147  1
  Zn  Zn165  1  0.93850791  0.43764797  0.68610316  1
  Zn  Zn166  1  0.93741956  0.93876462  0.18997104  1
  Zn  Zn167  1  0.93903905  0.93782938  0.68921053  1
  Zn  Zn168  1  0.06254825  0.06117313  0.31482460  1
  Zn  Zn169  1  0.05986117  0.06477073  0.81146317  1
  Zn  Zn170  1  0.06204970  0.56087173  0.31214299  1
  Zn  Zn171  1  0.06239418  0.56121170  0.81305633  1
  Zn  Zn172  1  0.56148572  0.06248347  0.31137088  1
  Zn  Zn173  1  0.56092954  0.06263113  0.81320178  1
  Zn  Zn174  1  0.56262316  0.56427463  0.31337111  1
  Zn  Zn175  1  0.56288697  0.56305922  0.81024011  1
  Zn  Zn176  1  0.43714555  0.18744128  0.43752209  1
  Zn  Zn177  1  0.43952833  0.18731684  0.93736078  1
  Zn  Zn178  1  0.43768753  0.68687844  0.43548597  1
  Zn  Zn179  1  0.43794689  0.68923984  0.93650008  1
  Zn  Zn180  1  0.93972349  0.18832707  0.43878471  1
  Zn  Zn181  1  0.93900800  0.18712129  0.93791604  1
  Zn  Zn182  1  0.93660774  0.68712611  0.43737413  1
  Zn  Zn183  1  0.93665604  0.68699012  0.93609110  1
  Zn  Zn184  1  0.06136312  0.31174029  0.06498049  1
  Zn  Zn185  1  0.06091897  0.31305251  0.56171820  1
  Zn  Zn186  1  0.06362802  0.81143793  0.06482055  1
  Zn  Zn187  1  0.06412093  0.81173426  0.56424328  1
  Zn  Zn188  1  0.56134236  0.31202350  0.06248096  1
  Zn  Zn189  1  0.56088551  0.31209207  0.56111431  1
  Zn  Zn190  1  0.56235959  0.81207995  0.06079466  1
  Zn  Zn191  1  0.56250582  0.81508078  0.56286437  1
  O  O192  1  0.11829751  0.12437600  0.11944389  1
  O  O193  1  0.12646440  0.11789465  0.61860891  1
  O  O194  1  0.12450407  0.62253706  0.11103820  1
  O  O195  1  0.11853354  0.62576375  0.61837622  1
  O  O196  1  0.62602133  0.11627758  0.11790196  1
  O  O197  1  0.62048741  0.12090092  0.62124049  1
  O  O198  1  0.62169239  0.61837184  0.11875294  1
  O  O199  1  0.62095542  0.61523947  0.62149482  1
  O  O200  1  0.37822374  0.38103234  0.37935973  1
  O  O201  1  0.38016977  0.37974785  0.87942097  1
  O  O202  1  0.38020777  0.88072943  0.37911779  1
  O  O203  1  0.37433132  0.88296759  0.88288413  1
  O  O204  1  0.87292440  0.38300948  0.37898359  1
  O  O205  1  0.87641618  0.37719549  0.88405017  1
  O  O206  1  0.88178122  0.87697160  0.38297469  1
  O  O207  1  0.88179655  0.88449017  0.87768297  1
  O  O208  1  0.25630936  0.00521005  0.36906189  1
  O  O209  1  0.25508433  0.00686354  0.86958531  1
  O  O210  1  0.25524206  0.50578569  0.36860839  1
  O  O211  1  0.25879444  0.50797542  0.87301455  1
  O  O212  1  0.75156364  0.01191973  0.37563839  1
  O  O213  1  0.76030072  -0.00198212  0.87171303  1
  O  O214  1  0.75996736  0.49998987  0.36777839  1
  O  O215  1  0.75015857  0.50656555  0.86677412  1
  O  O216  1  0.25004290  0.49327245  0.12988860  1
  O  O217  1  0.24732687  0.49119466  0.62611309  1
  O  O218  1  0.24782929  0.99347959  0.13292806  1
  O  O219  1  0.24540206  0.99449450  0.63118113  1
  O  O220  1  0.74432143  0.49359264  0.12995677  1
  O  O221  1  0.74427539  0.49403447  0.62864036  1
  O  O222  1  0.74015044  0.99010505  0.12553785  1
  O  O223  1  0.74518572  0.99443649  0.63195045  1
  O  O224  1  0.01130791  0.37394611  0.24863036  1
  O  O225  1  0.01103775  0.37272547  0.75089635  1
  O  O226  1  0.00459086  0.87020540  0.25725691  1
  O  O227  1  0.00635197  0.86985132  0.75578065  1
  O  O228  1  0.50355394  0.37044534  0.25350164  1
  O  O229  1  0.50678448  0.37347964  0.75679061  1
  O  O230  1  0.50640815  0.86967635  0.25503113  1
  O  O231  1  0.50648351  0.86610088  0.75206153  1
  O  O232  1  0.49250065  0.13174991  0.24789909  1
  O  O233  1  0.49314400  0.12753472  0.74387561  1
  O  O234  1  0.50066377  0.63115230  0.24247682  1
  O  O235  1  0.49441897  0.63489623  0.74916288  1
  O  O236  1  0.98992720  0.12389505  0.24633056  1
  O  O237  1  0.99505826  0.12987097  0.74478886  1
  O  O238  1  0.99111740  0.62953161  0.24930055  1
  O  O239  1  0.99489759  0.63037969  0.74539957  1
  O  O240  1  0.36949653  0.25559870  0.00382596  1
  O  O241  1  0.36884219  0.25576150  0.50523393  1
  O  O242  1  0.36920390  0.75801793  0.00078551  1
  O  O243  1  0.36860440  0.75726848  0.49937974  1
  O  O244  1  0.86908859  0.25386494  0.00619786  1
  O  O245  1  0.86776109  0.25482792  0.50744804  1
  O  O246  1  0.86736804  0.75059440  0.00438609  1
  O  O247  1  0.86999527  0.75654458  0.50636407  1
  O  O248  1  0.13233312  0.24321971  0.50043796  1
  O  O249  1  0.13081070  0.24568426  0.99512977  1
  O  O250  1  0.13104038  0.74535831  0.49366917  1
  O  O251  1  0.13065672  0.74013303  0.99823061  1
  O  O252  1  0.63123376  0.24342651  0.49820430  1
  O  O253  1  0.62989360  0.24249257  0.99725736  1
  O  O254  1  0.63113544  0.75192629  0.49461499  1
  O  O255  1  0.63139770  0.74326858  0.99364467  1
  O  O256  1  0.49197451  0.24952088  0.13059392  1
  O  O257  1  0.49266856  0.24367349  0.62615624  1
  O  O258  1  0.50255949  0.74332359  0.13127009  1
  O  O259  1  0.49992036  0.75011413  0.63760875  1
  O  O260  1  0.99171577  0.24171803  0.12759689  1
  O  O261  1  0.98590362  0.25016743  0.62481457  1
  O  O262  1  0.99664149  0.74768037  0.13474688  1
  O  O263  1  0.99396143  0.74530831  0.63136072  1
  O  O264  1  0.00353398  0.25348441  0.37067342  1
  O  O265  1  0.00833731  0.25269068  0.87420080  1
  O  O266  1  0.00589218  0.75561525  0.37052090  1
  O  O267  1  0.00055046  0.75704969  0.86830436  1
  O  O268  1  0.49871855  0.25705714  0.36707595  1
  O  O269  1  0.50762652  0.25750548  0.87488665  1
  O  O270  1  0.50599054  0.75684599  0.36949632  1
  O  O271  1  0.50743684  0.75066703  0.86395861  1
  O  O272  1  0.24551724  0.12944129  0.49496396  1
  O  O273  1  0.24434250  0.13152046  0.99479080  1
  O  O274  1  0.24466672  0.63112464  0.49328978  1
  O  O275  1  0.24386676  0.62918877  0.99478982  1
  O  O276  1  0.74465415  0.12926458  0.49308219  1
  O  O277  1  0.73953731  0.13042789  1.00028209  1
  O  O278  1  0.74761385  0.63537695  0.49785012  1
  O  O279  1  0.74522073  0.62832566  0.99483215  1
  O  O280  1  0.25560817  0.37034904  0.00330345  1
  O  O281  1  0.25463833  0.36954263  0.50397323  1
  O  O282  1  0.25468585  0.87042258  0.00523279  1
  O  O283  1  0.25512720  0.86998441  0.50417259  1
  O  O284  1  0.75460059  0.37011692  0.00664814  1
  O  O285  1  0.75465199  0.36878883  0.50425396  1
  O  O286  1  0.75089391  0.86725365  0.01103888  1
  O  O287  1  0.75613248  0.87094223  0.50781279  1
  O  O288  1  0.13072864  0.49157467  0.24751356  1
  O  O289  1  0.12751167  0.48889993  0.74883383  1
  O  O290  1  0.13188318  0.99270166  0.25034431  1
  O  O291  1  0.13131579  0.99517702  0.74570421  1
  O  O292  1  0.63000298  0.49420327  0.24403053  1
  O  O293  1  0.63002777  0.49409592  0.74291473  1
  O  O294  1  0.62730049  0.99471698  0.24077977  1
  O  O295  1  0.63127922  0.99465037  0.74694638  1
  O  O296  1  0.36975666  0.00543814  0.25470980  1
  O  O297  1  0.36879359  0.00585777  0.75548856  1
  O  O298  1  0.36774984  0.50108133  0.25568986  1
  O  O299  1  0.37509397  0.50769201  0.75628545  1
  O  O300  1  0.87125097  0.01232471  0.25307031  1
  O  O301  1  0.87022890  -0.00139764  0.76072196  1
  O  O302  1  0.87052428  0.50539086  0.25565871  1
  O  O303  1  0.86758889  0.50618133  0.74980995  1
  O  O304  1  0.12500276  0.37431820  0.36288033  1
  O  O305  1  0.12597847  0.36900270  0.86524222  1
  O  O306  1  0.12035596  0.86862682  0.37036307  1
  O  O307  1  0.11929187  0.87504299  0.86846514  1
  O  O308  1  0.61734022  0.37298200  0.36670556  1
  O  O309  1  0.62040609  0.37016343  0.86999778  1
  O  O310  1  0.62024931  0.87177537  0.37003294  1
  O  O311  1  0.62555484  0.86760842  0.86925518  1
  O  O312  1  0.37529904  0.13173144  0.13075066  1
  O  O313  1  0.37943719  0.12965044  0.63025544  1
  O  O314  1  0.38533085  0.62749619  0.12541483  1
  O  O315  1  0.37759225  0.62862452  0.63293975  1
  O  O316  1  0.87738267  0.12828494  0.13332234  1
  O  O317  1  0.87396585  0.13731956  0.62566008  1
  O  O318  1  0.87549811  0.62518256  0.13908703  1
  O  O319  1  0.87946758  0.63156719  0.63024621  1
  O  O320  1  0.25599813  0.25624478  0.11818209  1
  O  O321  1  0.25655482  0.25578895  0.61846534  1
  O  O322  1  0.25206677  0.75715118  0.11813014  1
  O  O323  1  0.25148173  0.75793501  0.61724178  1
  O  O324  1  0.75485621  0.25541972  0.11994554  1
  O  O325  1  0.75639702  0.25561506  0.61969256  1
  O  O326  1  0.74851310  0.75881685  0.12062335  1
  O  O327  1  0.75506279  0.75642082  0.62133763  1
  O  O328  1  0.24943973  0.24254505  0.38221112  1
  O  O329  1  0.24462308  0.24481078  0.88058546  1
  O  O330  1  0.24417782  0.74500264  0.37908921  1
  O  O331  1  0.24835871  0.74324630  0.88231224  1
  O  O332  1  0.74752107  0.23872343  0.38065061  1
  O  O333  1  0.74306241  0.24878794  0.88337563  1
  O  O334  1  0.74304857  0.75168010  0.38303687  1
  O  O335  1  0.74553713  0.74385615  0.87975503  1
  O  O336  1  0.00477752  0.11925331  0.00677274  1
  O  O337  1  0.00724468  0.11753854  0.50326820  1
  O  O338  1  0.00831335  0.61804429  -0.00098833  1
  O  O339  1  0.00586337  0.62598576  0.50625761  1
  O  O340  1  0.51297206  0.12319720  0.00349250  1
  O  O341  1  0.50593155  0.12360576  0.50649646  1
  O  O342  1  0.50764753  0.61992452  0.00319298  1
  O  O343  1  0.50123806  0.61599076  0.50065609  1
  O  O344  1  0.49242557  0.37933364  0.49242072  1
  O  O345  1  0.49519887  0.38114819  0.99405365  1
  O  O346  1  0.49349574  0.87751631  0.49301024  1
  O  O347  1  0.49159844  0.87654926  0.99719905  1
  O  O348  1  0.99042798  0.37834266  0.49697490  1
  O  O349  1  0.99508792  0.38319888  1.00050188  1
  O  O350  1  0.99614003  0.87911227  0.49647055  1
  O  O351  1  1.00040971  0.88083833  0.99531772  1
  O  O352  1  0.49390140  0.49364131  0.37818428  1
  O  O353  1  0.49603042  0.49508968  0.87996577  1
  O  O354  1  0.49357027  0.99341478  0.37521895  1
  O  O355  1  0.49109836  0.99780974  0.87727225  1
  O  O356  1  0.98531391  0.49709223  0.37493029  1
  O  O357  1  0.99790666  0.49729550  0.88741815  1
  O  O358  1  0.99918126  0.99227355  0.38413578  1
  O  O359  1  0.99292326  0.99492263  0.88066912  1
  O  O360  1  0.00044770  0.00634769  0.11942939  1
  O  O361  1  0.00819349  -0.00090520  0.61936608  1
  O  O362  1  0.00295572  0.50361600  0.11119939  1
  O  O363  1  0.00138281  0.51010057  0.62185992  1
  O  O364  1  0.51401723  0.00036779  0.12332688  1
  O  O365  1  0.50738425  0.00695011  0.62489682  1
  O  O366  1  0.50646840  0.50462288  0.11805143  1
  O  O367  1  0.50574295  0.49833519  0.61639682  1
  O  O368  1  0.24299632  0.38055325  0.24407178  1
  O  O369  1  0.24090482  0.37607154  0.74321205  1
  O  O370  1  0.24504921  0.87959508  0.24608611  1
  O  O371  1  0.24593974  0.88066574  0.74552692  1
  O  O372  1  0.74405274  0.37908048  0.24368793  1
  O  O373  1  0.74363237  0.38127053  0.74353261  1
  O  O374  1  0.74412187  0.87562083  0.24216285  1
  O  O375  1  0.74519412  0.87971089  0.74528698  1
  O  O376  1  0.25539024  0.12002243  0.25508376  1
  O  O377  1  0.25515659  0.11979012  0.75577176  1
  O  O378  1  0.24899876  0.61904646  0.25532817  1
  O  O379  1  0.25734483  0.62628972  0.75614406  1
  O  O380  1  0.75655650  0.12452887  0.25858573  1
  O  O381  1  0.75361163  0.11547140  0.75492602  1
  O  O382  1  0.75883964  0.61815643  0.25165769  1
  O  O383  1  0.75480647  0.62015191  0.75355866  1
  O  O384  1  0.36937867  0.11964213  0.36920763  1
  O  O385  1  0.36905879  0.12133606  0.87051950  1
  O  O386  1  0.36715428  0.61821097  0.37184622  1
  O  O387  1  0.37115469  0.62013533  0.86919824  1
  O  O388  1  0.86585295  0.12439835  0.36884842  1
  O  O389  1  0.87381889  0.11155574  0.87632620  1
  O  O390  1  0.87302109  0.61631947  0.36552983  1
  O  O391  1  0.86790442  0.62311641  0.86677148  1
  O  O392  1  0.13217926  0.37606215  0.13307422  1
  O  O393  1  0.13063426  0.37418978  0.63330742  1
  O  O394  1  0.13189242  0.87661663  0.13328964  1
  O  O395  1  0.13208239  0.88085711  0.63103537  1
  O  O396  1  0.62974105  0.38036419  0.12930887  1
  O  O397  1  0.62999687  0.37923686  0.62930213  1
  O  O398  1  0.63289194  0.88147774  0.12933776  1
  O  O399  1  0.63147408  0.88154427  0.63193351  1
  O  O400  1  0.12589036  0.26106849  0.25172814  1
  O  O401  1  0.12542681  0.25949514  0.75531362  1
  O  O402  1  0.11941381  0.75501202  0.25610212  1
  O  O403  1  0.11841530  0.75733564  0.75194158  1
  O  O404  1  0.61723345  0.25657609  0.24955037  1
  O  O405  1  0.62511290  0.25676260  0.75705755  1
  O  O406  1  0.62047055  0.75648645  0.25646748  1
  O  O407  1  0.61888370  0.75433215  0.75426460  1
  O  O408  1  0.37822188  0.24568173  0.24357274  1
  O  O409  1  0.37553772  0.24353001  0.74329931  1
  O  O410  1  0.38482572  0.74797537  0.24680694  1
  O  O411  1  0.38492428  0.74532900  0.75049729  1
  O  O412  1  0.87333450  0.23837330  0.24409210  1
  O  O413  1  0.87283029  0.25123536  0.73883480  1
  O  O414  1  0.87991964  0.73982670  0.25267364  1
  O  O415  1  0.87995126  0.74473024  0.74436962  1
  O  O416  1  0.37917839  0.49400447  0.49277259  1
  O  O417  1  0.38201353  0.49451317  0.99321979  1
  O  O418  1  0.37585149  0.99369511  0.49202390  1
  O  O419  1  0.37471925  0.99437009  0.99432213  1
  O  O420  1  0.87281999  0.49446205  0.48952065  1
  O  O421  1  0.88348766  0.49434567  0.99934824  1
  O  O422  1  0.88216975  0.99296251  0.50188373  1
  O  O423  1  0.88076279  0.99732216  0.99234602  1
  O  O424  1  0.11856243  0.00825375  0.00198747  1
  O  O425  1  0.12149838  0.00430995  0.50636388  1
  O  O426  1  0.11844914  0.50769071  -0.00058451  1
  O  O427  1  0.12173160  0.50919425  0.50060709  1
  O  O428  1  0.62648122  0.00703032  0.00792611  1
  O  O429  1  0.62397217  0.00712241  0.50945623  1
  O  O430  1  0.62063750  0.50456896  0.00471283  1
  O  O431  1  0.61794375  0.49824760  0.50447368  1
  O  O432  1  0.36978875  0.37006809  0.11746274  1
  O  O433  1  0.36966539  0.36966889  0.61878357  1
  O  O434  1  0.36848891  0.87442922  0.11731856  1
  O  O435  1  0.36870533  0.87453895  0.61816174  1
  O  O436  1  0.86898644  0.36891461  0.12069348  1
  O  O437  1  0.86786552  0.36839612  0.61904988  1
  O  O438  1  0.86241551  0.87408175  0.12686188  1
  O  O439  1  0.87009921  0.86932089  0.62173471  1
  O  O440  1  0.13291604  0.12452134  0.38268896  1
  O  O441  1  0.13079516  0.13061407  0.88080105  1
  O  O442  1  0.12964257  0.63045627  0.37950254  1
  O  O443  1  0.13150352  0.62576593  0.88501934  1
  O  O444  1  0.63300471  0.12572588  0.37998865  1
  O  O445  1  0.62663797  0.12955289  0.88514201  1
  O  O446  1  0.62806122  0.63422464  0.37718256  1
  O  O447  1  0.63152134  0.62960899  0.87960308  1
