# generated using pymatgen
data_V3Zn3O8
_symmetry_space_group_name_H-M   'P 1'
_cell_length_a   17.08939322
_cell_length_b   17.08756086
_cell_length_c   17.08864063
_cell_angle_alpha   89.99545725
_cell_angle_beta   89.99736955
_cell_angle_gamma   89.98814844
_symmetry_Int_Tables_number   1
_chemical_formula_structural   V3Zn3O8
_chemical_formula_sum   'V96 Zn96 O256'
_cell_volume   4990.15715254
_cell_formula_units_Z   32
loop_
 _symmetry_equiv_pos_site_id
 _symmetry_equiv_pos_as_xyz
  1  'x, y, z'
loop_
 _atom_site_type_symbol
 _atom_site_label
 _atom_site_symmetry_multiplicity
 _atom_site_fract_x
 _atom_site_fract_y
 _atom_site_fract_z
 _atom_site_occupancy
  V  V0  1  0.24988384  0.74956579  0.49897050  1
  V  V1  1  0.62576989  0.62503248  -0.00092960  1
  V  V2  1  0.12541533  0.49896326  0.62330391  1
  V  V3  1  0.00015491  0.75049505  0.75031319  1
  V  V4  1  0.75013226  0.25089650  0.00046516  1
  V  V5  1  0.87231234  0.50089534  0.37532149  1
  V  V6  1  -0.00007686  -0.00016279  0.00082756  1
  V  V7  1  0.12594088  0.00000416  0.12697961  1
  V  V8  1  0.87607761  0.87574330  0.00073661  1
  V  V9  1  0.49803045  0.49919341  0.49840417  1
  V  V10  1  0.49898991  0.12459186  0.62547954  1
  V  V11  1  0.50015294  0.12536842  0.12498088  1
  V  V12  1  0.62448476  0.37444180  0.74967512  1
  V  V13  1  0.87470858  0.37534013  0.00107095  1
  V  V14  1  0.62528772  0.12406740  0.50020331  1
  V  V15  1  0.00014228  0.37525477  0.37428701  1
  V  V16  1  0.75016681  0.74998683  -0.00041977  1
  V  V17  1  0.12456312  0.25058166  0.87443341  1
  V  V18  1  0.87530923  0.87470602  0.50088876  1
  V  V19  1  0.50104490  0.62521441  0.12355937  1
  V  V20  1  0.87550645  0.74954557  0.62583926  1
  V  V21  1  0.24970875  0.25014674  -0.00062368  1
  V  V22  1  0.62643786  0.49952226  0.12457623  1
  V  V23  1  0.37503057  0.62417112  0.74919332  1
  V  V24  1  0.00003072  0.25081981  0.25059213  1
  V  V25  1  0.12451014  0.12536112  0.00110079  1
  V  V26  1  0.25009331  0.87557715  0.12576949  1
  V  V27  1  0.74972244  0.74956669  0.50009636  1
  V  V28  1  0.37493507  0.87509539  0.00073361  1
  V  V29  1  0.37470553  0.62406003  0.24899426  1
  V  V30  1  0.37502334  0.00006023  0.37500424  1
  V  V31  1  0.49931072  0.37412251  0.87377753  1
  V  V32  1  0.24981750  0.49982730  0.74799569  1
  V  V33  1  0.37465483  0.12514140  0.25055277  1
  V  V34  1  -0.00051920  0.12506711  0.62601868  1
  V  V35  1  0.37513373  0.37496878  -0.00162532  1
  V  V36  1  0.49980437  0.00009150  -0.00014570  1
  V  V37  1  0.87497198  0.62517145  0.74984684  1
  V  V38  1  0.25091308  0.37372655  0.62103534  1
  V  V39  1  0.00055390  0.75165117  0.25114784  1
  V  V40  1  0.37519372  0.87481948  0.49928936  1
  V  V41  1  0.24982185  -0.00121910  0.75112794  1
  V  V42  1  0.87551895  0.12644747  0.25097604  1
  V  V43  1  0.37427346  0.00060153  0.87554622  1
  V  V44  1  0.62567662  0.37609118  0.25051754  1
  V  V45  1  0.74968786  0.87570463  0.62581290  1
  V  V46  1  0.74990922  0.37500478  0.62593769  1
  V  V47  1  -0.00019433  0.37443802  0.87399447  1
  V  V48  1  0.75011822  0.00024819  0.75162787  1
  V  V49  1  0.12366815  0.50159446  0.12319846  1
  V  V50  1  0.49993291  0.75011455  0.75131214  1
  V  V51  1  0.75030337  0.62556035  0.87423778  1
  V  V52  1  0.37468912  0.49805432  0.87394420  1
  V  V53  1  0.37473624  0.25064000  0.12538517  1
  V  V54  1  0.24943821  0.37557621  0.12440428  1
  V  V55  1  0.12549120  0.62617369  0.49723499  1
  V  V56  1  -0.00056753  0.12627111  0.12647634  1
  V  V57  1  0.50149268  0.75103502  0.24933970  1
  V  V58  1  0.62534493  0.87482296  0.24971039  1
  V  V59  1  0.00054847  0.87497281  0.87615717  1
  V  V60  1  0.24970084  0.74867162  -0.00094804  1
  V  V61  1  0.62465337  0.25025974  0.37484166  1
  V  V62  1  0.87505403  0.50014306  0.87360575  1
  V  V63  1  0.62569993  0.00038179  0.12597217  1
  V  V64  1  0.00018331  0.49996357  0.49988981  1
  V  V65  1  0.75045862  0.87586572  0.12535170  1
  V  V66  1  0.00001463  0.00010171  0.50196105  1
  V  V67  1  0.00033986  0.62499241  0.12402252  1
  V  V68  1  0.50052002  0.25008454  0.25052464  1
  V  V69  1  0.25014455  0.12439563  0.87459742  1
  V  V70  1  0.62509420  0.12567283  0.00038838  1
  V  V71  1  0.49965640  0.62491100  0.62477165  1
  V  V72  1  0.62378395  0.25015249  0.87553946  1
  V  V73  1  0.37520364  0.74979492  0.12480833  1
  V  V74  1  0.75096014  0.12502608  0.37526793  1
  V  V75  1  0.74992248  0.24963400  0.50147191  1
  V  V76  1  0.62467725  -0.00103897  0.62491872  1
  V  V77  1  0.12501000  0.87390838  0.75089749  1
  V  V78  1  0.24954895  0.62511345  0.87481290  1
  V  V79  1  0.37472598  0.74954731  0.62437113  1
  V  V80  1  0.74976184  0.12423373  0.87560051  1
  V  V81  1  0.49944095  -0.00179085  0.49990434  1
  V  V82  1  0.00008534  0.24872416  0.75026783  1
  V  V83  1  0.25074784  0.00030251  0.25036397  1
  V  V84  1  0.87490500  0.24899305  0.62617531  1
  V  V85  1  0.37477033  0.24877405  0.62303496  1
  V  V86  1  0.87566425  0.75003658  0.12572873  1
  V  V87  1  0.00046145  0.87380768  0.37542576  1
  V  V88  1  0.25169194  0.50143973  0.24886980  1
  V  V89  1  0.12627208  0.12639163  0.49912463  1
  V  V90  1  0.62580888  0.62634692  0.49907582  1
  V  V91  1  0.87495122  0.00115850  0.37568237  1
  V  V92  1  0.24960190  0.87517171  0.62598268  1
  V  V93  1  0.87415509  0.62474087  0.25052367  1
  V  V94  1  0.12465487  0.37558416  0.24945077  1
  V  V95  1  0.50024012  0.87383230  0.87490785  1
  Zn  Zn96  1  0.24974775  0.12742028  0.37535050  1
  Zn  Zn97  1  0.12521391  0.74761271  0.87611804  1
  Zn  Zn98  1  0.37409676  0.49831291  0.37341856  1
  Zn  Zn99  1  0.62617056  0.75197120  0.37384652  1
  Zn  Zn100  1  0.12774027  0.25131375  0.37492788  1
  Zn  Zn101  1  0.75057824  0.00042361  0.25023912  1
  Zn  Zn102  1  0.75139108  0.37488954  0.12595770  1
  Zn  Zn103  1  0.87335147  0.25156444  0.12630607  1
  Zn  Zn104  1  0.74941393  0.50210060  0.74885677  1
  Zn  Zn105  1  0.87556077  0.00155850  0.87607635  1
  Zn  Zn106  1  0.62528771  0.49978352  0.62551416  1
  Zn  Zn107  1  0.87569138  0.37506807  0.50052888  1
  Zn  Zn108  1  0.25258042  0.62563280  0.37301983  1
  Zn  Zn109  1  0.37518908  0.12444437  0.74985726  1
  Zn  Zn110  1  0.50190796  0.87350595  0.37501915  1
  Zn  Zn111  1  0.12617571  0.87433747  0.25252038  1
  Zn  Zn112  1  0.74884673  0.62678720  0.37353548  1
  Zn  Zn113  1  -0.00052906  0.62412580  0.62549357  1
  Zn  Zn114  1  0.49815446  0.24692216  0.74992136  1
  Zn  Zn115  1  0.25052644  0.24977740  0.49622852  1
  Zn  Zn116  1  0.12461217  -0.00026088  0.62607066  1
  Zn  Zn117  1  0.62460965  0.87257974  0.75211179  1
  Zn  Zn118  1  0.74907648  0.50180831  0.25135416  1
  Zn  Zn119  1  0.87666223  0.12432660  0.75326818  1
  Zn  Zn120  1  0.62539924  0.75024200  0.87402465  1
  Zn  Zn121  1  0.12275333  0.62501235  -0.00255979  1
  Zn  Zn122  1  0.50003382  0.50035959  -0.00216799  1
  Zn  Zn123  1  0.12755613  0.75156379  0.37267993  1
  Zn  Zn124  1  0.49811744  0.37498562  0.37660775  1
  Zn  Zn125  1  0.00096179  0.50239797  -0.00190866  1
  Zn  Zn126  1  0.12426251  0.37488462  0.74887870  1
  Zn  Zn127  1  0.37591544  0.37441713  0.49506780  1
  Zn  Zn128  1  0.18734240  0.18812770  0.18921464  1
  Zn  Zn129  1  0.18638034  0.18642702  0.68715474  1
  Zn  Zn130  1  0.18628896  0.68792333  0.18639745  1
  Zn  Zn131  1  0.18568087  0.68747824  0.68621426  1
  Zn  Zn132  1  0.68997158  0.18877128  0.18711673  1
  Zn  Zn133  1  0.68657603  0.18686712  0.68891141  1
  Zn  Zn134  1  0.68916533  0.68746297  0.18761706  1
  Zn  Zn135  1  0.68670662  0.68876493  0.68747344  1
  Zn  Zn136  1  0.31167021  0.31403097  0.31517731  1
  Zn  Zn137  1  0.31121490  0.31167594  0.80851646  1
  Zn  Zn138  1  0.31298144  0.81217612  0.31374002  1
  Zn  Zn139  1  0.31315256  0.81210082  0.81328262  1
  Zn  Zn140  1  0.81232835  0.31303540  0.31364063  1
  Zn  Zn141  1  0.81286201  0.31069278  0.81266625  1
  Zn  Zn142  1  0.81164586  0.81220632  0.31403449  1
  Zn  Zn143  1  0.81409089  0.81303233  0.81374453  1
  Zn  Zn144  1  0.18801161  0.43982206  0.43433743  1
  Zn  Zn145  1  0.18639299  0.43858355  0.93702050  1
  Zn  Zn146  1  0.18692419  0.93912121  0.43714939  1
  Zn  Zn147  1  0.18597258  0.93609338  0.93792678  1
  Zn  Zn148  1  0.68560033  0.43786678  0.43897407  1
  Zn  Zn149  1  0.68924800  0.43909482  0.93640719  1
  Zn  Zn150  1  0.68800271  0.93683126  0.43627230  1
  Zn  Zn151  1  0.68624746  0.93676891  0.93762094  1
  Zn  Zn152  1  0.31221485  0.06302450  0.06297173  1
  Zn  Zn153  1  0.31126466  0.06122118  0.56332783  1
  Zn  Zn154  1  0.31180113  0.56243537  0.06121436  1
  Zn  Zn155  1  0.31224300  0.56260549  0.56097842  1
  Zn  Zn156  1  0.81337036  0.06269909  0.06368553  1
  Zn  Zn157  1  0.81358842  0.06277772  0.56398081  1
  Zn  Zn158  1  0.81247269  0.56202507  0.06194231  1
  Zn  Zn159  1  0.81248718  0.56204359  0.56299609  1
  Zn  Zn160  1  0.43937291  0.43780890  0.18610147  1
  Zn  Zn161  1  0.43790558  0.43670246  0.68443070  1
  Zn  Zn162  1  0.43798710  0.93720292  0.18817121  1
  Zn  Zn163  1  0.43639044  0.93685959  0.68856868  1
  Zn  Zn164  1  0.93878770  0.43923563  0.18767358  1
  Zn  Zn165  1  0.93778589  0.43778060  0.68796530  1
  Zn  Zn166  1  0.93805849  0.93869370  0.18928192  1
  Zn  Zn167  1  0.93725046  0.93809091  0.68879054  1
  Zn  Zn168  1  0.06258053  0.06147475  0.31436657  1
  Zn  Zn169  1  0.06381382  0.06128956  0.81294565  1
  Zn  Zn170  1  0.06169641  0.56238788  0.31138026  1
  Zn  Zn171  1  0.06287029  0.56205951  0.81109449  1
  Zn  Zn172  1  0.56227449  0.06108326  0.31337520  1
  Zn  Zn173  1  0.56218984  0.06174060  0.81154236  1
  Zn  Zn174  1  0.56019924  0.56391880  0.31359308  1
  Zn  Zn175  1  0.56277915  0.56122640  0.81275439  1
  Zn  Zn176  1  0.43772181  0.18637595  0.43757995  1
  Zn  Zn177  1  0.43743021  0.18789171  0.93690354  1
  Zn  Zn178  1  0.43813733  0.68749438  0.43310655  1
  Zn  Zn179  1  0.43721348  0.68634056  0.93715111  1
  Zn  Zn180  1  0.93881737  0.18951269  0.43858117  1
  Zn  Zn181  1  0.93638827  0.18766070  0.93754155  1
  Zn  Zn182  1  0.93865009  0.68748034  0.43760210  1
  Zn  Zn183  1  0.93779197  0.68841343  0.93711640  1
  Zn  Zn184  1  0.06057034  0.31298752  0.06272438  1
  Zn  Zn185  1  0.06216776  0.31221275  0.56157566  1
  Zn  Zn186  1  0.06508112  0.81176102  0.06364457  1
  Zn  Zn187  1  0.06319048  0.81211290  0.56399125  1
  Zn  Zn188  1  0.56120244  0.31366708  0.06251222  1
  Zn  Zn189  1  0.56170975  0.31132653  0.56296932  1
  Zn  Zn190  1  0.56365509  0.81232640  0.06244256  1
  Zn  Zn191  1  0.56237678  0.81228733  0.56415273  1
  O  O192  1  0.11982695  0.12018003  0.11990502  1
  O  O193  1  0.11778401  0.12320130  0.61647337  1
  O  O194  1  0.11787169  0.61829995  0.12353827  1
  O  O195  1  0.12473716  0.61808804  0.61355717  1
  O  O196  1  0.61934230  0.12096275  0.12011512  1
  O  O197  1  0.61995631  0.11937391  0.61905140  1
  O  O198  1  0.62133070  0.61702434  0.12003552  1
  O  O199  1  0.61892268  0.62391120  0.61553159  1
  O  O200  1  0.38055632  0.37956838  0.37778896  1
  O  O201  1  0.37884908  0.37808176  0.87820183  1
  O  O202  1  0.37769314  0.88198679  0.38199535  1
  O  O203  1  0.37993717  0.88121748  0.88216249  1
  O  O204  1  0.88011931  0.38537204  0.37596711  1
  O  O205  1  0.87935837  0.37921810  0.88183706  1
  O  O206  1  0.87985303  0.88116660  0.38211597  1
  O  O207  1  0.88218070  0.87732767  0.88349863  1
  O  O208  1  0.25757546  0.00207451  0.36797247  1
  O  O209  1  0.25488902  0.00473681  0.87197408  1
  O  O210  1  0.25237448  0.50353612  0.36347533  1
  O  O211  1  0.25581722  0.50357723  0.86763991  1
  O  O212  1  0.75737385  0.00773821  0.37509985  1
  O  O213  1  0.74880324  0.00477568  0.86665599  1
  O  O214  1  0.76154280  0.50134691  0.37610619  1
  O  O215  1  0.75719867  0.50742752  0.87218687  1
  O  O216  1  0.24433382  0.49392438  0.12893086  1
  O  O217  1  0.24664121  0.49200799  0.62838879  1
  O  O218  1  0.24597588  0.99522060  0.12985401  1
  O  O219  1  0.24972607  0.99191953  0.63320785  1
  O  O220  1  0.73704585  0.49830188  0.12732937  1
  O  O221  1  0.74805838  0.48683800  0.62639481  1
  O  O222  1  0.74301898  0.99409767  0.12597540  1
  O  O223  1  0.74498539  0.99616586  0.63285146  1
  O  O224  1  0.00524374  0.37071431  0.25436748  1
  O  O225  1  0.00121797  0.36707131  0.75628639  1
  O  O226  1  0.00004057  0.86920216  0.25719007  1
  O  O227  1  0.00456751  0.87085783  0.75602014  1
  O  O228  1  0.51168247  0.36901427  0.24877411  1
  O  O229  1  0.50957104  0.37266500  0.75358463  1
  O  O230  1  0.50774577  0.86847139  0.24793974  1
  O  O231  1  0.49950896  0.86854241  0.75692963  1
  O  O232  1  0.49510122  0.13023873  0.24369960  1
  O  O233  1  0.49729672  0.12616036  0.74148440  1
  O  O234  1  0.49585129  0.63076516  0.24197034  1
  O  O235  1  0.49400919  0.62883236  0.74488463  1
  O  O236  1  0.99536191  0.13075497  0.24617087  1
  O  O237  1  0.99962113  0.13000795  0.74441731  1
  O  O238  1  0.99346702  0.63099370  0.24426717  1
  O  O239  1  0.99315335  0.63202240  0.74791560  1
  O  O240  1  0.36903187  0.25489294  0.00548930  1
  O  O241  1  0.37389076  0.25065340  0.51177941  1
  O  O242  1  0.37039171  0.75570644  0.00601452  1
  O  O243  1  0.37049318  0.75400475  0.50532264  1
  O  O244  1  0.86919025  0.26061544  -0.00008784  1
  O  O245  1  0.86765541  0.25272475  0.50709301  1
  O  O246  1  0.86975506  0.75614962  0.00687540  1
  O  O247  1  0.87015527  0.75511635  0.50609456  1
  O  O248  1  0.12521852  0.23832593  0.49892739  1
  O  O249  1  0.13059899  0.24500524  0.99522280  1
  O  O250  1  0.13057598  0.74074505  0.50051318  1
  O  O251  1  0.13491605  0.74730212  0.99829460  1
  O  O252  1  0.62978299  0.24329122  0.49497223  1
  O  O253  1  0.62923757  0.24496125  0.99493304  1
  O  O254  1  0.62972984  0.74098949  0.50084179  1
  O  O255  1  0.63270728  0.74245197  1.00034808  1
  O  O256  1  0.49448876  0.24449644  0.13002245  1
  O  O257  1  0.49122676  0.24354584  0.62518536  1
  O  O258  1  0.49420546  0.74479656  0.12907136  1
  O  O259  1  0.49318234  0.74451914  0.63061417  1
  O  O260  1  0.99774013  0.24362772  0.13181132  1
  O  O261  1  0.99420350  0.24561201  0.63059880  1
  O  O262  1  0.99379385  0.74583312  0.13086971  1
  O  O263  1  0.99223279  0.74952114  0.63211994  1
  O  O264  1  0.00115356  0.25821464  0.36834293  1
  O  O265  1  0.00557964  0.25398895  0.87025701  1
  O  O266  1  -0.00003692  0.75693297  0.36890340  1
  O  O267  1  0.00126193  0.75711829  0.86816179  1
  O  O268  1  0.50771525  0.25015436  0.36828330  1
  O  O269  1  0.50590816  0.25596669  0.87279161  1
  O  O270  1  0.50394817  0.75288598  0.36464010  1
  O  O271  1  0.49893001  0.75591022  0.86893456  1
  O  O272  1  0.23756217  0.12410888  0.50048476  1
  O  O273  1  0.24428675  0.13064394  0.99544359  1
  O  O274  1  0.24122785  0.63026112  0.49928452  1
  O  O275  1  0.25089162  0.63152012  0.99247031  1
  O  O276  1  0.74439222  0.12984357  0.49571543  1
  O  O277  1  0.74366955  0.12975269  0.99563452  1
  O  O278  1  0.74030849  0.63022913  0.50180344  1
  O  O279  1  0.74597325  0.63080306  0.99472645  1
  O  O280  1  0.25543081  0.36883393  0.00451772  1
  O  O281  1  0.25135280  0.37615957  0.51155470  1
  O  O282  1  0.25664199  0.87029571  0.00554056  1
  O  O283  1  0.25533075  0.87003033  0.50604280  1
  O  O284  1  0.75944079  0.36937325  -0.00142413  1
  O  O285  1  0.74796305  0.36834958  0.51112791  1
  O  O286  1  0.75551753  0.87028356  0.00576499  1
  O  O287  1  0.75599291  0.87065595  0.50630851  1
  O  O288  1  0.13025140  0.49526361  0.24246017  1
  O  O289  1  0.13225646  0.49849176  0.74120001  1
  O  O290  1  0.13207698  0.99963917  0.24385077  1
  O  O291  1  0.13216081  0.99198654  0.74914639  1
  O  O292  1  0.62441902  0.49289582  0.24300925  1
  O  O293  1  0.62729299  0.48674899  0.74775680  1
  O  O294  1  0.62631609  0.99407047  0.24272979  1
  O  O295  1  0.63512617  0.99767214  0.74408731  1
  O  O296  1  0.37104138  0.00577057  0.25410228  1
  O  O297  1  0.36773111  0.00033481  0.75843429  1
  O  O298  1  0.36965762  0.50696780  0.24554854  1
  O  O299  1  0.36979142  0.50457660  0.75360833  1
  O  O300  1  0.87415330  0.00814444  0.25795836  1
  O  O301  1  0.86126011  0.00169198  0.75179066  1
  O  O302  1  0.87358078  0.50502017  0.25945092  1
  O  O303  1  0.87293201  0.50680872  0.75578582  1
  O  O304  1  0.11722397  0.37660020  0.36678927  1
  O  O305  1  0.11866074  0.36807525  0.87363409  1
  O  O306  1  0.11561473  0.87343419  0.37412406  1
  O  O307  1  0.11840071  0.87215633  0.86903966  1
  O  O308  1  0.62374605  0.36940317  0.36620776  1
  O  O309  1  0.62064980  0.37045924  0.86787671  1
  O  O310  1  0.62323031  0.87403403  0.36556645  1
  O  O311  1  0.61545034  0.87184327  0.87447692  1
  O  O312  1  0.38087064  0.13107968  0.12931721  1
  O  O313  1  0.37982332  0.13266942  0.62525224  1
  O  O314  1  0.38139912  0.63058122  0.12841064  1
  O  O315  1  0.37957585  0.63049827  0.63036557  1
  O  O316  1  0.88215195  0.12656114  0.13228292  1
  O  O317  1  0.88152865  0.13183299  0.62705287  1
  O  O318  1  0.87954229  0.63008225  0.13052701  1
  O  O319  1  0.87556778  0.63165640  0.63131857  1
  O  O320  1  0.25509665  0.25570217  0.11910572  1
  O  O321  1  0.25711546  0.25794283  0.62372477  1
  O  O322  1  0.25664632  0.75590899  0.11962895  1
  O  O323  1  0.25615007  0.75519890  0.61965332  1
  O  O324  1  0.75255328  0.25386013  0.11588519  1
  O  O325  1  0.75395259  0.25623340  0.62122962  1
  O  O326  1  0.75678008  0.75579018  0.11906180  1
  O  O327  1  0.75589867  0.75676678  0.62023306  1
  O  O328  1  0.24598272  0.24598151  0.37868581  1
  O  O329  1  0.24522264  0.24498331  0.88012191  1
  O  O330  1  0.24788452  0.74708521  0.38333078  1
  O  O331  1  0.25133831  0.74282608  0.88130086  1
  O  O332  1  0.74427282  0.24493377  0.38183749  1
  O  O333  1  0.74291351  0.24433339  0.88066968  1
  O  O334  1  0.74822340  0.74762801  0.38535141  1
  O  O335  1  0.74980637  0.74383853  0.88221536  1
  O  O336  1  0.00568444  0.12065368  0.00581047  1
  O  O337  1  0.00635408  0.12005462  0.50582931  1
  O  O338  1  0.00028668  0.62368239  0.00863163  1
  O  O339  1  0.00922366  0.61946350  0.50234423  1
  O  O340  1  0.50528067  0.12014478  0.00530317  1
  O  O341  1  0.50636424  0.11788461  0.50595595  1
  O  O342  1  0.50658167  0.62306895  0.00609979  1
  O  O343  1  0.50722013  0.62006910  0.50501359  1
  O  O344  1  0.50213440  0.38746755  0.50083131  1
  O  O345  1  0.49267019  0.37569054  0.99229329  1
  O  O346  1  0.49278298  0.88086839  0.50073051  1
  O  O347  1  0.49400408  0.88077667  0.99635929  1
  O  O348  1  0.99850876  0.38236741  0.49316394  1
  O  O349  1  0.98917267  0.37472766  0.99317110  1
  O  O350  1  0.99377941  0.87969482  0.49663317  1
  O  O351  1  0.99568123  0.88007238  0.99689375  1
  O  O352  1  0.49948717  0.49919443  0.38696836  1
  O  O353  1  0.49226437  0.49207465  0.87515565  1
  O  O354  1  0.49356016  0.99838139  0.38275557  1
  O  O355  1  0.49438582  0.99529472  0.88152401  1
  O  O356  1  0.99088811  0.49520934  0.37921622  1
  O  O357  1  0.99312552  0.49267924  0.87572002  1
  O  O358  1  0.99327368  0.99424654  0.38228871  1
  O  O359  1  0.99927144  0.99381742  0.88321034  1
  O  O360  1  0.00627271  0.00628285  0.12063430  1
  O  O361  1  -0.00008379  0.00655156  0.61927027  1
  O  O362  1  0.00634824  0.50715405  0.12366568  1
  O  O363  1  0.00667870  0.50013666  0.61780387  1
  O  O364  1  0.50470099  0.00629096  0.11887872  1
  O  O365  1  0.50454543  0.00425511  0.61967394  1
  O  O366  1  0.51186997  0.50565692  0.12272982  1
  O  O367  1  0.50189404  0.50694190  0.61631611  1
  O  O368  1  0.24450424  0.38054928  0.24190828  1
  O  O369  1  0.24906102  0.38104208  0.73754711  1
  O  O370  1  0.25050415  0.88192211  0.24277678  1
  O  O371  1  0.24529543  0.87895057  0.74588641  1
  O  O372  1  0.73664140  0.37611319  0.24853226  1
  O  O373  1  0.74132709  0.37349906  0.74207112  1
  O  O374  1  0.74434751  0.87640174  0.24259033  1
  O  O375  1  0.74930869  0.88415403  0.74516972  1
  O  O376  1  0.25770293  0.11822821  0.24892169  1
  O  O377  1  0.24995177  0.11742858  0.75747761  1
  O  O378  1  0.25723834  0.61926120  0.24722900  1
  O  O379  1  0.25635788  0.61969454  0.75332251  1
  O  O380  1  0.75668654  0.12489017  0.25776219  1
  O  O381  1  0.74900583  0.11507409  0.75585628  1
  O  O382  1  0.75792883  0.62275728  0.25326941  1
  O  O383  1  0.75637790  0.62511055  0.75570277  1
  O  O384  1  0.37475374  0.11804631  0.36770734  1
  O  O385  1  0.36788386  0.11869348  0.87518127  1
  O  O386  1  0.37405588  0.62137453  0.36339284  1
  O  O387  1  0.37016763  0.61750391  0.86841530  1
  O  O388  1  0.87059480  0.12088139  0.37133630  1
  O  O389  1  0.86558400  0.12214359  0.87430338  1
  O  O390  1  0.87578379  0.61490637  0.36995173  1
  O  O391  1  0.86985773  0.61997128  0.86971034  1
  O  O392  1  0.12994787  0.38078156  0.12923227  1
  O  O393  1  0.13488453  0.37988874  0.62498574  1
  O  O394  1  0.13272129  0.88293900  0.12688265  1
  O  O395  1  0.13228045  0.87621105  0.63208934  1
  O  O396  1  0.62495470  0.38321522  0.13227649  1
  O  O397  1  0.63364739  0.37217599  0.63371972  1
  O  O398  1  0.63086986  0.88116292  0.12928991  1
  O  O399  1  0.63221900  0.88192657  0.62606067  1
  O  O400  1  0.11803316  0.25785859  0.25012169  1
  O  O401  1  0.11869552  0.25111398  0.75704894  1
  O  O402  1  0.11641739  0.75245312  0.25193052  1
  O  O403  1  0.11830657  0.75624516  0.75084679  1
  O  O404  1  0.62031697  0.25705871  0.25413330  1
  O  O405  1  0.62402248  0.25950354  0.75650795  1
  O  O406  1  0.61925773  0.75676612  0.24806830  1
  O  O407  1  0.61561811  0.75208852  0.75217427  1
  O  O408  1  0.38068330  0.24543563  0.24351701  1
  O  O409  1  0.37610907  0.24728294  0.73624529  1
  O  O410  1  0.38050739  0.74487648  0.24270558  1
  O  O411  1  0.37972500  0.74357247  0.74363272  1
  O  O412  1  0.88133587  0.24477641  0.24934925  1
  O  O413  1  0.88134592  0.24669864  0.74434098  1
  O  O414  1  0.88020575  0.74500377  0.24454929  1
  O  O415  1  0.88033455  0.74559963  0.74468468  1
  O  O416  1  0.38729482  0.50118185  0.49923616  1
  O  O417  1  0.37547034  0.49205572  0.99253943  1
  O  O418  1  0.37997026  0.99458892  0.49542744  1
  O  O419  1  0.38038941  0.99509232  0.99584160  1
  O  O420  1  0.88092149  0.49946751  0.49129991  1
  O  O421  1  0.87474567  0.49008962  0.99316481  1
  O  O422  1  0.88007950  0.99454661  0.49578788  1
  O  O423  1  0.88242422  0.99335964  1.00058777  1
  O  O424  1  0.12014984  0.00606426  0.00687224  1
  O  O425  1  0.11774387  0.00856000  0.50287819  1
  O  O426  1  0.12252839  0.50188759  0.00847289  1
  O  O427  1  0.12054749  0.50816993  0.50373240  1
  O  O428  1  0.61893233  0.00613211  0.00610422  1
  O  O429  1  0.62036291  0.00486405  0.50543815  1
  O  O430  1  0.62396015  0.50485410  0.00873555  1
  O  O431  1  0.61727221  0.50960656  0.50239872  1
  O  O432  1  0.36991527  0.36944906  0.11906954  1
  O  O433  1  0.36737759  0.36654737  0.62200154  1
  O  O434  1  0.37009443  0.87010906  0.11931691  1
  O  O435  1  0.36928596  0.86876712  0.61924313  1
  O  O436  1  0.87331923  0.37608984  0.11366862  1
  O  O437  1  0.86422295  0.36878996  0.62542395  1
  O  O438  1  0.87043639  0.87003697  0.12041715  1
  O  O439  1  0.86920745  0.86992280  0.61974541  1
  O  O440  1  0.12463150  0.12610416  0.38716147  1
  O  O441  1  0.13059675  0.13041050  0.88242771  1
  O  O442  1  0.12569164  0.62560783  0.38764581  1
  O  O443  1  0.13418496  0.62613396  0.87606044  1
  O  O444  1  0.63083304  0.12991553  0.38054799  1
  O  O445  1  0.62896636  0.13006335  0.88159615  1
  O  O446  1  0.62663379  0.62675054  0.38788175  1
  O  O447  1  0.63146257  0.62522580  0.88147961  1
