# generated using pymatgen
data_V3Zn3O8
_symmetry_space_group_name_H-M   'P 1'
_cell_length_a   17.08555506
_cell_length_b   17.08616895
_cell_length_c   17.08641054
_cell_angle_alpha   89.99589686
_cell_angle_beta   89.98248859
_cell_angle_gamma   90.00794337
_symmetry_Int_Tables_number   1
_chemical_formula_structural   V3Zn3O8
_chemical_formula_sum   'V96 Zn96 O256'
_cell_volume   4987.97881401
_cell_formula_units_Z   32
loop_
 _symmetry_equiv_pos_site_id
 _symmetry_equiv_pos_as_xyz
  1  'x, y, z'
loop_
 _atom_site_type_symbol
 _atom_site_label
 _atom_site_symmetry_multiplicity
 _atom_site_fract_x
 _atom_site_fract_y
 _atom_site_fract_z
 _atom_site_occupancy
  V  V0  1  0.49976867  -0.00000602  0.50088423  1
  V  V1  1  0.37413320  0.87537167  0.49885769  1
  V  V2  1  0.87489653  0.62596188  0.24935019  1
  V  V3  1  0.62342435  0.25196541  0.37416018  1
  V  V4  1  0.50077638  0.50130369  -0.00040832  1
  V  V5  1  0.62602222  0.12476746  0.50056601  1
  V  V6  1  0.12490232  0.49994637  0.62566330  1
  V  V7  1  0.75003556  0.37569268  0.12462124  1
  V  V8  1  0.00016698  0.62501141  0.62565314  1
  V  V9  1  0.87441499  0.49871244  0.37506473  1
  V  V10  1  0.87525968  0.12452926  0.25012615  1
  V  V11  1  0.12708429  0.24938697  0.87448534  1
  V  V12  1  0.74958261  0.00000895  0.75073318  1
  V  V13  1  0.87441681  0.25097625  0.62548358  1
  V  V14  1  0.24991466  0.37472381  0.12520713  1
  V  V15  1  0.62431423  0.00142051  0.12551782  1
  V  V16  1  0.24928286  0.87551883  0.12532677  1
  V  V17  1  0.62545730  0.87426884  0.75027498  1
  V  V18  1  0.62571087  0.25017640  0.87583517  1
  V  V19  1  0.12585632  0.37498514  0.74991799  1
  V  V20  1  0.62435562  0.75071763  0.37459340  1
  V  V21  1  0.37443540  0.25177826  0.62342947  1
  V  V22  1  0.87541344  0.62537841  0.74976384  1
  V  V23  1  0.24677838  0.87639405  0.62502522  1
  V  V24  1  -0.00044821  0.00042110  0.50047736  1
  V  V25  1  0.37398046  0.62286038  0.25127535  1
  V  V26  1  0.49983798  0.12588991  0.12533276  1
  V  V27  1  0.87535475  0.12403000  0.75111503  1
  V  V28  1  0.49924156  0.75044340  0.24997083  1
  V  V29  1  0.12632186  0.12537523  -0.00122095  1
  V  V30  1  -0.00065628  0.75011384  0.24987095  1
  V  V31  1  -0.00052024  0.24957742  0.25011140  1
  V  V32  1  0.37522949  0.37538254  -0.00023558  1
  V  V33  1  0.75014156  0.12544992  0.87600412  1
  V  V34  1  0.62398118  0.62483175  0.49992601  1
  V  V35  1  0.87463541  0.25033076  0.12475609  1
  V  V36  1  0.87587455  0.37467090  0.00028549  1
  V  V37  1  0.62543651  0.62524912  -0.00009984  1
  V  V38  1  0.24854730  0.74967473  0.49938007  1
  V  V39  1  -0.00220029  0.37560544  0.37525256  1
  V  V40  1  0.37431781  0.12545890  0.24987695  1
  V  V41  1  -0.00035248  0.12470744  0.62548877  1
  V  V42  1  0.62514800  0.50069980  0.62428852  1
  V  V43  1  0.75125490  0.37454413  0.62578997  1
  V  V44  1  0.49873352  0.87585646  0.37495930  1
  V  V45  1  0.37584351  0.74754326  0.62637857  1
  V  V46  1  0.74904902  -0.00005566  0.24979841  1
  V  V47  1  0.37474848  0.75014534  0.12557325  1
  V  V48  1  0.87482801  0.87500099  0.00080012  1
  V  V49  1  0.87397211  0.87429150  0.50025940  1
  V  V50  1  0.37580603  0.24941998  0.12505874  1
  V  V51  1  0.00100344  0.50170982  0.00063779  1
  V  V52  1  0.12504218  0.74974014  0.87428240  1
  V  V53  1  0.75086137  0.75081647  0.00066545  1
  V  V54  1  -0.00033161  0.87512774  0.87380631  1
  V  V55  1  0.24906594  0.12538700  0.37578489  1
  V  V56  1  0.00063317  0.12473916  0.12451647  1
  V  V57  1  0.12355335  0.74972324  0.37423622  1
  V  V58  1  0.62499227  -0.00098961  0.62597544  1
  V  V59  1  0.25046372  0.50030402  0.74983046  1
  V  V60  1  0.37618920  0.87505186  -0.00031746  1
  V  V61  1  0.74851746  0.50013440  0.24907279  1
  V  V62  1  0.50046303  0.24953614  0.74998188  1
  V  V63  1  0.25090122  0.62528871  0.87488363  1
  V  V64  1  0.25055655  0.24902332  -0.00132489  1
  V  V65  1  0.37357342  0.00146935  0.37472958  1
  V  V66  1  0.62542786  0.50038968  0.12430840  1
  V  V67  1  0.75107858  0.50083852  0.75055387  1
  V  V68  1  0.62592516  0.37582705  0.75041916  1
  V  V69  1  0.50079059  0.37571391  0.87466673  1
  V  V70  1  0.74975478  0.75022887  0.49958957  1
  V  V71  1  0.25165020  0.00023912  0.75130061  1
  V  V72  1  0.75141256  0.62499000  0.87441785  1
  V  V73  1  0.62594909  0.75027895  0.87447636  1
  V  V74  1  0.12558378  0.49959865  0.12555780  1
  V  V75  1  0.62432988  0.87637794  0.24951905  1
  V  V76  1  0.49953606  0.87506155  0.87551503  1
  V  V77  1  0.74969030  0.12527099  0.37619951  1
  V  V78  1  0.12611521  -0.00121057  0.12503874  1
  V  V79  1  0.00000917  0.00002083  -0.00022210  1
  V  V80  1  0.12478625  0.37432471  0.24970485  1
  V  V81  1  0.87475156  0.00030190  0.37524538  1
  V  V82  1  0.12398437  0.24922519  0.37590323  1
  V  V83  1  0.87523027  0.75028289  0.12523083  1
  V  V84  1  0.87518190  0.74934205  0.62432332  1
  V  V85  1  0.12364580  0.62359386  0.50039429  1
  V  V86  1  0.24960846  0.62391325  0.37455197  1
  V  V87  1  0.00009899  0.87453035  0.37450238  1
  V  V88  1  0.25062956  0.74972660  -0.00053821  1
  V  V89  1  0.74934374  0.62467919  0.37393117  1
  V  V90  1  0.49837979  0.49718723  0.49802613  1
  V  V91  1  0.12392609  0.12548978  0.49998533  1
  V  V92  1  0.00165465  0.37424951  0.87547266  1
  V  V93  1  0.37474275  0.50085474  0.87375571  1
  V  V94  1  0.50022484  0.12472854  0.62701905  1
  V  V95  1  0.62518619  0.12560379  0.00105348  1
  Zn  Zn96  1  0.50121670  0.74759107  0.74826533  1
  Zn  Zn97  1  0.87473492  0.00094970  0.87575497  1
  Zn  Zn98  1  0.25042420  0.49768820  0.25205185  1
  Zn  Zn99  1  0.87422498  0.37605906  0.49987383  1
  Zn  Zn100  1  0.74955896  0.25175652  0.49981203  1
  Zn  Zn101  1  0.12230492  0.87626765  0.74804517  1
  Zn  Zn102  1  0.49669093  0.37444666  0.37183345  1
  Zn  Zn103  1  0.25356091  0.12323368  0.87444494  1
  Zn  Zn104  1  0.24956041  0.25229301  0.50100491  1
  Zn  Zn105  1  0.24975121  0.37515022  0.62255481  1
  Zn  Zn106  1  0.74910015  0.87610103  0.12433995  1
  Zn  Zn107  1  0.24782981  -0.00129388  0.25046664  1
  Zn  Zn108  1  -0.00201341  0.49827390  0.50071614  1
  Zn  Zn109  1  0.87625273  0.49958144  0.87484913  1
  Zn  Zn110  1  0.12408381  0.00192030  0.62586128  1
  Zn  Zn111  1  0.37583942  0.12420210  0.75254544  1
  Zn  Zn112  1  0.49875860  0.00087866  0.00033192  1
  Zn  Zn113  1  0.37771775  0.62467632  0.74951118  1
  Zn  Zn114  1  0.00264197  0.24904167  0.75078383  1
  Zn  Zn115  1  0.00186724  0.62636454  0.12527939  1
  Zn  Zn116  1  0.49954410  0.25335409  0.25025400  1
  Zn  Zn117  1  0.74972696  0.87422368  0.62573146  1
  Zn  Zn118  1  0.12590182  0.87506688  0.24995374  1
  Zn  Zn119  1  0.12576335  0.62541317  0.00228800  1
  Zn  Zn120  1  0.49995972  0.62543594  0.12465205  1
  Zn  Zn121  1  -0.00016927  0.75055802  0.74937225  1
  Zn  Zn122  1  0.75033766  0.25112833  0.00025936  1
  Zn  Zn123  1  0.37311734  0.49472770  0.37548334  1
  Zn  Zn124  1  0.62251227  0.37578524  0.24975988  1
  Zn  Zn125  1  0.49989796  0.62485259  0.62591156  1
  Zn  Zn126  1  0.37115052  0.37503204  0.49627779  1
  Zn  Zn127  1  0.37577264  0.00193313  0.87627693  1
  Zn  Zn128  1  0.18873791  0.18661996  0.18790458  1
  Zn  Zn129  1  0.18846746  0.18665462  0.68764722  1
  Zn  Zn130  1  0.18684936  0.68732524  0.18753954  1
  Zn  Zn131  1  0.18792002  0.68629004  0.68963541  1
  Zn  Zn132  1  0.68804790  0.18858399  0.18872941  1
  Zn  Zn133  1  0.68818116  0.18702417  0.68911557  1
  Zn  Zn134  1  0.68798067  0.68788084  0.18600195  1
  Zn  Zn135  1  0.68817094  0.68731108  0.68634656  1
  Zn  Zn136  1  0.31218955  0.31163824  0.31353743  1
  Zn  Zn137  1  0.31259679  0.31286740  0.81030721  1
  Zn  Zn138  1  0.31062900  0.81211937  0.31111590  1
  Zn  Zn139  1  0.31307879  0.81382024  0.81098815  1
  Zn  Zn140  1  0.80973915  0.31292464  0.31130822  1
  Zn  Zn141  1  0.81396109  0.31216862  0.81301160  1
  Zn  Zn142  1  0.81186129  0.81346069  0.31222764  1
  Zn  Zn143  1  0.81283292  0.81227544  0.81168476  1
  Zn  Zn144  1  0.18803242  0.43678578  0.43882506  1
  Zn  Zn145  1  0.18794230  0.43680551  0.93727904  1
  Zn  Zn146  1  0.18592285  0.93899629  0.43755774  1
  Zn  Zn147  1  0.18788169  0.93658949  0.93782186  1
  Zn  Zn148  1  0.68826581  0.43584275  0.43927550  1
  Zn  Zn149  1  0.68917102  0.43839949  0.93784535  1
  Zn  Zn150  1  0.68733842  0.93748930  0.43779298  1
  Zn  Zn151  1  0.68674383  0.93933880  0.93792871  1
  Zn  Zn152  1  0.31309282  0.06079980  0.06169482  1
  Zn  Zn153  1  0.31278005  0.06552673  0.56310404  1
  Zn  Zn154  1  0.31202440  0.56300737  0.06271712  1
  Zn  Zn155  1  0.31102348  0.56150947  0.56170819  1
  Zn  Zn156  1  0.81173479  0.06238682  0.06192622  1
  Zn  Zn157  1  0.81126373  0.06260990  0.56378355  1
  Zn  Zn158  1  0.81382957  0.56311862  0.06286662  1
  Zn  Zn159  1  0.81255951  0.56220136  0.56155927  1
  Zn  Zn160  1  0.44044986  0.43682821  0.18729605  1
  Zn  Zn161  1  0.43812509  0.43705216  0.68571210  1
  Zn  Zn162  1  0.43633387  0.93978774  0.18755854  1
  Zn  Zn163  1  0.43686277  0.93530713  0.68910946  1
  Zn  Zn164  1  0.93715821  0.43793320  0.18793916  1
  Zn  Zn165  1  0.93944674  0.43804926  0.68928917  1
  Zn  Zn166  1  0.93820051  0.93635286  0.18723257  1
  Zn  Zn167  1  0.93526808  0.93803010  0.68702534  1
  Zn  Zn168  1  0.06318739  0.06122929  0.31158896  1
  Zn  Zn169  1  0.06575055  0.06179325  0.81063720  1
  Zn  Zn170  1  0.06121368  0.56200125  0.31218606  1
  Zn  Zn171  1  0.06305709  0.56285686  0.81244605  1
  Zn  Zn172  1  0.56070668  0.06527455  0.31222941  1
  Zn  Zn173  1  0.56340265  0.06210422  0.81308057  1
  Zn  Zn174  1  0.56114512  0.56233986  0.31261703  1
  Zn  Zn175  1  0.56175909  0.56481655  0.81035677  1
  Zn  Zn176  1  0.43855648  0.18683711  0.43888548  1
  Zn  Zn177  1  0.43751400  0.18590477  0.93693484  1
  Zn  Zn178  1  0.43751832  0.68548236  0.43841434  1
  Zn  Zn179  1  0.43791860  0.68769982  0.93682421  1
  Zn  Zn180  1  0.93707380  0.18849347  0.43938966  1
  Zn  Zn181  1  0.93850870  0.18851277  0.93701705  1
  Zn  Zn182  1  0.93745647  0.68562028  0.43770261  1
  Zn  Zn183  1  0.93717836  0.68720353  0.93782698  1
  Zn  Zn184  1  0.06283020  0.31247367  0.06188211  1
  Zn  Zn185  1  0.06063212  0.31358095  0.56204570  1
  Zn  Zn186  1  0.06277409  0.81283523  0.06196990  1
  Zn  Zn187  1  0.06087003  0.81118617  0.56065741  1
  Zn  Zn188  1  0.56272535  0.31258919  0.06260103  1
  Zn  Zn189  1  0.56254211  0.31277013  0.56154033  1
  Zn  Zn190  1  0.56238057  0.81259326  0.06319456  1
  Zn  Zn191  1  0.56214604  0.81352995  0.56250854  1
  O  O192  1  0.11917731  0.12040198  0.11884797  1
  O  O193  1  0.11718103  0.12515997  0.61795808  1
  O  O194  1  0.12294336  0.61532098  0.12267307  1
  O  O195  1  0.12013139  0.62099672  0.62066361  1
  O  O196  1  0.62014092  0.12138826  0.12112873  1
  O  O197  1  0.62010692  0.11908479  0.62078512  1
  O  O198  1  0.62403221  0.61916423  0.11728314  1
  O  O199  1  0.62570546  0.61849557  0.61699368  1
  O  O200  1  0.37846637  0.37694192  0.37816032  1
  O  O201  1  0.38121345  0.38059672  0.88039514  1
  O  O202  1  0.37916290  0.87988108  0.38021881  1
  O  O203  1  0.38510759  0.87269813  0.88063405  1
  O  O204  1  0.87980820  0.38049547  0.37390310  1
  O  O205  1  0.88289157  0.37631832  0.88158651  1
  O  O206  1  0.88010110  0.88073569  0.38053561  1
  O  O207  1  0.88581368  0.87435367  0.88099706  1
  O  O208  1  0.25643589  0.00651564  0.37486884  1
  O  O209  1  0.25153009  -0.00294133  0.86346372  1
  O  O210  1  0.25130766  0.50932316  0.37201375  1
  O  O211  1  0.25531736  0.50508126  0.87082003  1
  O  O212  1  0.75519369  0.00536363  0.36982210  1
  O  O213  1  0.75109646  0.00745243  0.86878446  1
  O  O214  1  0.75345367  0.50576414  0.36897774  1
  O  O215  1  0.75193475  0.50716212  0.86840904  1
  O  O216  1  0.24234995  0.49255389  0.12536354  1
  O  O217  1  0.24249617  0.50038577  0.63247934  1
  O  O218  1  0.24337330  0.99281106  0.12497802  1
  O  O219  1  0.25052006  0.99007044  0.63027448  1
  O  O220  1  0.74543832  0.49570414  0.12957267  1
  O  O221  1  0.74496748  0.49512490  0.63112222  1
  O  O222  1  0.74323255  0.99953505  0.13287769  1
  O  O223  1  0.74250859  0.99828611  0.63204815  1
  O  O224  1  0.00468577  0.36807331  0.25453876  1
  O  O225  1  0.00816030  0.37446760  0.75864188  1
  O  O226  1  0.00028848  0.86802447  0.25768408  1
  O  O227  1  0.00050935  0.87376919  0.76120206  1
  O  O228  1  0.50541285  0.37146715  0.25305081  1
  O  O229  1  0.50735879  0.37067909  0.75583028  1
  O  O230  1  0.50423939  0.87040592  0.25649902  1
  O  O231  1  0.50630698  0.87166712  0.75913898  1
  O  O232  1  0.49195748  0.12785940  0.24311751  1
  O  O233  1  0.50154708  0.13171623  0.74389173  1
  O  O234  1  0.49004504  0.63217081  0.24996871  1
  O  O235  1  0.49600989  0.62974731  0.74435658  1
  O  O236  1  0.99434201  0.12981484  0.24426988  1
  O  O237  1  0.99386608  0.12534863  0.74374228  1
  O  O238  1  0.99201648  0.63233710  0.24920602  1
  O  O239  1  0.99355826  0.62702919  0.74450699  1
  O  O240  1  0.37031997  0.25653493  0.00500105  1
  O  O241  1  0.37639352  0.24976341  0.51251551  1
  O  O242  1  0.36997981  0.75489651  0.00573243  1
  O  O243  1  0.36832545  0.75576956  0.50604029  1
  O  O244  1  0.87541645  0.25659992  0.00780619  1
  O  O245  1  0.87207649  0.24989623  0.51424661  1
  O  O246  1  0.87018322  0.75489238  0.00538089  1
  O  O247  1  0.86910523  0.75433332  0.50384364  1
  O  O248  1  0.12242572  0.24233468  0.49259445  1
  O  O249  1  0.13101135  0.24520109  0.99526511  1
  O  O250  1  0.12973141  0.74362811  0.49394414  1
  O  O251  1  0.13098343  0.74928688  0.98963109  1
  O  O252  1  0.62694325  0.24237187  0.49272684  1
  O  O253  1  0.62685054  0.24408727  0.99307669  1
  O  O254  1  0.62922497  0.74605953  0.49368824  1
  O  O255  1  0.63107356  0.74507856  0.99483949  1
  O  O256  1  0.49282190  0.24373288  0.12482900  1
  O  O257  1  0.49528470  0.24477054  0.63067041  1
  O  O258  1  0.49320541  0.74862896  0.13222736  1
  O  O259  1  0.48741455  0.75066241  0.62353300  1
  O  O260  1  0.99526565  0.24433770  0.13050482  1
  O  O261  1  0.98974291  0.24401260  0.62743372  1
  O  O262  1  0.99380964  0.74910443  0.13078005  1
  O  O263  1  0.99365387  0.74370750  0.62659156  1
  O  O264  1  0.00350721  0.25439341  0.36851060  1
  O  O265  1  0.00902163  0.25670184  0.87473821  1
  O  O266  1  0.00392302  0.75504593  0.37029455  1
  O  O267  1  0.00811074  0.75836099  0.87614987  1
  O  O268  1  0.51260273  0.24852261  0.37509025  1
  O  O269  1  0.50590681  0.25699403  0.86993962  1
  O  O270  1  0.50470998  0.75643744  0.37062053  1
  O  O271  1  0.50687026  0.75981499  0.87451383  1
  O  O272  1  0.24199575  0.12700694  0.49382047  1
  O  O273  1  0.24354470  0.13149105  0.99943338  1
  O  O274  1  0.24334140  0.63106967  0.49433083  1
  O  O275  1  0.24881320  0.63198501  0.99282244  1
  O  O276  1  0.74320500  0.12491496  0.49353290  1
  O  O277  1  0.74394723  0.12776172  0.99401418  1
  O  O278  1  0.74383837  0.63052966  0.49288682  1
  O  O279  1  0.74571459  0.63045866  0.99410422  1
  O  O280  1  0.25617197  0.36920963  0.00508851  1
  O  O281  1  0.25195170  0.37006872  0.50507264  1
  O  O282  1  0.25636947  0.86836036  0.00488102  1
  O  O283  1  0.25443736  0.87060405  0.50692540  1
  O  O284  1  0.75816299  0.37480226  0.00630633  1
  O  O285  1  0.75375981  0.37222767  0.51057037  1
  O  O286  1  0.75658618  0.86869419  -0.00015638  1
  O  O287  1  0.75628151  0.86823949  0.49986085  1
  O  O288  1  0.12454098  0.49261484  0.24168170  1
  O  O289  1  0.13106587  0.49530104  0.74590794  1
  O  O290  1  0.12592578  0.99684166  0.24075838  1
  O  O291  1  0.13614905  0.99557135  0.74541072  1
  O  O292  1  0.63175501  0.50199583  0.24251199  1
  O  O293  1  0.63097184  0.49501322  0.74464260  1
  O  O294  1  0.62941420  0.99614365  0.24623959  1
  O  O295  1  0.62992170  0.99414403  0.74473426  1
  O  O296  1  0.37291646  0.00713688  0.25790074  1
  O  O297  1  0.36443549  -0.00076278  0.75119831  1
  O  O298  1  0.37424095  0.51314176  0.24952637  1
  O  O299  1  0.36904102  0.49970027  0.75653879  1
  O  O300  1  0.87024369  0.00517409  0.25564171  1
  O  O301  1  0.86763132  0.00651801  0.75219485  1
  O  O302  1  0.86842956  0.50617756  0.25443765  1
  O  O303  1  0.86855829  0.50717207  0.75167656  1
  O  O304  1  0.11829539  0.36926547  0.36857889  1
  O  O305  1  0.12102785  0.36917531  0.87041897  1
  O  O306  1  0.11774511  0.86784162  0.37523338  1
  O  O307  1  0.11552058  0.86595100  0.87607596  1
  O  O308  1  0.62626002  0.36225042  0.37477180  1
  O  O309  1  0.62036221  0.37076088  0.87011677  1
  O  O310  1  0.61811251  0.87069455  0.36985125  1
  O  O311  1  0.61816314  0.86957210  0.87106974  1
  O  O312  1  0.37967698  0.13003954  0.12905079  1
  O  O313  1  0.38322966  0.13353902  0.62752007  1
  O  O314  1  0.37489253  0.63168068  0.13451655  1
  O  O315  1  0.37322503  0.63846479  0.62412446  1
  O  O316  1  0.88112863  0.12973681  0.13043549  1
  O  O317  1  0.87874388  0.13224022  0.63086499  1
  O  O318  1  0.87685642  0.63206713  0.13202076  1
  O  O319  1  0.88000854  0.63013154  0.62969452  1
  O  O320  1  0.25537612  0.25516520  0.11827490  1
  O  O321  1  0.26266319  0.24982692  0.62513853  1
  O  O322  1  0.25481213  0.75519308  0.11894700  1
  O  O323  1  0.25556157  0.75785160  0.61979675  1
  O  O324  1  0.75744978  0.25657424  0.12448460  1
  O  O325  1  0.75893001  0.25516017  0.62667198  1
  O  O326  1  0.75666731  0.75276436  0.11830228  1
  O  O327  1  0.75663494  0.75096904  0.61649701  1
  O  O328  1  0.24079415  0.24219764  0.37616881  1
  O  O329  1  0.24463446  0.24965307  0.88171340  1
  O  O330  1  0.24392005  0.74522228  0.38088570  1
  O  O331  1  0.24304764  0.74719016  0.87925548  1
  O  O332  1  0.74226943  0.24261404  0.37649613  1
  O  O333  1  0.74303208  0.24395119  0.87574832  1
  O  O334  1  0.74386953  0.74465582  0.37946520  1
  O  O335  1  0.74542714  0.74453086  0.88102903  1
  O  O336  1  0.00573743  0.11980088  0.00559176  1
  O  O337  1  0.00346671  0.11900058  0.50535006  1
  O  O338  1  0.00166956  0.61282242  0.00137130  1
  O  O339  1  0.00661470  0.62391834  0.50717705  1
  O  O340  1  0.50734937  0.12344717  0.00688102  1
  O  O341  1  0.50648259  0.11757933  0.50680712  1
  O  O342  1  0.50728875  0.61896396  -0.00005298  1
  O  O343  1  0.50684236  0.61652082  0.50165799  1
  O  O344  1  0.50077590  0.38746173  0.49836316  1
  O  O345  1  0.49476290  0.38137222  0.99374194  1
  O  O346  1  0.49414432  0.88070465  0.49397848  1
  O  O347  1  0.49544386  0.87448452  0.99097892  1
  O  O348  1  0.99558838  0.37720475  0.49043794  1
  O  O349  1  0.99609931  0.38310546  0.99591265  1
  O  O350  1  0.99339149  0.88011643  0.49394720  1
  O  O351  1  0.99495036  0.87996195  0.99202385  1
  O  O352  1  0.49947546  0.49947750  0.38649705  1
  O  O353  1  0.49544694  0.49473055  0.87961944  1
  O  O354  1  0.49406900  0.99534505  0.38124657  1
  O  O355  1  0.50128898  0.98543041  0.87625428  1
  O  O356  1  0.99228680  0.49296805  0.37418702  1
  O  O357  1  1.00158349  0.49406950  0.88606176  1
  O  O358  1  0.99342417  0.99507721  0.38000604  1
  O  O359  1  1.00115634  0.98975927  0.88084422  1
  O  O360  1  0.00524398  0.00539250  0.11932547  1
  O  O361  1  0.00011801  0.00586435  0.61787204  1
  O  O362  1  0.00724089  0.49889216  0.11584950  1
  O  O363  1  0.00688050  0.50755638  0.62447099  1
  O  O364  1  0.50692157  0.00764986  0.12450913  1
  O  O365  1  0.50469398  0.00379656  0.62028038  1
  O  O366  1  0.50661940  0.50274921  0.11628771  1
  O  O367  1  0.50750605  0.50116536  0.61613132  1
  O  O368  1  0.24244712  0.37511831  0.24258633  1
  O  O369  1  0.24296255  0.38311513  0.74843873  1
  O  O370  1  0.24726670  0.87672108  0.24126319  1
  O  O371  1  0.24900442  0.88152822  0.73930143  1
  O  O372  1  0.74758351  0.38312805  0.24208743  1
  O  O373  1  0.74493447  0.38117178  0.74594282  1
  O  O374  1  0.74218680  0.88242218  0.25031213  1
  O  O375  1  0.74356335  0.88184244  0.74982340  1
  O  O376  1  0.25622881  0.12267834  0.25709534  1
  O  O377  1  0.25168792  0.11176011  0.75004906  1
  O  O378  1  0.25953477  0.62596364  0.25571414  1
  O  O379  1  0.25238485  0.61812646  0.75786973  1
  O  O380  1  0.75655835  0.11887694  0.25594082  1
  O  O381  1  0.75457790  0.11906516  0.75648262  1
  O  O382  1  0.75512915  0.62066504  0.25544354  1
  O  O383  1  0.75529134  0.61979195  0.75505763  1
  O  O384  1  0.36961265  0.12066760  0.37094999  1
  O  O385  1  0.37244715  0.12031576  0.87098187  1
  O  O386  1  0.36842354  0.62663764  0.36520085  1
  O  O387  1  0.36855313  0.61873473  0.87418255  1
  O  O388  1  0.87050827  0.11975171  0.36975566  1
  O  O389  1  0.86933785  0.12479134  0.86908937  1
  O  O390  1  0.86822675  0.62010468  0.36883472  1
  O  O391  1  0.86876966  0.62403262  0.86857183  1
  O  O392  1  0.13017536  0.37942349  0.13008636  1
  O  O393  1  0.12375227  0.38168095  0.63272206  1
  O  O394  1  0.13146213  0.88097572  0.12443156  1
  O  O395  1  0.13697305  0.87445863  0.62381545  1
  O  O396  1  0.63249493  0.38274082  0.12361344  1
  O  O397  1  0.63099266  0.37999609  0.63169594  1
  O  O398  1  0.62560763  0.88213483  0.13240556  1
  O  O399  1  0.62583850  0.88135060  0.63141319  1
  O  O400  1  0.11816633  0.25411065  0.25490228  1
  O  O401  1  0.12520905  0.25627369  0.75674167  1
  O  O402  1  0.11747363  0.75067596  0.25683171  1
  O  O403  1  0.12404324  0.75327374  0.76291890  1
  O  O404  1  0.62398086  0.24985892  0.26205926  1
  O  O405  1  0.62007669  0.25639603  0.75554659  1
  O  O406  1  0.61964717  0.75546433  0.25545267  1
  O  O407  1  0.62613753  0.75629066  0.75682156  1
  O  O408  1  0.37502049  0.24248922  0.24185445  1
  O  O409  1  0.38310354  0.24970915  0.74138088  1
  O  O410  1  0.37969967  0.74264704  0.24559609  1
  O  O411  1  0.37487042  0.75004403  0.73712145  1
  O  O412  1  0.88022604  0.24351577  0.24473652  1
  O  O413  1  0.87669849  0.24349191  0.74047332  1
  O  O414  1  0.87911792  0.74563584  0.24547486  1
  O  O415  1  0.87551623  0.74324214  0.74247648  1
  O  O416  1  0.38656599  0.50061788  0.49972638  1
  O  O417  1  0.38022811  0.49464890  0.99427024  1
  O  O418  1  0.38058983  0.99517459  0.49523541  1
  O  O419  1  0.37814497  0.98970318  0.99774478  1
  O  O420  1  0.87636093  0.49871604  0.49035621  1
  O  O421  1  0.88602966  0.49408047  1.00016713  1
  O  O422  1  0.87923549  0.99493816  0.49426666  1
  O  O423  1  0.88226378  0.99410842  0.99840092  1
  O  O424  1  0.11954631  0.00540595  0.00526304  1
  O  O425  1  0.11669311  0.00699056  0.50146121  1
  O  O426  1  0.11639247  0.49858194  0.00728696  1
  O  O427  1  0.12263691  0.50750071  0.50719700  1
  O  O428  1  0.62379057  0.00751127  0.00795965  1
  O  O429  1  0.61891556  0.00412114  0.50533702  1
  O  O430  1  0.62047983  0.50604738  0.00401346  1
  O  O431  1  0.61909203  0.50557067  0.50464639  1
  O  O432  1  0.36974627  0.37025670  0.11875729  1
  O  O433  1  0.37541502  0.36296491  0.62298469  1
  O  O434  1  0.37020318  0.86900150  0.12014064  1
  O  O435  1  0.36608284  0.86765744  0.61846834  1
  O  O436  1  0.87039276  0.36967806  0.12044096  1
  O  O437  1  0.87061790  0.36561950  0.62780422  1
  O  O438  1  0.87328318  0.86869007  0.11839351  1
  O  O439  1  0.87333801  0.86799946  0.61741412  1
  O  O440  1  0.12813244  0.12974754  0.37983117  1
  O  O441  1  0.12708561  0.13128391  0.88199708  1
  O  O442  1  0.12943713  0.63048422  0.37981849  1
  O  O443  1  0.13058451  0.63488639  0.87734490  1
  O  O444  1  0.63012750  0.13093618  0.38075857  1
  O  O445  1  0.62977190  0.13086948  0.88066959  1
  O  O446  1  0.63037055  0.63195244  0.37939079  1
  O  O447  1  0.63154988  0.63060715  0.88023211  1
