# generated using pymatgen
data_V3Zn3O8
_symmetry_space_group_name_H-M   'P 1'
_cell_length_a   17.08470405
_cell_length_b   17.08438306
_cell_length_c   17.08408755
_cell_angle_alpha   90.00778553
_cell_angle_beta   90.00093910
_cell_angle_gamma   89.99422536
_symmetry_Int_Tables_number   1
_chemical_formula_structural   V3Zn3O8
_chemical_formula_sum   'V96 Zn96 O256'
_cell_volume   4986.53122252
_cell_formula_units_Z   32
loop_
 _symmetry_equiv_pos_site_id
 _symmetry_equiv_pos_as_xyz
  1  'x, y, z'
loop_
 _atom_site_type_symbol
 _atom_site_label
 _atom_site_symmetry_multiplicity
 _atom_site_fract_x
 _atom_site_fract_y
 _atom_site_fract_z
 _atom_site_occupancy
  V  V0  1  0.50000342  0.62450376  0.62410878  1
  V  V1  1  0.87446179  0.24886331  0.62526926  1
  V  V2  1  0.50043586  0.50030449  0.49944420  1
  V  V3  1  0.74900817  0.37478226  0.62450264  1
  V  V4  1  0.75097525  0.12339644  0.37438880  1
  V  V5  1  0.12484221  0.75112209  0.87681400  1
  V  V6  1  0.74928705  0.62369767  0.87425972  1
  V  V7  1  0.37500656  0.49994789  0.87442125  1
  V  V8  1  0.00037789  0.87461916  0.37668863  1
  V  V9  1  0.25034091  0.00103272  0.74968663  1
  V  V10  1  0.49894634  0.24918666  0.74961366  1
  V  V11  1  0.00103288  0.00115165  0.00139871  1
  V  V12  1  0.49898774  0.87601234  0.87545137  1
  V  V13  1  0.12507598  0.37647381  0.24954626  1
  V  V14  1  0.75029271  0.75064127  0.00010562  1
  V  V15  1  0.12304075  0.12615179  0.00182306  1
  V  V16  1  0.62464928  -0.00057456  0.62442017  1
  V  V17  1  0.50061929  0.37511725  0.37382425  1
  V  V18  1  0.62494465  0.62513568  -0.00014664  1
  V  V19  1  0.24970071  0.25333213  0.00026889  1
  V  V20  1  0.87636260  0.74910706  0.62664665  1
  V  V21  1  0.74968453  0.12573556  0.87533657  1
  V  V22  1  0.37491046  0.87578028  0.00032386  1
  V  V23  1  -0.00183034  0.49911479  -0.00220044  1
  V  V24  1  0.37467980  0.75073688  0.12445905  1
  V  V25  1  -0.00030112  0.37447169  0.37611281  1
  V  V26  1  0.37447187  -0.00053319  0.37461986  1
  V  V27  1  0.25042390  0.75037064  0.50177663  1
  V  V28  1  0.74874286  0.24968496  -0.00065604  1
  V  V29  1  0.75052556  0.50059526  0.24941373  1
  V  V30  1  0.12736583  0.87700420  0.24951289  1
  V  V31  1  0.12528961  0.74901683  0.37614755  1
  V  V32  1  0.62488993  0.49976246  0.12372865  1
  V  V33  1  0.62426554  0.24857273  0.87455288  1
  V  V34  1  0.25115774  0.62433372  0.37500462  1
  V  V35  1  0.12545578  0.62409028  0.50027257  1
  V  V36  1  -0.00023776  0.49896762  0.50039161  1
  V  V37  1  0.87473586  0.87494365  0.00092848  1
  V  V38  1  0.49920677  0.37415556  0.87382946  1
  V  V39  1  0.75015385  0.37464453  0.12357897  1
  V  V40  1  0.75072988  0.74810789  0.49982397  1
  V  V41  1  0.49926246  0.62541597  0.12468061  1
  V  V42  1  0.87476717  0.12511458  0.75127962  1
  V  V43  1  0.37547440  0.37398084  0.49885236  1
  V  V44  1  0.37549523  0.24931486  0.12521980  1
  V  V45  1  0.87465515  0.00126513  0.87585979  1
  V  V46  1  0.49968047  0.24918921  0.24828646  1
  V  V47  1  -0.00012952  0.74874808  0.25094185  1
  V  V48  1  0.00065461  0.25139247  0.75001451  1
  V  V49  1  -0.00017180  0.62584219  0.12651870  1
  V  V50  1  0.87479784  -0.00080750  0.37573282  1
  V  V51  1  0.37533258  0.62450769  0.74951650  1
  V  V52  1  0.37504597  0.00017327  0.87507634  1
  V  V53  1  0.12487686  0.00094962  0.62601538  1
  V  V54  1  0.87529903  0.37442223  0.49928008  1
  V  V55  1  0.00032063  0.87496926  0.87628448  1
  V  V56  1  0.62518564  0.87403974  0.74979778  1
  V  V57  1  0.62558102  0.37470659  0.24898475  1
  V  V58  1  0.24989062  0.75123187  0.00053928  1
  V  V59  1  0.87602761  0.87382109  0.50156126  1
  V  V60  1  0.87545688  0.62454681  0.25046006  1
  V  V61  1  0.37519848  0.62508911  0.24934717  1
  V  V62  1  0.12540630  0.62681595  0.00058160  1
  V  V63  1  0.37472849  0.12520241  0.74936356  1
  V  V64  1  0.74973563  0.87559453  0.12505115  1
  V  V65  1  0.12368950  0.25244679  0.87458252  1
  V  V66  1  0.12590749  0.49958959  0.62584942  1
  V  V67  1  0.50014175  0.87441010  0.37555387  1
  V  V68  1  0.25004157  0.50028794  0.75002623  1
  V  V69  1  0.37549596  0.50065004  0.37356034  1
  V  V70  1  0.37563426  0.24889080  0.62384335  1
  V  V71  1  0.62554542  0.24924347  0.37396768  1
  V  V72  1  0.62452930  0.75050855  0.87470386  1
  V  V73  1  0.75102433  -0.00121712  0.25031105  1
  V  V74  1  -0.00099132  0.24990183  0.24998593  1
  V  V75  1  0.75004677  0.62466492  0.37435361  1
  V  V76  1  0.75025846  0.50024173  0.74970237  1
  V  V77  1  0.49920026  0.74884751  0.74876823  1
  V  V78  1  0.12487366  0.37564269  0.74940709  1
  V  V79  1  0.62463924  0.49939745  0.62311868  1
  V  V80  1  0.75041232  0.87295773  0.62625866  1
  V  V81  1  0.62522518  0.12376625  0.49988807  1
  V  V82  1  0.74983358  0.24951190  0.49967086  1
  V  V83  1  0.25097682  0.25053997  0.49907863  1
  V  V84  1  0.12565088  0.49986894  0.12610095  1
  V  V85  1  0.25028730  0.12458082  0.37286792  1
  V  V86  1  0.12484058  0.24982696  0.37530031  1
  V  V87  1  0.00073409  0.75008211  0.75136152  1
  V  V88  1  0.00004006  -0.00020894  0.50236578  1
  V  V89  1  0.25169119  0.87495910  0.62504537  1
  V  V90  1  0.00036082  0.62587421  0.62588696  1
  V  V91  1  0.00007735  0.12420293  0.62539812  1
  V  V92  1  0.49895925  0.49935526  -0.00183555  1
  V  V93  1  0.62600621  0.74985362  0.37476479  1
  V  V94  1  0.62680206  0.87535087  0.24968050  1
  V  V95  1  0.87580197  0.24960170  0.12438934  1
  Zn  Zn96  1  0.62405619  0.37274441  0.74845823  1
  Zn  Zn97  1  0.37630412  0.87368068  0.49999103  1
  Zn  Zn98  1  0.87643220  0.12348202  0.25057635  1
  Zn  Zn99  1  0.62256553  0.00234742  0.12326786  1
  Zn  Zn100  1  0.25057038  0.62591297  0.87493891  1
  Zn  Zn101  1  0.49924879  0.00272225  0.00463576  1
  Zn  Zn102  1  0.87408860  0.37602698  -0.00397490  1
  Zn  Zn103  1  0.37601953  0.75038985  0.62397890  1
  Zn  Zn104  1  0.37728100  0.12311174  0.24806411  1
  Zn  Zn105  1  0.25007207  0.12557139  0.87430681  1
  Zn  Zn106  1  0.25017914  0.49975039  0.24852949  1
  Zn  Zn107  1  0.24942321  0.00123023  0.24801459  1
  Zn  Zn108  1  0.87505617  0.75031679  0.12528395  1
  Zn  Zn109  1  0.25089017  0.37475202  0.62402239  1
  Zn  Zn110  1  0.87621582  0.62472109  0.75201977  1
  Zn  Zn111  1  0.87457273  0.49901935  0.37478613  1
  Zn  Zn112  1  0.50350292  0.12338633  0.12443996  1
  Zn  Zn113  1  -0.00323147  0.37698056  0.87337511  1
  Zn  Zn114  1  0.12446928  0.12569559  0.50036590  1
  Zn  Zn115  1  0.49982187  0.12364391  0.62286007  1
  Zn  Zn116  1  0.62177039  0.12141984  0.00078292  1
  Zn  Zn117  1  0.12534143  0.87639816  0.75248307  1
  Zn  Zn118  1  0.37335259  0.37631365  0.00025429  1
  Zn  Zn119  1  0.62490534  0.62471381  0.49840936  1
  Zn  Zn120  1  0.87417205  0.49972669  0.87493261  1
  Zn  Zn121  1  0.25090525  0.37799690  0.12703992  1
  Zn  Zn122  1  0.50087257  0.74970527  0.24921047  1
  Zn  Zn123  1  0.12608135  0.00131135  0.12649763  1
  Zn  Zn124  1  0.25144468  0.87926385  0.12581501  1
  Zn  Zn125  1  0.75067199  -0.00090220  0.75201051  1
  Zn  Zn126  1  -0.00030934  0.12337506  0.12873818  1
  Zn  Zn127  1  0.49903308  0.00085668  0.49973350  1
  Zn  Zn128  1  0.18798437  0.19039577  0.18680696  1
  Zn  Zn129  1  0.18858885  0.18768750  0.68638352  1
  Zn  Zn130  1  0.18913312  0.68846536  0.18733456  1
  Zn  Zn131  1  0.18731580  0.68799992  0.68991048  1
  Zn  Zn132  1  0.68848421  0.18458074  0.18662003  1
  Zn  Zn133  1  0.68669878  0.18576032  0.68952955  1
  Zn  Zn134  1  0.68760257  0.68913866  0.18732557  1
  Zn  Zn135  1  0.68611945  0.68542911  0.68652174  1
  Zn  Zn136  1  0.31173437  0.31314856  0.31061424  1
  Zn  Zn137  1  0.31170863  0.31368037  0.81256835  1
  Zn  Zn138  1  0.31328594  0.81043309  0.31239879  1
  Zn  Zn139  1  0.31207474  0.81218103  0.81218970  1
  Zn  Zn140  1  0.81282373  0.31236885  0.31131518  1
  Zn  Zn141  1  0.81323330  0.31530813  0.81388030  1
  Zn  Zn142  1  0.81369810  0.81159089  0.31240338  1
  Zn  Zn143  1  0.81311290  0.81222549  0.81318194  1
  Zn  Zn144  1  0.18846926  0.43727261  0.43655738  1
  Zn  Zn145  1  0.18533120  0.43854600  0.93574808  1
  Zn  Zn146  1  0.18712428  0.93860579  0.43902407  1
  Zn  Zn147  1  0.18935963  0.93827183  0.93805347  1
  Zn  Zn148  1  0.68761859  0.43776253  0.43640013  1
  Zn  Zn149  1  0.68546521  0.43448824  0.93613242  1
  Zn  Zn150  1  0.68812318  0.93607114  0.43846457  1
  Zn  Zn151  1  0.68633492  0.93958546  0.93880915  1
  Zn  Zn152  1  0.31038519  0.06247593  0.06302014  1
  Zn  Zn153  1  0.31252436  0.06261744  0.56050750  1
  Zn  Zn154  1  0.31123309  0.56346424  0.06175176  1
  Zn  Zn155  1  0.31360644  0.56189674  0.56311151  1
  Zn  Zn156  1  0.81008842  0.06335604  0.06278803  1
  Zn  Zn157  1  0.81150433  0.06134384  0.56321985  1
  Zn  Zn158  1  0.81360228  0.56428945  0.06357499  1
  Zn  Zn159  1  0.81358823  0.56269119  0.56258966  1
  Zn  Zn160  1  0.43669594  0.43646700  0.18579028  1
  Zn  Zn161  1  0.43670321  0.43588105  0.68705481  1
  Zn  Zn162  1  0.43803344  0.93779297  0.18850215  1
  Zn  Zn163  1  0.43802247  0.93825432  0.68890581  1
  Zn  Zn164  1  0.93747638  0.43718633  0.18612576  1
  Zn  Zn165  1  0.93654905  0.43701246  0.68634024  1
  Zn  Zn166  1  0.93885967  0.93766335  0.18656784  1
  Zn  Zn167  1  0.93758660  0.93693566  0.69059531  1
  Zn  Zn168  1  0.06115750  0.06331561  0.31372789  1
  Zn  Zn169  1  0.06334065  0.06389854  0.81413299  1
  Zn  Zn170  1  0.06255650  0.56095431  0.31340929  1
  Zn  Zn171  1  0.06451408  0.56477146  0.81373392  1
  Zn  Zn172  1  0.56250317  0.06189742  0.30960773  1
  Zn  Zn173  1  0.56126565  0.06293587  0.81247467  1
  Zn  Zn174  1  0.56278816  0.56342583  0.31110996  1
  Zn  Zn175  1  0.56333910  0.56136808  0.81103256  1
  Zn  Zn176  1  0.43893186  0.18586832  0.43694915  1
  Zn  Zn177  1  0.43749023  0.18489027  0.93774711  1
  Zn  Zn178  1  0.43705381  0.68864468  0.43875225  1
  Zn  Zn179  1  0.43671838  0.68752347  0.93683392  1
  Zn  Zn180  1  0.93739039  0.18607468  0.43800331  1
  Zn  Zn181  1  0.93740550  0.18895411  0.93778724  1
  Zn  Zn182  1  0.93687038  0.68593558  0.43730873  1
  Zn  Zn183  1  0.93568466  0.68596849  0.93694812  1
  Zn  Zn184  1  0.06183078  0.31498252  0.06379546  1
  Zn  Zn185  1  0.06409596  0.31201346  0.56302716  1
  Zn  Zn186  1  0.06207211  0.81285582  0.06477276  1
  Zn  Zn187  1  0.06509060  0.81304896  0.56493531  1
  Zn  Zn188  1  0.56180964  0.31097533  0.05962120  1
  Zn  Zn189  1  0.56177871  0.31142860  0.56274664  1
  Zn  Zn190  1  0.56200626  0.81474241  0.06272708  1
  Zn  Zn191  1  0.56339644  0.81118643  0.56114381  1
  O  O192  1  0.12273125  0.12755878  0.11241797  1
  O  O193  1  0.11775292  0.11923427  0.62314531  1
  O  O194  1  0.11896628  0.62057308  0.12071159  1
  O  O195  1  0.11978869  0.61991128  0.61942647  1
  O  O196  1  0.62401531  0.12210468  0.12096228  1
  O  O197  1  0.62627306  0.11431778  0.61968620  1
  O  O198  1  0.62008739  0.61936719  0.11925726  1
  O  O199  1  0.61771389  0.61740621  0.62172465  1
  O  O200  1  0.38158261  0.38027482  0.37883035  1
  O  O201  1  0.38150187  0.38205960  0.87667388  1
  O  O202  1  0.38298177  0.88164652  0.37484372  1
  O  O203  1  0.38012862  0.87970557  0.87946464  1
  O  O204  1  0.88144070  0.37504508  0.38185652  1
  O  O205  1  0.87911222  0.38178950  0.87812087  1
  O  O206  1  0.88111356  0.87893047  0.38228249  1
  O  O207  1  0.88035611  0.88086112  0.88144194  1
  O  O208  1  0.25679689  0.00815141  0.37538961  1
  O  O209  1  0.25701205  0.00095003  0.86712921  1
  O  O210  1  0.25772127  0.50744723  0.37470801  1
  O  O211  1  0.25634052  0.50196704  0.86834317  1
  O  O212  1  0.75623073  0.00310789  0.37125872  1
  O  O213  1  0.75790517  0.00638317  0.87379641  1
  O  O214  1  0.75073618  0.50575868  0.36703696  1
  O  O215  1  0.74634614  0.50478211  0.86467802  1
  O  O216  1  0.24104866  0.49862306  0.12639046  1
  O  O217  1  0.24328763  0.49864999  0.63110798  1
  O  O218  1  0.24453741  0.99786698  0.13083117  1
  O  O219  1  0.24519976  0.99330598  0.62853806  1
  O  O220  1  0.74375146  0.49543344  0.12946381  1
  O  O221  1  0.74487887  0.49547448  0.63055968  1
  O  O222  1  0.75129276  0.99203853  0.13311079  1
  O  O223  1  0.74104667  0.99223151  0.62681106  1
  O  O224  1  0.00492642  0.37000705  0.25657724  1
  O  O225  1  0.00663759  0.36860903  0.74822526  1
  O  O226  1  0.00740588  0.86911295  0.25741570  1
  O  O227  1  0.00178723  0.86828308  0.75842401  1
  O  O228  1  0.50676226  0.37036169  0.25495851  1
  O  O229  1  0.50072740  0.36763392  0.75606230  1
  O  O230  1  0.50663624  0.87297142  0.26237553  1
  O  O231  1  0.50539009  0.86805721  0.75495059  1
  O  O232  1  0.49752573  0.13604449  0.24960920  1
  O  O233  1  0.49233227  0.13152255  0.74700940  1
  O  O234  1  0.49377791  0.62616797  0.24230348  1
  O  O235  1  0.49565541  0.62934571  0.74397463  1
  O  O236  1  0.99722978  0.13371890  0.24919166  1
  O  O237  1  0.99460577  0.13130382  0.74473018  1
  O  O238  1  0.99567604  0.62938483  0.24662845  1
  O  O239  1  0.99939104  0.63143208  0.74318027  1
  O  O240  1  0.36461096  0.25114020  0.00658625  1
  O  O241  1  0.37124856  0.25477110  0.50316632  1
  O  O242  1  0.36963293  0.75489606  0.00431249  1
  O  O243  1  0.36600991  0.75308624  0.50350252  1
  O  O244  1  0.86956831  0.25260931  0.00905063  1
  O  O245  1  0.86921048  0.25435114  0.50588112  1
  O  O246  1  0.86808295  0.75681831  0.00035782  1
  O  O247  1  0.87122782  0.75526140  0.50630800  1
  O  O248  1  0.13181491  0.24908129  0.49286630  1
  O  O249  1  0.12981938  0.24507179  0.99600743  1
  O  O250  1  0.12976112  0.74365995  0.49536509  1
  O  O251  1  0.12937801  0.74608808  0.99646501  1
  O  O252  1  0.63098491  0.24477210  0.49393431  1
  O  O253  1  0.63213335  0.24923917  0.99150323  1
  O  O254  1  0.63360463  0.74847362  0.49302499  1
  O  O255  1  0.63028971  0.74490502  0.99381735  1
  O  O256  1  0.49038724  0.25232187  0.13040224  1
  O  O257  1  0.49345264  0.24782566  0.63083797  1
  O  O258  1  0.49357469  0.74266607  0.12515065  1
  O  O259  1  0.49967719  0.74394960  0.63095882  1
  O  O260  1  0.99025898  0.25093546  0.13044908  1
  O  O261  1  0.99406725  0.24406036  0.62960678  1
  O  O262  1  0.99887586  0.74287834  0.13303091  1
  O  O263  1  0.99642619  0.74559836  0.63056132  1
  O  O264  1  0.00487442  0.25504185  0.37118604  1
  O  O265  1  0.00611559  0.25162143  0.86733710  1
  O  O266  1  0.00588241  0.75488546  0.37163952  1
  O  O267  1  0.00456388  0.75532115  0.87170826  1
  O  O268  1  0.50595792  0.25634040  0.36916766  1
  O  O269  1  0.50362939  0.25501238  0.86887825  1
  O  O270  1  0.50589684  0.75868183  0.37425722  1
  O  O271  1  0.50578238  0.75508606  0.86875155  1
  O  O272  1  0.24899468  0.13114663  0.48825719  1
  O  O273  1  0.24031563  0.13692385  0.99852679  1
  O  O274  1  0.24425558  0.62981452  0.49549362  1
  O  O275  1  0.24272372  0.63304318  0.99823664  1
  O  O276  1  0.74542055  0.13054830  0.49447468  1
  O  O277  1  0.75037645  0.13304264  0.99126584  1
  O  O278  1  0.74962791  0.63082116  0.49289583  1
  O  O279  1  0.74329433  0.62970210  0.99518258  1
  O  O280  1  0.24802319  0.36324525  0.00148119  1
  O  O281  1  0.25804042  0.36824889  0.49894481  1
  O  O282  1  0.25698640  0.86824594  0.00182581  1
  O  O283  1  0.24918129  0.86933156  0.50961892  1
  O  O284  1  0.75034966  0.36885905  0.00696114  1
  O  O285  1  0.75524486  0.36889724  0.50419019  1
  O  O286  1  0.75563141  0.86957330  0.00458214  1
  O  O287  1  0.75694354  0.86780673  0.50589941  1
  O  O288  1  0.12460163  0.49419208  0.24365593  1
  O  O289  1  0.12977523  0.49614222  0.74491621  1
  O  O290  1  0.12434622  0.98820619  0.25238722  1
  O  O291  1  0.13150190  0.99949184  0.74413485  1
  O  O292  1  0.63027398  0.49444579  0.24304799  1
  O  O293  1  0.63506367  0.49828870  0.74242843  1
  O  O294  1  0.63453898  0.99140372  0.25188885  1
  O  O295  1  0.62665669  0.99312952  0.74018330  1
  O  O296  1  0.37159173  0.00135088  0.26392122  1
  O  O297  1  0.36949669  0.00542926  0.75426922  1
  O  O298  1  0.37446389  0.50632190  0.25598343  1
  O  O299  1  0.37007087  0.50477798  0.75462385  1
  O  O300  1  0.87004795  -0.00086787  0.25865074  1
  O  O301  1  0.87456780  0.00702139  0.75760589  1
  O  O302  1  0.86821593  0.50592337  0.25054761  1
  O  O303  1  0.86084248  0.50201642  0.74749021  1
  O  O304  1  0.11875376  0.36935645  0.37031739  1
  O  O305  1  0.12075826  0.36973604  0.86688830  1
  O  O306  1  0.11940251  0.86911840  0.36995399  1
  O  O307  1  0.11743468  0.86930832  0.87581587  1
  O  O308  1  0.62030922  0.36905256  0.36887501  1
  O  O309  1  0.61712932  0.36697491  0.87132883  1
  O  O310  1  0.61882625  0.87022675  0.37059903  1
  O  O311  1  0.62008282  0.86875975  0.86895730  1
  O  O312  1  0.37284683  0.13964586  0.12782681  1
  O  O313  1  0.37692771  0.13033517  0.63006293  1
  O  O314  1  0.38061088  0.62999345  0.12938402  1
  O  O315  1  0.38263688  0.62546854  0.63183319  1
  O  O316  1  0.87523726  0.13860699  0.12682629  1
  O  O317  1  0.87945961  0.12969629  0.63050125  1
  O  O318  1  0.88179404  0.62789094  0.13283853  1
  O  O319  1  0.88282043  0.63229491  0.62586894  1
  O  O320  1  0.25694725  0.25342703  0.11687575  1
  O  O321  1  0.25729088  0.25094194  0.61671933  1
  O  O322  1  0.25715561  0.75207828  0.11793772  1
  O  O323  1  0.24917578  0.75976890  0.62095372  1
  O  O324  1  0.75766434  0.25559772  0.12071878  1
  O  O325  1  0.75458376  0.25425246  0.61942868  1
  O  O326  1  0.75150908  0.75650126  0.11739909  1
  O  O327  1  0.75551129  0.75368665  0.61999980  1
  O  O328  1  0.24589437  0.24264119  0.37930518  1
  O  O329  1  0.24320667  0.24979282  0.88428006  1
  O  O330  1  0.24432232  0.74375483  0.38187223  1
  O  O331  1  0.24307307  0.74965240  0.88190972  1
  O  O332  1  0.74488965  0.24479029  0.38003544  1
  O  O333  1  0.74505468  0.24565120  0.87932000  1
  O  O334  1  0.74592292  0.74490249  0.38048187  1
  O  O335  1  0.74344751  0.74461599  0.88003253  1
  O  O336  1  0.00875976  0.12084241  0.00094714  1
  O  O337  1  -0.00000477  0.11757484  0.50778271  1
  O  O338  1  0.00511441  0.61893994  0.00630625  1
  O  O339  1  0.00619698  0.61954660  0.50518776  1
  O  O340  1  0.50199797  0.12228885  0.00405145  1
  O  O341  1  0.51014749  0.12200840  0.50128120  1
  O  O342  1  0.50594904  0.61946126  0.00461246  1
  O  O343  1  0.50093143  0.61768754  0.50552813  1
  O  O344  1  0.49516166  0.37968359  0.49274735  1
  O  O345  1  0.49869830  0.38243057  0.99205013  1
  O  O346  1  0.49984427  0.87674546  0.48704468  1
  O  O347  1  0.49176634  0.87410539  0.99145653  1
  O  O348  1  0.99487176  0.37903847  0.49601501  1
  O  O349  1  1.00025350  0.38876012  0.99925428  1
  O  O350  1  0.99536044  0.87928154  0.49655315  1
  O  O351  1  0.99494761  0.88056127  0.99553998  1
  O  O352  1  0.49567867  0.49452419  0.37933247  1
  O  O353  1  0.49552321  0.49488145  0.87887002  1
  O  O354  1  0.49252515  0.99159886  0.37511640  1
  O  O355  1  0.49149277  0.99148857  0.87230155  1
  O  O356  1  0.99896023  0.49251887  0.38313553  1
  O  O357  1  0.99964871  0.50232342  0.88662104  1
  O  O358  1  0.99456606  0.99390905  0.38265880  1
  O  O359  1  0.99440780  0.99531578  0.88126542  1
  O  O360  1  0.00396279  0.00329643  0.11708206  1
  O  O361  1  0.00436954  0.00426329  0.62168615  1
  O  O362  1  0.00576127  0.50625007  0.11760821  1
  O  O363  1  0.00578139  0.50570046  0.61971170  1
  O  O364  1  0.50209980  0.00389471  0.12506680  1
  O  O365  1  0.51295324  -0.00137481  0.62221043  1
  O  O366  1  0.50561345  0.50503019  0.11849156  1
  O  O367  1  0.50474076  0.50398119  0.61904208  1
  O  O368  1  0.23960465  0.37828779  0.24975647  1
  O  O369  1  0.24299439  0.38212917  0.74730871  1
  O  O370  1  0.23713483  0.87417100  0.25266490  1
  O  O371  1  0.24902989  0.88122311  0.74032690  1
  O  O372  1  0.74427110  0.38034291  0.24414350  1
  O  O373  1  0.74819006  0.38388040  0.74243854  1
  O  O374  1  0.74639842  0.87905856  0.24568254  1
  O  O375  1  0.74319161  0.87457390  0.74374848  1
  O  O376  1  0.25068553  0.12627041  0.26362011  1
  O  O377  1  0.25662451  0.11882132  0.75071582  1
  O  O378  1  0.25659198  0.62399661  0.25772256  1
  O  O379  1  0.25681591  0.61838955  0.75138362  1
  O  O380  1  0.75311013  0.11746694  0.25843944  1
  O  O381  1  0.75825356  0.12376822  0.75683019  1
  O  O382  1  0.75509989  0.62001192  0.25419217  1
  O  O383  1  0.74928571  0.61568679  0.75501476  1
  O  O384  1  0.36707212  0.11736500  0.37410376  1
  O  O385  1  0.37211009  0.11838378  0.86680306  1
  O  O386  1  0.37112894  0.62011509  0.36964160  1
  O  O387  1  0.37493970  0.61773713  0.86722109  1
  O  O388  1  0.86834274  0.11706120  0.37592323  1
  O  O389  1  0.87036137  0.12086310  0.86986503  1
  O  O390  1  0.86841234  0.62236351  0.36854538  1
  O  O391  1  0.86495330  0.62048431  0.87204681  1
  O  O392  1  0.12492827  0.38218586  0.13306860  1
  O  O393  1  0.12711096  0.38204243  0.63084177  1
  O  O394  1  0.12559401  0.87494903  0.13873594  1
  O  O395  1  0.13559094  0.88174879  0.62778481  1
  O  O396  1  0.62984325  0.38029189  0.12977280  1
  O  O397  1  0.63189108  0.38094669  0.62504879  1
  O  O398  1  0.63238074  0.87459311  0.13304732  1
  O  O399  1  0.63063386  0.88087030  0.62926073  1
  O  O400  1  0.11856505  0.25631346  0.25573020  1
  O  O401  1  0.12042689  0.25495621  0.75418973  1
  O  O402  1  0.11970962  0.75635648  0.25736197  1
  O  O403  1  0.11837700  0.75207682  0.75830218  1
  O  O404  1  0.62098748  0.25641195  0.25527922  1
  O  O405  1  0.61745332  0.25045145  0.75563384  1
  O  O406  1  0.62441517  0.75720574  0.25743812  1
  O  O407  1  0.61935431  0.75430194  0.75496860  1
  O  O408  1  0.38110109  0.25146232  0.24134742  1
  O  O409  1  0.37866080  0.24489480  0.74407324  1
  O  O410  1  0.37721770  0.74275872  0.24315273  1
  O  O411  1  0.38188979  0.74316329  0.74831864  1
  O  O412  1  0.88002294  0.24993661  0.24082609  1
  O  O413  1  0.88034040  0.24521342  0.74384939  1
  O  O414  1  0.88290126  0.74317103  0.25002244  1
  O  O415  1  0.88219859  0.74840367  0.74396813  1
  O  O416  1  0.38115151  0.49427708  0.49340026  1
  O  O417  1  0.38132567  0.49979811  0.99333334  1
  O  O418  1  0.37674976  0.99687838  0.48709970  1
  O  O419  1  0.37336823  0.99318907  0.99211541  1
  O  O420  1  0.88184447  0.49207574  0.49968064  1
  O  O421  1  0.88673419  0.50013875  1.00159576  1
  O  O422  1  0.88002250  0.99254831  0.49665325  1
  O  O423  1  0.88082391  0.99518861  0.99500694  1
  O  O424  1  0.12036835  0.01140608  -0.00149687  1
  O  O425  1  0.11729637  0.00151937  0.50760354  1
  O  O426  1  0.11719026  0.50668347  0.00520878  1
  O  O427  1  0.11987974  0.50470670  0.50552822  1
  O  O428  1  0.61967803  0.00146729  0.00290384  1
  O  O429  1  0.62650012  0.00433646  0.50956196  1
  O  O430  1  0.61949901  0.50566178  0.00466172  1
  O  O431  1  0.61800372  0.50066530  0.50481029  1
  O  O432  1  0.37206679  0.36424159  0.12148136  1
  O  O433  1  0.37395209  0.36770089  0.61611860  1
  O  O434  1  0.37430222  0.86740529  0.11934786  1
  O  O435  1  0.36289161  0.87580318  0.62304317  1
  O  O436  1  0.86876273  0.36493754  0.12371368  1
  O  O437  1  0.86886074  0.36779121  0.61859471  1
  O  O438  1  0.86899917  0.87250694  0.11833372  1
  O  O439  1  0.87063834  0.86911500  0.62079208  1
  O  O440  1  0.13354808  0.13071276  0.37733893  1
  O  O441  1  0.12614219  0.13310496  0.88567168  1
  O  O442  1  0.13027484  0.62963012  0.38106325  1
  O  O443  1  0.12669099  0.63371175  0.88343014  1
  O  O444  1  0.63182807  0.12998419  0.37994571  1
  O  O445  1  0.63269304  0.13168714  0.87341796  1
  O  O446  1  0.63177765  0.63171956  0.37490229  1
  O  O447  1  0.62899121  0.63091438  0.88051975  1
