# generated using pymatgen
data_V3Zn3O8
_symmetry_space_group_name_H-M   'P 1'
_cell_length_a   17.08699421
_cell_length_b   17.08707099
_cell_length_c   17.08820922
_cell_angle_alpha   90.00706056
_cell_angle_beta   89.99132418
_cell_angle_gamma   89.99359449
_symmetry_Int_Tables_number   1
_chemical_formula_structural   V3Zn3O8
_chemical_formula_sum   'V96 Zn96 O256'
_cell_volume   4989.18763876
_cell_formula_units_Z   32
loop_
 _symmetry_equiv_pos_site_id
 _symmetry_equiv_pos_as_xyz
  1  'x, y, z'
loop_
 _atom_site_type_symbol
 _atom_site_label
 _atom_site_symmetry_multiplicity
 _atom_site_fract_x
 _atom_site_fract_y
 _atom_site_fract_z
 _atom_site_occupancy
  V  V0  1  -0.00059108  0.49999728  0.49999945  1
  V  V1  1  0.75099013  0.37371261  0.62524482  1
  V  V2  1  0.62351043  0.49985875  0.12522517  1
  V  V3  1  0.75145813  0.24861315  0.00150148  1
  V  V4  1  0.12339671  0.87508973  0.24945519  1
  V  V5  1  0.87563463  -0.00079736  0.37556878  1
  V  V6  1  0.50065151  0.75056409  0.75002400  1
  V  V7  1  0.62526253  -0.00051132  0.12522778  1
  V  V8  1  -0.00102332  0.75116336  0.24984441  1
  V  V9  1  0.25041210  0.24899191  0.49898157  1
  V  V10  1  0.12479076  0.62625725  0.49911817  1
  V  V11  1  0.74928724  0.74975552  0.00002214  1
  V  V12  1  0.12622745  0.25167850  0.37435736  1
  V  V13  1  0.37467244  0.87495723  0.50000563  1
  V  V14  1  0.24965466  0.75174963  -0.00169462  1
  V  V15  1  0.24865047  0.62585190  0.87333099  1
  V  V16  1  -0.00076026  0.87504295  0.87401475  1
  V  V17  1  0.87314878  0.74972100  0.12437624  1
  V  V18  1  0.87643794  0.37443277  0.00102667  1
  V  V19  1  0.00145887  0.00119881  0.00008468  1
  V  V20  1  0.24983874  0.12452835  0.37438725  1
  V  V21  1  0.12492337  0.50011392  0.62543982  1
  V  V22  1  0.62536157  0.25031284  0.87536833  1
  V  V23  1  0.62511797  0.37386783  0.75120717  1
  V  V24  1  0.74994589  0.87544015  0.62540803  1
  V  V25  1  0.62485493  0.49906008  0.62535581  1
  V  V26  1  0.24700794  0.87770721  0.62527422  1
  V  V27  1  0.74934853  -0.00016866  0.75010770  1
  V  V28  1  0.00066219  0.62500135  0.12438953  1
  V  V29  1  0.37694276  0.24978782  0.12475007  1
  V  V30  1  0.87308353  0.75025488  0.62430789  1
  V  V31  1  0.75150322  0.25000026  0.50120377  1
  V  V32  1  0.74980902  0.49988618  0.25055871  1
  V  V33  1  0.50103276  0.37288418  0.37492642  1
  V  V34  1  0.74945286  0.87353840  0.12429125  1
  V  V35  1  0.75012716  0.12386693  0.87531315  1
  V  V36  1  0.62427335  0.62334497  0.00140291  1
  V  V37  1  0.37520148  0.25026706  0.62506716  1
  V  V38  1  0.87464223  0.87553015  0.49981319  1
  V  V39  1  0.49717357  0.74883757  0.24816007  1
  V  V40  1  0.37455373  0.12548822  0.75076368  1
  V  V41  1  0.12315804  0.62556930  0.00059626  1
  V  V42  1  0.87608494  0.12600401  0.74888249  1
  V  V43  1  0.24989035  0.37593884  0.62484640  1
  V  V44  1  0.74864771  0.62490050  0.37548982  1
  V  V45  1  0.50078857  0.25087894  0.75054177  1
  V  V46  1  0.37272993  0.50203823  0.37213544  1
  V  V47  1  0.50109016  0.12549022  0.12598400  1
  V  V48  1  0.12514521  0.87558623  0.74832432  1
  V  V49  1  0.50020295  0.62419630  0.62493716  1
  V  V50  1  0.87469934  -0.00112037  0.87483140  1
  V  V51  1  0.00144590  0.25116946  0.25079296  1
  V  V52  1  0.37514795  0.00109278  0.87410709  1
  V  V53  1  0.49965234  -0.00100862  0.50019712  1
  V  V54  1  0.49932901  0.12408880  0.62523074  1
  V  V55  1  0.25144002  0.12728844  0.87570404  1
  V  V56  1  0.87487562  0.62548637  0.25024455  1
  V  V57  1  0.62634868  0.12448090  0.00082373  1
  V  V58  1  0.37468428  0.62516946  0.74839693  1
  V  V59  1  -0.00166474  0.87528025  0.37455187  1
  V  V60  1  0.37615457  0.49879229  0.87673748  1
  V  V61  1  0.75120279  0.37487056  0.12660813  1
  V  V62  1  0.50004972  -0.00069204  -0.00072431  1
  V  V63  1  0.87547819  0.50041570  0.37605336  1
  V  V64  1  0.74972302  0.49896044  0.75052843  1
  V  V65  1  0.24879931  0.74922938  0.49726611  1
  V  V66  1  0.62390360  0.74880560  0.87494484  1
  V  V67  1  -0.00089958  0.74987270  0.74956755  1
  V  V68  1  0.00032095  0.37463673  0.87726283  1
  V  V69  1  0.87689312  0.24931360  0.12672439  1
  V  V70  1  0.25086156  0.37724118  0.12703989  1
  V  V71  1  0.24883818  0.50088500  0.74867037  1
  V  V72  1  -0.00118224  0.62450470  0.62494223  1
  V  V73  1  0.12433863  0.75012336  0.87359197  1
  V  V74  1  0.62548700  0.24900323  0.37474438  1
  V  V75  1  0.37446566  0.74996178  0.12379963  1
  V  V76  1  0.87689598  0.12525330  0.25024613  1
  V  V77  1  0.25227813  0.25104053  0.00028437  1
  V  V78  1  0.37601615  0.37425290  0.49975266  1
  V  V79  1  0.00027086  0.24923933  0.74928226  1
  V  V80  1  0.24845375  0.87632448  0.12410138  1
  V  V81  1  0.62377554  0.87402015  0.25052132  1
  V  V82  1  0.87419092  0.62442714  0.75027597  1
  V  V83  1  0.12640675  0.25091941  0.87699078  1
  V  V84  1  0.87560550  0.49891975  0.87679326  1
  V  V85  1  0.62318280  0.74887408  0.37455339  1
  V  V86  1  0.24986963  0.00050155  0.24924035  1
  V  V87  1  0.37479742  0.87573668  -0.00279199  1
  V  V88  1  0.62474941  0.62450555  0.49929027  1
  V  V89  1  0.75066387  0.12489273  0.37559468  1
  V  V90  1  0.75022853  -0.00064685  0.25018307  1
  V  V91  1  0.50138161  0.24834058  0.25019086  1
  V  V92  1  0.00140092  0.37633880  0.37503840  1
  V  V93  1  0.50013133  0.49909007  0.49982055  1
  V  V94  1  0.62501001  -0.00070770  0.62652770  1
  V  V95  1  0.74966507  0.62427096  0.87555347  1
  Zn  Zn96  1  0.12410988  0.00274279  0.12336373  1
  Zn  Zn97  1  0.62604247  0.37467568  0.25062078  1
  Zn  Zn98  1  0.24813992  0.00294699  0.74971005  1
  Zn  Zn99  1  0.62483170  0.87519479  0.75172558  1
  Zn  Zn100  1  0.12444740  0.37647560  0.75158551  1
  Zn  Zn101  1  0.12695209  0.37878198  0.24986875  1
  Zn  Zn102  1  0.12507595  0.50080083  0.12641668  1
  Zn  Zn103  1  0.00235115  0.00315973  0.50210496  1
  Zn  Zn104  1  0.50029362  0.87546005  0.87361881  1
  Zn  Zn105  1  0.24774990  0.62462070  0.37198815  1
  Zn  Zn106  1  0.87422535  0.87451152  -0.00088138  1
  Zn  Zn107  1  0.37636634  0.12272095  0.24957834  1
  Zn  Zn108  1  0.12086127  0.00458749  0.62583971  1
  Zn  Zn109  1  0.00333907  0.12526982  0.12510064  1
  Zn  Zn110  1  0.62560116  0.12320542  0.50060598  1
  Zn  Zn111  1  0.37114172  0.62584471  0.24825046  1
  Zn  Zn112  1  0.37874543  0.37641478  0.00072642  1
  Zn  Zn113  1  0.00185276  0.49927123  0.00231318  1
  Zn  Zn114  1  0.37585162  0.00044510  0.37396912  1
  Zn  Zn115  1  0.49500492  0.62172070  0.12315851  1
  Zn  Zn116  1  0.50057996  0.37572913  0.87686290  1
  Zn  Zn117  1  0.49906704  0.87520346  0.37501693  1
  Zn  Zn118  1  0.24779384  0.50530946  0.24828231  1
  Zn  Zn119  1  0.37540036  0.74860661  0.62428328  1
  Zn  Zn120  1  0.87642141  0.37567485  0.50233720  1
  Zn  Zn121  1  0.12699416  0.12503935  0.00215378  1
  Zn  Zn122  1  0.87697330  0.25058518  0.62457577  1
  Zn  Zn123  1  0.12364515  0.12343853  0.50443988  1
  Zn  Zn124  1  0.12319546  0.74895935  0.37367009  1
  Zn  Zn125  1  0.74756318  0.75058072  0.50033306  1
  Zn  Zn126  1  0.00163701  0.12476305  0.62120338  1
  Zn  Zn127  1  0.50025323  0.49893746  -0.00047629  1
  Zn  Zn128  1  0.18554760  0.18803445  0.18594937  1
  Zn  Zn129  1  0.18621480  0.18882009  0.68865267  1
  Zn  Zn130  1  0.18749041  0.68800601  0.18821297  1
  Zn  Zn131  1  0.18709584  0.68898059  0.68450756  1
  Zn  Zn132  1  0.68831797  0.18703369  0.18907461  1
  Zn  Zn133  1  0.68695728  0.18599853  0.68665236  1
  Zn  Zn134  1  0.68599344  0.68603667  0.18807542  1
  Zn  Zn135  1  0.68721513  0.68703658  0.68714853  1
  Zn  Zn136  1  0.31521350  0.31210545  0.30957587  1
  Zn  Zn137  1  0.31206253  0.31443646  0.81129001  1
  Zn  Zn138  1  0.31233981  0.81535498  0.31293652  1
  Zn  Zn139  1  0.31370135  0.81303979  0.81132200  1
  Zn  Zn140  1  0.81482672  0.31400112  0.31405714  1
  Zn  Zn141  1  0.81314091  0.31211345  0.81376593  1
  Zn  Zn142  1  0.81094990  0.81170536  0.31302206  1
  Zn  Zn143  1  0.81174332  0.81297781  0.81208056  1
  Zn  Zn144  1  0.18718317  0.43708089  0.43859122  1
  Zn  Zn145  1  0.18785014  0.43757552  0.94097497  1
  Zn  Zn146  1  0.18214810  0.93910113  0.43652955  1
  Zn  Zn147  1  0.18720175  0.93921131  0.93445989  1
  Zn  Zn148  1  0.68751107  0.43591981  0.43762120  1
  Zn  Zn149  1  0.68908961  0.43567680  0.93925764  1
  Zn  Zn150  1  0.68702041  0.93561174  0.43768364  1
  Zn  Zn151  1  0.68561854  0.93465427  0.93629014  1
  Zn  Zn152  1  0.31412082  0.06396758  0.06216745  1
  Zn  Zn153  1  0.31129165  0.06245462  0.56237515  1
  Zn  Zn154  1  0.31045824  0.56451518  0.06135210  1
  Zn  Zn155  1  0.31315465  0.56280413  0.56099067  1
  Zn  Zn156  1  0.81578161  0.06164713  0.06357213  1
  Zn  Zn157  1  0.81561319  0.06302115  0.56322968  1
  Zn  Zn158  1  0.81248797  0.56188642  0.06267022  1
  Zn  Zn159  1  0.81142504  0.56215843  0.56181150  1
  Zn  Zn160  1  0.43786827  0.43430082  0.18936921  1
  Zn  Zn161  1  0.43726855  0.43700605  0.68929403  1
  Zn  Zn162  1  0.43596023  0.93598521  0.18553624  1
  Zn  Zn163  1  0.43494879  0.93688689  0.68707689  1
  Zn  Zn164  1  0.93969327  0.43856929  0.18833949  1
  Zn  Zn165  1  0.93691601  0.43545323  0.68865532  1
  Zn  Zn166  1  0.93617140  0.93699373  0.18548581  1
  Zn  Zn167  1  0.93779226  0.93913858  0.68593360  1
  Zn  Zn168  1  0.06307841  0.06287254  0.31412879  1
  Zn  Zn169  1  0.06553315  0.06309669  0.81300075  1
  Zn  Zn170  1  0.06525674  0.56252252  0.31130567  1
  Zn  Zn171  1  0.06133391  0.56155471  0.81332337  1
  Zn  Zn172  1  0.56379952  0.06260800  0.31432563  1
  Zn  Zn173  1  0.56209271  0.06349465  0.81259185  1
  Zn  Zn174  1  0.56005829  0.56301141  0.31097376  1
  Zn  Zn175  1  0.56215688  0.56316812  0.81245415  1
  Zn  Zn176  1  0.43631112  0.18530863  0.43654714  1
  Zn  Zn177  1  0.43844294  0.18838479  0.93875169  1
  Zn  Zn178  1  0.43730149  0.68724211  0.43660200  1
  Zn  Zn179  1  0.43808192  0.68446561  0.93770887  1
  Zn  Zn180  1  0.93877059  0.18813786  0.43754468  1
  Zn  Zn181  1  0.93819958  0.18601527  0.93638165  1
  Zn  Zn182  1  0.93618301  0.68916873  0.43797603  1
  Zn  Zn183  1  0.93680673  0.68746814  0.93832866  1
  Zn  Zn184  1  0.06520047  0.31193519  0.06353293  1
  Zn  Zn185  1  0.06501361  0.31250248  0.56160117  1
  Zn  Zn186  1  0.06195723  0.81410719  0.06260571  1
  Zn  Zn187  1  0.06123927  0.81391553  0.56079454  1
  Zn  Zn188  1  0.56178021  0.31537168  0.06084629  1
  Zn  Zn189  1  0.56438515  0.31131495  0.56227178  1
  Zn  Zn190  1  0.56143595  0.81245264  0.06188215  1
  Zn  Zn191  1  0.56434930  0.81243335  0.56446293  1
  O  O192  1  0.12090332  0.12076099  0.12012776  1
  O  O193  1  0.12268295  0.12357628  0.62393124  1
  O  O194  1  0.11796269  0.62813363  0.11697579  1
  O  O195  1  0.11803605  0.62013762  0.61952051  1
  O  O196  1  0.62173481  0.11864943  0.11998084  1
  O  O197  1  0.61715774  0.11746413  0.62317113  1
  O  O198  1  0.62593506  0.61383315  0.12003251  1
  O  O199  1  0.62021223  0.61769612  0.61988366  1
  O  O200  1  0.38136518  0.38112191  0.38082554  1
  O  O201  1  0.37505197  0.38847554  0.87411261  1
  O  O202  1  0.37587706  0.87793180  0.38945418  1
  O  O203  1  0.37632174  0.88209160  0.88010091  1
  O  O204  1  0.88229563  0.38386482  0.37762539  1
  O  O205  1  0.87922602  0.37951115  0.88188904  1
  O  O206  1  0.87772102  0.87988274  0.37918670  1
  O  O207  1  0.88117421  0.88093896  0.87526923  1
  O  O208  1  0.24992828  0.00738285  0.36605005  1
  O  O209  1  0.25812632  0.00803747  0.87347764  1
  O  O210  1  0.26305213  0.49877101  0.37650447  1
  O  O211  1  0.25641457  0.50656866  0.86893466  1
  O  O212  1  0.75444391  0.00427614  0.36903353  1
  O  O213  1  0.75390497  0.00480655  0.87069034  1
  O  O214  1  0.75437283  0.50525218  0.37034082  1
  O  O215  1  0.75530706  0.50470951  0.86968457  1
  O  O216  1  0.25163337  0.48894984  0.12483454  1
  O  O217  1  0.24515184  0.49591846  0.62870328  1
  O  O218  1  0.25041945  0.99479644  0.13339146  1
  O  O219  1  0.25002768  0.98654633  0.62662330  1
  O  O220  1  0.74359755  0.49511005  0.13102429  1
  O  O221  1  0.74402296  0.49469191  0.63087236  1
  O  O222  1  0.74486334  0.99453513  0.13046083  1
  O  O223  1  0.74512800  0.99579189  0.63074482  1
  O  O224  1  0.00073685  0.36855318  0.25742021  1
  O  O225  1  -0.00046550  0.36557761  0.75850987  1
  O  O226  1  0.00310572  0.87023848  0.25374433  1
  O  O227  1  0.00443480  0.86814466  0.75469987  1
  O  O228  1  0.50330473  0.36602383  0.25779617  1
  O  O229  1  0.50757998  0.36829836  0.75132587  1
  O  O230  1  0.50498974  0.86595323  0.25043132  1
  O  O231  1  0.50004976  0.86198014  0.74974807  1
  O  O232  1  0.50017756  0.12929184  0.24370995  1
  O  O233  1  0.49441084  0.13129279  0.74427914  1
  O  O234  1  0.49700953  0.63844598  0.24693896  1
  O  O235  1  0.49538243  0.63204062  0.74434168  1
  O  O236  1  0.99340929  0.13230492  0.25101117  1
  O  O237  1  0.99334021  0.13621440  0.75496855  1
  O  O238  1  0.99346699  0.63171018  0.24487708  1
  O  O239  1  0.99361946  0.62995585  0.74478133  1
  O  O240  1  0.37024084  0.25177952  0.00694609  1
  O  O241  1  0.37102278  0.25520981  0.50543712  1
  O  O242  1  0.36896377  0.75551018  0.00237669  1
  O  O243  1  0.36829833  0.75801048  0.50166890  1
  O  O244  1  0.87002545  0.25396187  0.00555544  1
  O  O245  1  0.86204973  0.25276621  0.50104280  1
  O  O246  1  0.86667293  0.75075843  0.00604895  1
  O  O247  1  0.87105928  0.75590621  0.50725295  1
  O  O248  1  0.13471632  0.24994243  0.49176834  1
  O  O249  1  0.13362566  0.24867626  0.99321887  1
  O  O250  1  0.13342047  0.74521323  0.49944369  1
  O  O251  1  0.13013471  0.74690432  0.99237499  1
  O  O252  1  0.63502059  0.24709871  0.49463853  1
  O  O253  1  0.63218371  0.24382205  0.99614364  1
  O  O254  1  0.62402633  0.74235739  0.49338226  1
  O  O255  1  0.62983642  0.74360547  0.99539634  1
  O  O256  1  0.49807006  0.24462503  0.12990866  1
  O  O257  1  0.49497524  0.24455949  0.62967201  1
  O  O258  1  0.49365856  0.75040347  0.13362055  1
  O  O259  1  0.50030180  0.74273514  0.63432875  1
  O  O260  1  0.99334720  0.24985949  0.13201479  1
  O  O261  1  0.99956609  0.25213730  0.63912103  1
  O  O262  1  0.99263830  0.74591897  0.13019318  1
  O  O263  1  0.99339670  0.74414596  0.63044734  1
  O  O264  1  0.00588906  0.25709016  0.37015284  1
  O  O265  1  0.00510780  0.25532306  0.86910995  1
  O  O266  1  -0.00230292  0.75706678  0.36667438  1
  O  O267  1  0.00416126  0.75459756  0.86876729  1
  O  O268  1  0.50528894  0.25255338  0.37131085  1
  O  O269  1  0.50789117  0.24997664  0.86808104  1
  O  O270  1  0.50426811  0.75159009  0.36514136  1
  O  O271  1  0.50491263  0.74734895  0.86449248  1
  O  O272  1  0.25171934  0.13091120  0.48963380  1
  O  O273  1  0.25182538  0.13305126  0.99281978  1
  O  O274  1  0.24473779  0.63512472  0.50099563  1
  O  O275  1  0.24352025  0.63344610  0.99259732  1
  O  O276  1  0.74974674  0.13381180  0.49455465  1
  O  O277  1  0.74595212  0.12891907  0.99556770  1
  O  O278  1  0.74198523  0.62555075  0.49367396  1
  O  O279  1  0.74452269  0.63023167  0.99451890  1
  O  O280  1  0.25455069  0.36889070  0.00929263  1
  O  O281  1  0.25718003  0.36916474  0.50555986  1
  O  O282  1  0.25462357  0.87064012  0.00320886  1
  O  O283  1  0.25561121  0.86877874  0.50635254  1
  O  O284  1  0.75670097  0.36747991  0.00650075  1
  O  O285  1  0.74993297  0.36581231  0.50606409  1
  O  O286  1  0.74981868  0.86760707  0.00647984  1
  O  O287  1  0.75585871  0.87312373  0.50724358  1
  O  O288  1  0.12989229  0.49669221  0.24531645  1
  O  O289  1  0.13100402  0.50028419  0.74325825  1
  O  O290  1  0.13546904  0.99429828  0.24906261  1
  O  O291  1  0.12915328  0.98985980  0.74959979  1
  O  O292  1  0.63092248  0.49969483  0.24142267  1
  O  O293  1  0.63061155  0.49476836  0.74504036  1
  O  O294  1  0.63045477  0.99427048  0.24476362  1
  O  O295  1  0.63105151  0.99945619  0.74467129  1
  O  O296  1  0.36293787  -0.00149467  0.25200393  1
  O  O297  1  0.37392835  0.00748198  0.75579101  1
  O  O298  1  0.37623749  0.50122508  0.26215451  1
  O  O299  1  0.36885696  0.50613555  0.75609468  1
  O  O300  1  0.86846684  0.00450579  0.25489127  1
  O  O301  1  0.86894581  0.00639950  0.75635557  1
  O  O302  1  0.86947333  0.50688870  0.25604043  1
  O  O303  1  0.86894034  0.50518920  0.75616839  1
  O  O304  1  0.11921617  0.36934235  0.37425621  1
  O  O305  1  0.11896562  0.36940135  0.87458091  1
  O  O306  1  0.11656012  0.87230173  0.36687410  1
  O  O307  1  0.11998366  0.86815057  0.86806569  1
  O  O308  1  0.61833864  0.36794002  0.37416964  1
  O  O309  1  0.62676011  0.36793909  0.86836864  1
  O  O310  1  0.62264955  0.86760381  0.36802284  1
  O  O311  1  0.62080129  0.86526303  0.87168826  1
  O  O312  1  0.38422688  0.13117412  0.12625332  1
  O  O313  1  0.37938442  0.13089754  0.63042704  1
  O  O314  1  0.37588784  0.63470114  0.12615253  1
  O  O315  1  0.38236009  0.62540691  0.63033325  1
  O  O316  1  0.87683157  0.13175606  0.13288553  1
  O  O317  1  0.87652096  0.12973308  0.63644981  1
  O  O318  1  0.87875912  0.63056101  0.13100757  1
  O  O319  1  0.87910248  0.62913838  0.63108197  1
  O  O320  1  0.25713827  0.25654224  0.12041569  1
  O  O321  1  0.25686849  0.25608066  0.61967897  1
  O  O322  1  0.25486951  0.75752691  0.11759702  1
  O  O323  1  0.25170701  0.75884503  0.61420499  1
  O  O324  1  0.75623873  0.25461211  0.12097265  1
  O  O325  1  0.74893624  0.25478188  0.61646382  1
  O  O326  1  0.75321245  0.75371289  0.12019532  1
  O  O327  1  0.75555728  0.75593335  0.62499108  1
  O  O328  1  0.24775168  0.24314255  0.37825391  1
  O  O329  1  0.24689213  0.24726613  0.88013779  1
  O  O330  1  0.24898751  0.75183868  0.38858261  1
  O  O331  1  0.24434753  0.74524832  0.87816307  1
  O  O332  1  0.74600237  0.24567116  0.38253147  1
  O  O333  1  0.74515020  0.24344534  0.88138497  1
  O  O334  1  0.74134266  0.74214327  0.37507679  1
  O  O335  1  0.74465099  0.74322558  0.87918330  1
  O  O336  1  0.00062406  0.11244833  -0.00107122  1
  O  O337  1  0.00381381  0.12419753  0.50155002  1
  O  O338  1  0.00557882  0.62583130  0.00618042  1
  O  O339  1  0.00410886  0.62051504  0.50642124  1
  O  O340  1  0.50767236  0.11943428  0.00606691  1
  O  O341  1  0.49817424  0.11392469  0.50641116  1
  O  O342  1  0.50896124  0.62085458  0.00338365  1
  O  O343  1  0.50524631  0.61882020  0.50534945  1
  O  O344  1  0.49536168  0.37935275  0.49538910  1
  O  O345  1  0.49685908  0.38088034  0.99421087  1
  O  O346  1  0.49113747  0.88223216  0.50298715  1
  O  O347  1  0.49302963  0.88140536  0.99828106  1
  O  O348  1  0.99911380  0.38237416  0.49416209  1
  O  O349  1  0.99318912  0.37500592  0.99490453  1
  O  O350  1  0.99110338  0.87428528  0.49187771  1
  O  O351  1  0.99805394  0.88307337  0.99210887  1
  O  O352  1  0.49350676  0.49411421  0.38054426  1
  O  O353  1  0.48798310  0.50043611  0.87325381  1
  O  O354  1  0.49808024  0.99773507  0.38688495  1
  O  O355  1  0.49393725  0.99999572  0.88172925  1
  O  O356  1  0.99486659  0.49670879  0.38091062  1
  O  O357  1  0.99256039  0.49336010  0.87670122  1
  O  O358  1  0.99157061  0.99209761  0.37329880  1
  O  O359  1  0.99470041  0.99451168  0.88062985  1
  O  O360  1  -0.00057249  -0.00013019  0.11250014  1
  O  O361  1  0.00171952  0.00453241  0.62231223  1
  O  O362  1  0.00105507  0.50973049  0.12259231  1
  O  O363  1  0.00422234  0.50534375  0.62098120  1
  O  O364  1  0.50595554  0.00458873  0.11960049  1
  O  O365  1  0.50386156  0.00395243  0.61849386  1
  O  O366  1  0.51232962  0.49962571  0.12586203  1
  O  O367  1  0.50549697  0.50408241  0.62018964  1
  O  O368  1  0.25128173  0.37581136  0.23788963  1
  O  O369  1  0.24857233  0.38276430  0.74180346  1
  O  O370  1  0.24447519  0.88217282  0.24528228  1
  O  O371  1  0.24513577  0.87209286  0.73907823  1
  O  O372  1  0.74953489  0.38195001  0.24448780  1
  O  O373  1  0.74485046  0.37959265  0.74571552  1
  O  O374  1  0.74360567  0.87964378  0.24412485  1
  O  O375  1  0.74908900  0.88232716  0.74347032  1
  O  O376  1  0.25127802  0.11650757  0.25659730  1
  O  O377  1  0.25851664  0.12675440  0.75728647  1
  O  O378  1  0.25435820  0.62481261  0.25525826  1
  O  O379  1  0.25446149  0.62133518  0.75344592  1
  O  O380  1  0.75602324  0.11880749  0.25572301  1
  O  O381  1  0.75539020  0.12007251  0.75625361  1
  O  O382  1  0.75506508  0.61958786  0.25573775  1
  O  O383  1  0.75469607  0.61843578  0.75554069  1
  O  O384  1  0.36231224  0.12239872  0.37171764  1
  O  O385  1  0.37139792  0.12119824  0.86964311  1
  O  O386  1  0.37372650  0.61255035  0.37611557  1
  O  O387  1  0.36790970  0.61831248  0.86841132  1
  O  O388  1  0.86897563  0.11940735  0.36881292  1
  O  O389  1  0.86821569  0.11907078  0.86889231  1
  O  O390  1  0.86900577  0.62035391  0.36953581  1
  O  O391  1  0.86913684  0.61977477  0.86949189  1
  O  O392  1  0.13840602  0.37580889  0.12578452  1
  O  O393  1  0.13244373  0.38302000  0.62633052  1
  O  O394  1  0.13160170  0.87775869  0.13137558  1
  O  O395  1  0.13403084  0.87247865  0.63046716  1
  O  O396  1  0.63301866  0.38420827  0.12571011  1
  O  O397  1  0.63045498  0.38021239  0.63128622  1
  O  O398  1  0.63008184  0.88027998  0.13045058  1
  O  O399  1  0.63182567  0.88157109  0.62818439  1
  O  O400  1  0.11909030  0.25297281  0.25731704  1
  O  O401  1  0.11559648  0.25343430  0.75832320  1
  O  O402  1  0.11683474  0.75757242  0.25081623  1
  O  O403  1  0.11826881  0.75394940  0.75440814  1
  O  O404  1  0.61994883  0.25104112  0.25696274  1
  O  O405  1  0.62074479  0.25407474  0.75537661  1
  O  O406  1  0.61603589  0.75413599  0.25332870  1
  O  O407  1  0.61510942  0.74766959  0.75573186  1
  O  O408  1  0.38440492  0.24648867  0.24298724  1
  O  O409  1  0.38110807  0.24590491  0.74415782  1
  O  O410  1  0.38322748  0.75405795  0.24404350  1
  O  O411  1  0.38439909  0.74339445  0.74856242  1
  O  O412  1  0.88059885  0.24476132  0.24639986  1
  O  O413  1  0.88406285  0.24375922  0.75268254  1
  O  O414  1  0.87819659  0.74424727  0.24396947  1
  O  O415  1  0.87966356  0.74356441  0.74480157  1
  O  O416  1  0.38134925  0.49373073  0.49334271  1
  O  O417  1  0.37515433  0.50269449  0.98641284  1
  O  O418  1  0.38325688  0.99103955  0.50148693  1
  O  O419  1  0.38109306  0.99540448  0.99432421  1
  O  O420  1  0.88160686  0.50028400  0.49390002  1
  O  O421  1  0.87494569  0.49257731  0.99385962  1
  O  O422  1  0.87458324  0.99276529  0.49180809  1
  O  O423  1  0.88300444  0.99750100  0.99287727  1
  O  O424  1  0.11358016  0.00083423  -0.00136453  1
  O  O425  1  0.12190732  0.00344003  0.50492992  1
  O  O426  1  0.12300299  0.51101008  0.00224979  1
  O  O427  1  0.11945162  0.50638556  0.50635182  1
  O  O428  1  0.62051695  0.00489445  0.00552179  1
  O  O429  1  0.61445120  -0.00076652  0.50630007  1
  O  O430  1  0.62860886  0.50511378  0.01025839  1
  O  O431  1  0.61918453  0.50417516  0.50559873  1
  O  O432  1  0.36828254  0.36840180  0.12352601  1
  O  O433  1  0.37060470  0.37009568  0.61941086  1
  O  O434  1  0.36786532  0.86991146  0.11646107  1
  O  O435  1  0.36596325  0.87213486  0.61576976  1
  O  O436  1  0.87013798  0.36944888  0.12072817  1
  O  O437  1  0.86607630  0.37213091  0.62363208  1
  O  O438  1  0.86624357  0.86724041  0.12348504  1
  O  O439  1  0.86909784  0.86915508  0.62025670  1
  O  O440  1  0.13820666  0.13211556  0.37397064  1
  O  O441  1  0.13407040  0.13325023  0.87660702  1
  O  O442  1  0.12682787  0.62856258  0.38464863  1
  O  O443  1  0.12923054  0.63163062  0.87880556  1
  O  O444  1  0.63333954  0.13047047  0.37792886  1
  O  O445  1  0.63108329  0.13019225  0.88142026  1
  O  O446  1  0.62876614  0.62870424  0.37967940  1
  O  O447  1  0.63143848  0.62837277  0.88050294  1
