# generated using pymatgen
data_V3Zn3O8
_symmetry_space_group_name_H-M   'P 1'
_cell_length_a   17.08925104
_cell_length_b   17.08867945
_cell_length_c   17.08809822
_cell_angle_alpha   90.01024348
_cell_angle_beta   89.99132124
_cell_angle_gamma   89.99763184
_symmetry_Int_Tables_number   1
_chemical_formula_structural   V3Zn3O8
_chemical_formula_sum   'V96 Zn96 O256'
_cell_volume   4990.28388526
_cell_formula_units_Z   32
loop_
 _symmetry_equiv_pos_site_id
 _symmetry_equiv_pos_as_xyz
  1  'x, y, z'
loop_
 _atom_site_type_symbol
 _atom_site_label
 _atom_site_symmetry_multiplicity
 _atom_site_fract_x
 _atom_site_fract_y
 _atom_site_fract_z
 _atom_site_occupancy
  V  V0  1  0.24915617  0.74892593  -0.00010214  1
  V  V1  1  0.24888568  0.12514753  0.37546790  1
  V  V2  1  0.12506978  0.87517797  0.24977592  1
  V  V3  1  0.37510170  0.00036800  0.37456941  1
  V  V4  1  0.25005362  -0.00034645  0.25008092  1
  V  V5  1  0.37472432  0.74918820  0.12482035  1
  V  V6  1  0.37493824  0.12508154  0.25006146  1
  V  V7  1  0.12436536  0.74967559  0.87425517  1
  V  V8  1  0.75001775  0.25076756  0.49986699  1
  V  V9  1  0.62508102  0.37426942  0.74936248  1
  V  V10  1  0.87775033  0.50008796  0.37666398  1
  V  V11  1  0.50038485  0.50059982  -0.00112956  1
  V  V12  1  0.37290291  0.25020835  0.62439531  1
  V  V13  1  0.00012413  0.62609293  0.12504573  1
  V  V14  1  0.24964118  0.87470149  0.12486929  1
  V  V15  1  0.25104877  0.49930509  0.25082196  1
  V  V16  1  0.00040087  0.75094044  0.25048528  1
  V  V17  1  0.62515850  0.75042294  0.87420457  1
  V  V18  1  0.12627972  0.87461158  0.75045873  1
  V  V19  1  0.87515971  0.62641358  0.25104673  1
  V  V20  1  0.87156453  0.37503814  0.00323146  1
  V  V21  1  0.50078668  -0.00035848  0.00078131  1
  V  V22  1  0.62575431  -0.00098163  0.62481619  1
  V  V23  1  0.12420540  0.12465324  0.00086348  1
  V  V24  1  0.87497439  0.75075919  0.12447647  1
  V  V25  1  0.37547142  0.62429210  0.74956064  1
  V  V26  1  0.50085491  0.87515235  0.37394782  1
  V  V27  1  0.62454343  0.00004445  0.12420480  1
  V  V28  1  0.12466264  0.00021351  0.62609626  1
  V  V29  1  0.62473028  0.87425891  0.25050278  1
  V  V30  1  -0.00001513  0.74875025  0.74942490  1
  V  V31  1  0.87391299  0.00151017  0.87537141  1
  V  V32  1  0.12497870  0.62418583  -0.00010296  1
  V  V33  1  0.87334759  0.25162563  0.12530997  1
  V  V34  1  0.37440311  0.87466770  0.49981860  1
  V  V35  1  0.87522980  0.24935523  0.62590183  1
  V  V36  1  0.75067094  0.12580567  0.37472888  1
  V  V37  1  0.62467553  0.62514468  -0.00098514  1
  V  V38  1  0.87534985  0.75041145  0.62490198  1
  V  V39  1  0.62545734  0.12522755  0.49921991  1
  V  V40  1  0.74946555  0.74949592  -0.00158333  1
  V  V41  1  0.74750696  0.50010699  0.24723195  1
  V  V42  1  0.00024816  0.25148819  0.25084295  1
  V  V43  1  0.00106873  0.00131064  0.50137062  1
  V  V44  1  0.87512363  0.37659483  0.49925543  1
  V  V45  1  0.24903502  0.49805227  0.75027517  1
  V  V46  1  0.50003992  0.74967382  0.75025802  1
  V  V47  1  0.37675703  0.37508644  0.49856895  1
  V  V48  1  0.25000084  0.62367664  0.87497559  1
  V  V49  1  0.25044417  0.24964385  0.00058141  1
  V  V50  1  0.74991670  0.62732928  0.37613376  1
  V  V51  1  0.74972126  0.87468764  0.12525792  1
  V  V52  1  0.37581646  0.12410071  0.75031378  1
  V  V53  1  0.25018709  0.12400270  0.87578116  1
  V  V54  1  0.87525252  0.12622867  0.24966667  1
  V  V55  1  0.75045833  -0.00021894  0.24990287  1
  V  V56  1  0.00007174  0.12518739  0.12473471  1
  V  V57  1  0.50072780  0.37449905  0.87359666  1
  V  V58  1  0.37497272  0.37404020  -0.00063198  1
  V  V59  1  0.50034082  0.12443507  0.62459655  1
  V  V60  1  0.24949228  0.74945259  0.50026618  1
  V  V61  1  -0.00095108  0.12471613  0.62605487  1
  V  V62  1  0.37474229  0.49924423  0.87440692  1
  V  V63  1  -0.00062259  0.24910570  0.75046323  1
  V  V64  1  0.37571223  -0.00077159  0.87524965  1
  V  V65  1  0.74975704  0.37505013  0.62465250  1
  V  V66  1  0.62545177  0.75109297  0.37488520  1
  V  V67  1  0.00048579  0.87597796  0.37510483  1
  V  V68  1  0.49962009  0.62479272  0.12303628  1
  V  V69  1  0.37499720  0.62416698  0.25122174  1
  V  V70  1  0.12426238  0.49966038  0.62368942  1
  V  V71  1  0.74909131  0.00066918  0.74968701  1
  V  V72  1  -0.00065158  0.50035961  -0.00022810  1
  V  V73  1  0.37485694  0.87422289  0.00036160  1
  V  V74  1  0.87598610  0.00055929  0.37541767  1
  V  V75  1  0.87507897  0.87554981  -0.00071886  1
  V  V76  1  0.87549195  0.87486140  0.50099573  1
  V  V77  1  0.62395508  0.25202861  0.37330981  1
  V  V78  1  0.12464506  0.49930764  0.12531286  1
  V  V79  1  0.12409019  0.00061897  0.12420745  1
  V  V80  1  0.87519262  0.50065911  0.87391574  1
  V  V81  1  0.75048860  0.50109217  0.74859525  1
  V  V82  1  0.50037714  0.12381005  0.12501394  1
  V  V83  1  0.50039308  0.25101468  0.25118928  1
  V  V84  1  0.50031225  0.87411658  0.87436918  1
  V  V85  1  0.12596808  0.74927656  0.37589733  1
  V  V86  1  0.12492393  0.37485374  0.25003584  1
  V  V87  1  0.12521400  0.24923186  0.37568280  1
  V  V88  1  0.12361732  0.24927087  0.87534939  1
  V  V89  1  0.62453804  0.62529386  0.50023103  1
  V  V90  1  0.24982908  -0.00135824  0.74979579  1
  V  V91  1  0.49924425  0.62463559  0.62379638  1
  V  V92  1  0.12500064  0.37348395  0.75086653  1
  V  V93  1  0.50139682  0.25055752  0.75091103  1
  V  V94  1  0.37513788  0.24945108  0.12456747  1
  V  V95  1  0.50045186  -0.00007374  0.49917388  1
  Zn  Zn96  1  0.87571098  0.62483601  0.74810993  1
  Zn  Zn97  1  0.00189543  0.37488904  0.37714667  1
  Zn  Zn98  1  0.75133785  0.75208327  0.50168658  1
  Zn  Zn99  1  -0.00022274  0.37341784  0.87614945  1
  Zn  Zn100  1  0.62559939  0.12915133  -0.00084533  1
  Zn  Zn101  1  0.37666002  0.49883501  0.37633626  1
  Zn  Zn102  1  0.00347335  0.50031642  0.50047802  1
  Zn  Zn103  1  0.74783767  0.87446710  0.62400273  1
  Zn  Zn104  1  0.25004172  0.62311970  0.37705636  1
  Zn  Zn105  1  0.62463546  0.49931117  0.62274756  1
  Zn  Zn106  1  -0.00050370  -0.00083949  -0.00157937  1
  Zn  Zn107  1  0.62192731  0.37754351  0.24945155  1
  Zn  Zn108  1  0.74385842  0.37310934  0.12597070  1
  Zn  Zn109  1  0.50113666  0.37854968  0.37360131  1
  Zn  Zn110  1  0.12586507  0.62225585  0.49839402  1
  Zn  Zn111  1  0.49996089  0.74938223  0.24915540  1
  Zn  Zn112  1  0.25017447  0.37359319  0.12425783  1
  Zn  Zn113  1  0.74646549  0.24765966  0.00057715  1
  Zn  Zn114  1  0.49879847  0.49979648  0.49695421  1
  Zn  Zn115  1  0.24783927  0.24858380  0.50048191  1
  Zn  Zn116  1  0.25144332  0.87469885  0.62567768  1
  Zn  Zn117  1  0.62817939  0.24914573  0.87848696  1
  Zn  Zn118  1  0.62445501  0.87421858  0.74775143  1
  Zn  Zn119  1  0.37314340  0.75139673  0.62550012  1
  Zn  Zn120  1  0.00039705  0.87608976  0.87668563  1
  Zn  Zn121  1  0.74632362  0.12834979  0.87848683  1
  Zn  Zn122  1  0.87298731  0.12674525  0.75267562  1
  Zn  Zn123  1  0.12627434  0.12646289  0.50130777  1
  Zn  Zn124  1  0.24946376  0.37346858  0.62444084  1
  Zn  Zn125  1  0.00083334  0.62346748  0.62163913  1
  Zn  Zn126  1  0.74996065  0.62710234  0.87284596  1
  Zn  Zn127  1  0.62496052  0.49999966  0.12395226  1
  Zn  Zn128  1  0.18772834  0.18781814  0.18815606  1
  Zn  Zn129  1  0.18617960  0.18497324  0.68935906  1
  Zn  Zn130  1  0.18772675  0.68676554  0.18780361  1
  Zn  Zn131  1  0.18796746  0.68549220  0.68608327  1
  Zn  Zn132  1  0.68680382  0.18852387  0.18578358  1
  Zn  Zn133  1  0.68779316  0.18647977  0.68888569  1
  Zn  Zn134  1  0.68638738  0.68688024  0.18684429  1
  Zn  Zn135  1  0.68771430  0.68754222  0.68709900  1
  Zn  Zn136  1  0.31193976  0.31220565  0.31337547  1
  Zn  Zn137  1  0.31188313  0.31186685  0.81245753  1
  Zn  Zn138  1  0.31250575  0.81165970  0.31369855  1
  Zn  Zn139  1  0.31312209  0.81122809  0.81259907  1
  Zn  Zn140  1  0.81099605  0.31496069  0.31223013  1
  Zn  Zn141  1  0.81138801  0.31288272  0.81424340  1
  Zn  Zn142  1  0.81220591  0.81291960  0.31377877  1
  Zn  Zn143  1  0.81183762  0.81653774  0.81140234  1
  Zn  Zn144  1  0.19208945  0.43233305  0.43839100  1
  Zn  Zn145  1  0.18738034  0.43536242  0.93705523  1
  Zn  Zn146  1  0.18720258  0.93727807  0.43922337  1
  Zn  Zn147  1  0.18700569  0.93676893  0.93731793  1
  Zn  Zn148  1  0.68751718  0.43862650  0.43509339  1
  Zn  Zn149  1  0.68658466  0.43726283  0.93528922  1
  Zn  Zn150  1  0.68948599  0.93683501  0.43867103  1
  Zn  Zn151  1  0.68705215  0.93772909  0.93662195  1
  Zn  Zn152  1  0.31281519  0.06234259  0.06262435  1
  Zn  Zn153  1  0.31080566  0.06234986  0.56172941  1
  Zn  Zn154  1  0.31270440  0.56073925  0.06377036  1
  Zn  Zn155  1  0.31088711  0.56133769  0.56362902  1
  Zn  Zn156  1  0.81113369  0.06423873  0.06085146  1
  Zn  Zn157  1  0.81291323  0.06304705  0.56368387  1
  Zn  Zn158  1  0.81191806  0.56449839  0.06183887  1
  Zn  Zn159  1  0.81283663  0.56550747  0.56261546  1
  Zn  Zn160  1  0.43871269  0.43593923  0.18487224  1
  Zn  Zn161  1  0.43825386  0.43792020  0.68581032  1
  Zn  Zn162  1  0.43786883  0.93689924  0.18798964  1
  Zn  Zn163  1  0.43752630  0.93602370  0.68622636  1
  Zn  Zn164  1  0.93720882  0.43757028  0.18886306  1
  Zn  Zn165  1  0.93930056  0.43368624  0.68756441  1
  Zn  Zn166  1  0.93785917  0.93851604  0.18684105  1
  Zn  Zn167  1  0.93747476  0.93584939  0.68947707  1
  Zn  Zn168  1  0.06277298  0.06404147  0.31219085  1
  Zn  Zn169  1  0.06051331  0.06287287  0.81242707  1
  Zn  Zn170  1  0.06406206  0.56449037  0.31286470  1
  Zn  Zn171  1  0.06166767  0.56212079  0.81082295  1
  Zn  Zn172  1  0.56345737  0.06341354  0.31169585  1
  Zn  Zn173  1  0.56468795  0.06366744  0.81343932  1
  Zn  Zn174  1  0.55965783  0.56265044  0.31494672  1
  Zn  Zn175  1  0.56423816  0.56245313  0.81225626  1
  Zn  Zn176  1  0.43803822  0.18844611  0.43696066  1
  Zn  Zn177  1  0.44022242  0.18746068  0.93778898  1
  Zn  Zn178  1  0.43754769  0.68952606  0.43600148  1
  Zn  Zn179  1  0.43750760  0.68719506  0.93633768  1
  Zn  Zn180  1  0.93909060  0.18799756  0.43892323  1
  Zn  Zn181  1  0.93587186  0.18701839  0.93839123  1
  Zn  Zn182  1  0.94170130  0.68521966  0.44110943  1
  Zn  Zn183  1  0.93693728  0.68707292  0.93602715  1
  Zn  Zn184  1  0.06077513  0.31342452  0.06296274  1
  Zn  Zn185  1  0.06082538  0.31406140  0.56159762  1
  Zn  Zn186  1  0.06129144  0.81355782  0.06120692  1
  Zn  Zn187  1  0.06365528  0.81449329  0.56352640  1
  Zn  Zn188  1  0.56446993  0.31467641  0.06474543  1
  Zn  Zn189  1  0.56189693  0.31259505  0.56257175  1
  Zn  Zn190  1  0.56248494  0.81152707  0.06233055  1
  Zn  Zn191  1  0.56214585  0.81207328  0.56262405  1
  O  O192  1  0.12033361  0.11989109  0.12067808  1
  O  O193  1  0.11736269  0.11798599  0.62502563  1
  O  O194  1  0.11935150  0.62017388  0.11939063  1
  O  O195  1  0.12515465  0.61067215  0.62491112  1
  O  O196  1  0.61674334  0.11605546  0.12668623  1
  O  O197  1  0.61935173  0.12016516  0.61807608  1
  O  O198  1  0.61742438  0.62448379  0.11706019  1
  O  O199  1  0.61732270  0.62554784  0.61632782  1
  O  O200  1  0.37673589  0.37269512  0.38738089  1
  O  O201  1  0.38012568  0.38063772  0.87910117  1
  O  O202  1  0.38089037  0.88157851  0.37864505  1
  O  O203  1  0.37959856  0.87944951  0.88156549  1
  O  O204  1  0.87421545  0.38549029  0.38035818  1
  O  O205  1  0.87674774  0.38627930  0.88413936  1
  O  O206  1  0.88151031  0.88115803  0.37921896  1
  O  O207  1  0.87552476  0.88457545  0.88135641  1
  O  O208  1  0.25529484  0.00383942  0.36887541  1
  O  O209  1  0.25630200  0.00484298  0.87058284  1
  O  O210  1  0.25262908  0.50096926  0.36145459  1
  O  O211  1  0.25481630  0.50521594  0.87056309  1
  O  O212  1  0.75624259  0.00591168  0.36965927  1
  O  O213  1  0.75760166  -0.00098999  0.86621986  1
  O  O214  1  0.75920377  0.50737586  0.36765572  1
  O  O215  1  0.75868575  0.49972314  0.86464960  1
  O  O216  1  0.24336572  0.49886117  0.13416838  1
  O  O217  1  0.24155891  0.49713501  0.63338863  1
  O  O218  1  0.24465405  0.99421971  0.13044228  1
  O  O219  1  0.24372093  0.99981404  0.63287062  1
  O  O220  1  0.75091515  0.50274117  0.13750472  1
  O  O221  1  0.75170533  0.49450083  0.63426495  1
  O  O222  1  0.74549548  0.99346651  0.13178233  1
  O  O223  1  0.74452976  0.99982361  0.63244056  1
  O  O224  1  0.00662192  0.36921812  0.25224418  1
  O  O225  1  0.00712429  0.36626953  0.75332317  1
  O  O226  1  0.00544792  0.87036135  0.25489240  1
  O  O227  1  0.00685909  0.86349723  0.75233971  1
  O  O228  1  0.49950363  0.36554858  0.25209314  1
  O  O229  1  0.50502245  0.37103308  0.75379418  1
  O  O230  1  0.50652899  0.87387066  0.25627948  1
  O  O231  1  0.49946047  0.86786837  0.75709347  1
  O  O232  1  0.49319207  0.12908272  0.24493136  1
  O  O233  1  0.49390305  0.12943390  0.74369673  1
  O  O234  1  0.48919222  0.62554560  0.24289231  1
  O  O235  1  0.49580032  0.62906936  0.74277885  1
  O  O236  1  0.99425261  0.13091435  0.24446790  1
  O  O237  1  0.99717445  0.13163665  0.74339655  1
  O  O238  1  0.99491488  0.63164993  0.24436134  1
  O  O239  1  0.99910475  0.63788548  0.74754123  1
  O  O240  1  0.37005099  0.25417428  0.00438162  1
  O  O241  1  0.37620278  0.25522000  0.51068228  1
  O  O242  1  0.36821693  0.75438721  0.00426185  1
  O  O243  1  0.36545225  0.75625826  0.49853632  1
  O  O244  1  0.87699233  0.26180852  0.00669917  1
  O  O245  1  0.86886280  0.25571380  0.50468723  1
  O  O246  1  0.86975661  0.75432968  0.00511650  1
  O  O247  1  0.87722264  0.75604921  0.50936963  1
  O  O248  1  0.12617469  0.24848313  0.49107154  1
  O  O249  1  0.12997251  0.24431748  0.99581622  1
  O  O250  1  0.13441615  0.75228430  0.49427872  1
  O  O251  1  0.12992307  0.74375040  0.99522446  1
  O  O252  1  0.63079076  0.24408495  0.49504289  1
  O  O253  1  0.62686435  0.24941422  0.99838877  1
  O  O254  1  0.62627036  0.74049600  0.49444600  1
  O  O255  1  0.63017154  0.74529414  0.99410023  1
  O  O256  1  0.49320791  0.24311807  0.13117300  1
  O  O257  1  0.49134966  0.24363977  0.63045439  1
  O  O258  1  0.49192214  0.74361836  0.12581220  1
  O  O259  1  0.49850405  0.73915965  0.63024671  1
  O  O260  1  0.99446323  0.24445152  0.13167049  1
  O  O261  1  0.99445937  0.24496821  0.63041193  1
  O  O262  1  0.99500688  0.74553546  0.13089667  1
  O  O263  1  0.99325816  0.75061164  0.63376710  1
  O  O264  1  0.00690530  0.25013928  0.36784377  1
  O  O265  1  0.00635188  0.24945959  0.86922010  1
  O  O266  1  0.00494894  0.75664982  0.36921147  1
  O  O267  1  0.00568905  0.75000698  0.86614763  1
  O  O268  1  0.50717761  0.24889042  0.36826444  1
  O  O269  1  0.49756607  0.25809185  0.86659378  1
  O  O270  1  0.50711343  0.75765907  0.37204067  1
  O  O271  1  0.50467572  0.75465601  0.86998672  1
  O  O272  1  0.24775186  0.12721335  0.49108347  1
  O  O273  1  0.24490563  0.12959747  0.99479062  1
  O  O274  1  0.24946202  0.63636833  0.49753042  1
  O  O275  1  0.24460160  0.62909937  0.99509498  1
  O  O276  1  0.74537951  0.13070399  0.49409507  1
  O  O277  1  0.74483505  0.12793049  0.99854701  1
  O  O278  1  0.74047143  0.62839994  0.49520098  1
  O  O279  1  0.74356333  0.63228823  0.99777795  1
  O  O280  1  0.25692880  0.36749964  0.00039352  1
  O  O281  1  0.26268158  0.36786928  0.50464342  1
  O  O282  1  0.25488882  0.86883056  0.00543074  1
  O  O283  1  0.25614662  0.86645385  0.50018396  1
  O  O284  1  0.76359487  0.37943986  0.00303007  1
  O  O285  1  0.75471537  0.36995776  0.50485715  1
  O  O286  1  0.75490688  0.86898053  0.00670989  1
  O  O287  1  0.75967823  0.87282236  0.50245119  1
  O  O288  1  0.13225768  0.49643003  0.24513236  1
  O  O289  1  0.12978195  0.49371874  0.74472822  1
  O  O290  1  0.13042356  0.99441976  0.24445489  1
  O  O291  1  0.13041029  0.99471273  0.74679856  1
  O  O292  1  0.63769799  0.50446354  0.25123144  1
  O  O293  1  0.63595292  0.49461491  0.74868505  1
  O  O294  1  0.63120186  0.99397214  0.24523513  1
  O  O295  1  0.63229764  0.99891625  0.74302334  1
  O  O296  1  0.36931102  0.00471928  0.25494641  1
  O  O297  1  0.37073525  0.00504195  0.75567279  1
  O  O298  1  0.36621072  0.50809742  0.24628552  1
  O  O299  1  0.36959631  0.50440041  0.75527570  1
  O  O300  1  0.87021363  0.00566027  0.25562205  1
  O  O301  1  0.86681997  -0.00066414  0.75821669  1
  O  O302  1  0.86841332  0.50693782  0.25757686  1
  O  O303  1  0.86809215  0.49781326  0.75740597  1
  O  O304  1  0.12463217  0.36735348  0.36773571  1
  O  O305  1  0.12284730  0.36691059  0.86994857  1
  O  O306  1  0.11933590  0.87101127  0.36827181  1
  O  O307  1  0.12429261  0.86708599  0.86931905  1
  O  O308  1  0.62361886  0.36652103  0.37233165  1
  O  O309  1  0.61698931  0.37478390  0.86645997  1
  O  O310  1  0.62058859  0.87152497  0.37028517  1
  O  O311  1  0.61679442  0.86795984  0.87381029  1
  O  O312  1  0.38000667  0.12887881  0.13108245  1
  O  O313  1  0.38066041  0.13108554  0.62978040  1
  O  O314  1  0.37891724  0.63006030  0.13139932  1
  O  O315  1  0.38375570  0.62615755  0.63072507  1
  O  O316  1  0.88075979  0.13048674  0.13135724  1
  O  O317  1  0.88118817  0.13229527  0.62661164  1
  O  O318  1  0.88111862  0.63193992  0.13024610  1
  O  O319  1  0.87855558  0.63728003  0.62680788  1
  O  O320  1  0.25708763  0.24934274  0.11821895  1
  O  O321  1  0.26327175  0.24775097  0.62671884  1
  O  O322  1  0.25392043  0.75516321  0.11886983  1
  O  O323  1  0.25116572  0.75190193  0.61371821  1
  O  O324  1  0.75992861  0.25371151  0.12524176  1
  O  O325  1  0.75492908  0.25488557  0.61912809  1
  O  O326  1  0.75586146  0.75532129  0.11966534  1
  O  O327  1  0.76278745  0.75251001  0.62560716  1
  O  O328  1  0.24188884  0.24215572  0.37349238  1
  O  O329  1  0.24492145  0.24260826  0.88037262  1
  O  O330  1  0.24396680  0.75033231  0.38386731  1
  O  O331  1  0.24474077  0.74305081  0.88073351  1
  O  O332  1  0.74556238  0.24432884  0.38005043  1
  O  O333  1  0.74805878  0.24809112  0.87925092  1
  O  O334  1  0.74417009  0.74430859  0.37689356  1
  O  O335  1  0.74428995  0.74999656  0.88023077  1
  O  O336  1  0.00681335  0.12373853  0.00770998  1
  O  O337  1  0.00123725  0.11815209  0.50747368  1
  O  O338  1  0.00556164  0.62081143  0.00554646  1
  O  O339  1  0.00783256  0.61823635  0.50376739  1
  O  O340  1  0.49800331  0.11609394  0.00827143  1
  O  O341  1  0.50562167  0.11911089  0.50458856  1
  O  O342  1  0.50403423  0.61992524  0.00331929  1
  O  O343  1  0.50697063  0.62692658  0.50766356  1
  O  O344  1  0.48945824  0.37689316  0.50061071  1
  O  O345  1  0.49312972  0.38137232  0.99338566  1
  O  O346  1  0.49512710  0.88077891  0.49316099  1
  O  O347  1  0.49293768  0.87915725  0.99514293  1
  O  O348  1  0.99052713  0.38003193  0.49646700  1
  O  O349  1  0.98934948  0.38271551  0.99967565  1
  O  O350  1  0.99543685  0.88167084  0.49368064  1
  O  O351  1  0.99151149  0.87742412  0.99789966  1
  O  O352  1  0.49392402  0.49671121  0.37891600  1
  O  O353  1  0.49340044  0.49498728  0.87850413  1
  O  O354  1  0.49495063  0.99580718  0.37999738  1
  O  O355  1  0.49349017  0.99375670  0.88009754  1
  O  O356  1  0.98658901  0.49999575  0.37254022  1
  O  O357  1  0.99124688  0.49938067  0.88032671  1
  O  O358  1  0.99494274  0.99569205  0.37936382  1
  O  O359  1  0.98817962  0.99759846  0.87551148  1
  O  O360  1  0.00680710  0.00707496  0.12463761  1
  O  O361  1  0.00435500  0.00455657  0.62141954  1
  O  O362  1  0.00461795  0.50739262  0.12075387  1
  O  O363  1  0.01192261  0.49978698  0.62663280  1
  O  O364  1  0.50436322  0.00358730  0.12057842  1
  O  O365  1  0.50478585  0.00572250  0.61866382  1
  O  O366  1  0.49904893  0.50789284  0.11597089  1
  O  O367  1  0.50269604  0.51398506  0.62382759  1
  O  O368  1  0.24550097  0.38428909  0.24718563  1
  O  O369  1  0.24351822  0.38050757  0.74963270  1
  O  O370  1  0.24493329  0.88003654  0.24440900  1
  O  O371  1  0.24493167  0.88095280  0.75002818  1
  O  O372  1  0.74959270  0.38935500  0.24946574  1
  O  O373  1  0.74560191  0.38340353  0.74394821  1
  O  O374  1  0.74520283  0.88058995  0.24527339  1
  O  O375  1  0.74680403  0.88811593  0.74644382  1
  O  O376  1  0.25567244  0.11816516  0.25463258  1
  O  O377  1  0.25616989  0.11865951  0.75712265  1
  O  O378  1  0.25861017  0.61621725  0.24804081  1
  O  O379  1  0.25553729  0.61906821  0.75649268  1
  O  O380  1  0.75595786  0.11911984  0.25537850  1
  O  O381  1  0.75209931  0.11182736  0.75101205  1
  O  O382  1  0.75640342  0.62016433  0.25570678  1
  O  O383  1  0.75253776  0.61289999  0.75060063  1
  O  O384  1  0.37008896  0.11913571  0.36936406  1
  O  O385  1  0.37039593  0.11891668  0.87001030  1
  O  O386  1  0.37313469  0.62465289  0.36124270  1
  O  O387  1  0.36952371  0.61857338  0.86992994  1
  O  O388  1  0.87014873  0.12013320  0.36978061  1
  O  O389  1  0.87245105  0.11241529  0.87430936  1
  O  O390  1  0.87058787  0.61934202  0.37093415  1
  O  O391  1  0.87264942  0.61203486  0.87325064  1
  O  O392  1  0.12664430  0.38187690  0.13099197  1
  O  O393  1  0.12718227  0.38174572  0.63222507  1
  O  O394  1  0.13041682  0.87969802  0.12998468  1
  O  O395  1  0.12730987  0.88283413  0.63315765  1
  O  O396  1  0.62708316  0.38327634  0.13117409  1
  O  O397  1  0.63177165  0.37792870  0.62986944  1
  O  O398  1  0.63049152  0.87921235  0.13082784  1
  O  O399  1  0.62586278  0.88328327  0.62589990  1
  O  O400  1  0.11997892  0.25509354  0.25504977  1
  O  O401  1  0.12017102  0.25348147  0.75611129  1
  O  O402  1  0.12011091  0.75623532  0.25388866  1
  O  O403  1  0.11914523  0.75352071  0.75432407  1
  O  O404  1  0.61826768  0.24944739  0.25650594  1
  O  O405  1  0.61748076  0.25736726  0.74806090  1
  O  O406  1  0.62398403  0.75676150  0.25608502  1
  O  O407  1  0.61821434  0.75076924  0.75591029  1
  O  O408  1  0.37907007  0.24330664  0.24476092  1
  O  O409  1  0.38026394  0.24437949  0.74245374  1
  O  O410  1  0.37327036  0.74022750  0.24323624  1
  O  O411  1  0.38129149  0.74155427  0.74973045  1
  O  O412  1  0.87997918  0.24538017  0.24640352  1
  O  O413  1  0.88096038  0.25040742  0.74324334  1
  O  O414  1  0.88071928  0.74621173  0.24491745  1
  O  O415  1  0.88348739  0.75133269  0.74322931  1
  O  O416  1  0.37411193  0.48825206  0.50024648  1
  O  O417  1  0.37930164  0.49498360  0.99333984  1
  O  O418  1  0.38090771  0.99564297  0.49355414  1
  O  O419  1  0.37943930  0.99318173  0.99513751  1
  O  O420  1  0.87231705  0.49597754  0.48994422  1
  O  O421  1  0.87935846  0.49543322  0.99366667  1
  O  O422  1  0.88105325  0.99570827  0.49432443  1
  O  O423  1  0.87451273  0.99351021  0.99163994  1
  O  O424  1  0.12456317  0.00639359  0.00639367  1
  O  O425  1  0.11790999  0.00092139  0.50708298  1
  O  O426  1  0.11995271  0.50510490  0.00449939  1
  O  O427  1  0.12820835  0.49687776  0.51120818  1
  O  O428  1  0.61677805  -0.00270484  0.00836027  1
  O  O429  1  0.61992670  0.00627649  0.50348091  1
  O  O430  1  0.61778739  0.50722747  -0.00182993  1
  O  O431  1  0.62468868  0.51433921  0.50048317  1
  O  O432  1  0.37324230  0.36715726  0.11653994  1
  O  O433  1  0.37539725  0.36454144  0.61950443  1
  O  O434  1  0.36867044  0.86982561  0.12019718  1
  O  O435  1  0.37308844  0.87231812  0.61559821  1
  O  O436  1  0.87474415  0.37118255  0.11720863  1
  O  O437  1  0.86900539  0.36906465  0.61900471  1
  O  O438  1  0.86920223  0.86979196  0.12117819  1
  O  O439  1  0.87608116  0.86536536  0.61900582  1
  O  O440  1  0.13099702  0.13182221  0.37452040  1
  O  O441  1  0.13087408  0.12919997  0.88081896  1
  O  O442  1  0.12946824  0.63416212  0.37543486  1
  O  O443  1  0.13066836  0.62923595  0.88046406  1
  O  O444  1  0.63176751  0.12990692  0.38013471  1
  O  O445  1  0.62569765  0.12938146  0.87958204  1
  O  O446  1  0.62881871  0.63164690  0.38277113  1
  O  O447  1  0.62599338  0.63253923  0.88123589  1
