# generated using pymatgen
data_V3Zn3O8
_symmetry_space_group_name_H-M   'P 1'
_cell_length_a   17.08838424
_cell_length_b   17.08912901
_cell_length_c   17.08987799
_cell_angle_alpha   89.99123998
_cell_angle_beta   89.99749341
_cell_angle_gamma   89.99656943
_symmetry_Int_Tables_number   1
_chemical_formula_structural   V3Zn3O8
_chemical_formula_sum   'V96 Zn96 O256'
_cell_volume   4990.68185108
_cell_formula_units_Z   32
loop_
 _symmetry_equiv_pos_site_id
 _symmetry_equiv_pos_as_xyz
  1  'x, y, z'
loop_
 _atom_site_type_symbol
 _atom_site_label
 _atom_site_symmetry_multiplicity
 _atom_site_fract_x
 _atom_site_fract_y
 _atom_site_fract_z
 _atom_site_occupancy
  V  V0  1  0.37554697  0.50060617  0.37577558  1
  V  V1  1  0.62644984  0.12528523  -0.00068224  1
  V  V2  1  0.49892880  0.87648664  0.37498973  1
  V  V3  1  0.37388012  0.87500198  -0.00027810  1
  V  V4  1  0.62506847  0.75033614  0.37569288  1
  V  V5  1  0.50025633  0.00061112  -0.00009858  1
  V  V6  1  0.12447362  0.74814264  0.87464937  1
  V  V7  1  0.49967501  0.75030428  0.24966551  1
  V  V8  1  0.49919331  0.87568220  0.87493679  1
  V  V9  1  0.37488402  0.12583686  0.75010646  1
  V  V10  1  0.87635548  0.12437441  0.24978527  1
  V  V11  1  0.24819207  -0.00007072  0.74966650  1
  V  V12  1  0.62626828  0.37545332  0.25057233  1
  V  V13  1  -0.00030611  0.12265113  0.12544703  1
  V  V14  1  0.00030298  0.00199862  0.50035491  1
  V  V15  1  0.49967528  0.25016606  0.74928757  1
  V  V16  1  0.49881266  0.12612871  0.62516158  1
  V  V17  1  0.12548633  0.50018789  0.12388760  1
  V  V18  1  0.37477016  0.00086973  0.87503522  1
  V  V19  1  0.24975193  0.37576520  0.62523605  1
  V  V20  1  -0.00005289  0.62388458  0.12441721  1
  V  V21  1  0.74916364  0.62575108  0.37552043  1
  V  V22  1  0.25072423  0.50105180  0.25058020  1
  V  V23  1  0.62449287  0.50143716  0.62550794  1
  V  V24  1  0.37717914  0.25056869  0.12502118  1
  V  V25  1  0.74888478  -0.00017664  0.25020488  1
  V  V26  1  0.87452414  0.87355453  -0.00070461  1
  V  V27  1  0.87571902  0.50006538  0.37613492  1
  V  V28  1  0.62344274  0.12563136  0.50038696  1
  V  V29  1  -0.00068564  0.62386076  0.62520818  1
  V  V30  1  0.25197703  -0.00007326  0.24964910  1
  V  V31  1  0.87274134  0.74998482  0.62515003  1
  V  V32  1  0.87469256  0.62580745  0.24995730  1
  V  V33  1  0.62601089  0.24998929  0.87511570  1
  V  V34  1  -0.00158236  0.87377846  0.87472119  1
  V  V35  1  0.12520562  -0.00251763  0.12448027  1
  V  V36  1  0.62451812  0.87626113  0.74909287  1
  V  V37  1  0.50101229  0.12613760  0.12528511  1
  V  V38  1  0.12469531  0.12448294  0.49865838  1
  V  V39  1  0.24930073  0.87366871  0.12353540  1
  V  V40  1  0.49783885  0.00054830  0.49893976  1
  V  V41  1  0.75148170  0.37566907  0.62458690  1
  V  V42  1  0.12606287  0.37339657  0.25097055  1
  V  V43  1  0.49993992  0.62593480  0.12582322  1
  V  V44  1  0.12450278  0.62525206  0.50013598  1
  V  V45  1  0.37460974  0.37579526  0.49988392  1
  V  V46  1  0.00063869  0.37541067  0.37643260  1
  V  V47  1  0.24906736  0.62633103  0.37555355  1
  V  V48  1  0.37562547  0.62581427  0.25032195  1
  V  V49  1  0.74921573  0.74982646  -0.00041223  1
  V  V50  1  0.50239320  0.37566495  0.87485344  1
  V  V51  1  0.62427523  0.62601900  0.50016430  1
  V  V52  1  0.87529458  0.12500737  0.74832042  1
  V  V53  1  0.12466698  0.49978277  0.62600276  1
  V  V54  1  0.24966424  0.24922040  0.49810875  1
  V  V55  1  0.24947404  0.74964049  -0.00059614  1
  V  V56  1  -0.00096409  0.74918166  0.74974506  1
  V  V57  1  0.87865849  0.37397402  0.00021137  1
  V  V58  1  0.49971923  0.37610709  0.37586228  1
  V  V59  1  0.24947653  0.49904228  0.74981872  1
  V  V60  1  0.37326209  0.75139566  0.62440354  1
  V  V61  1  0.87417928  0.74906913  0.12441641  1
  V  V62  1  0.00036531  0.87230156  0.37291654  1
  V  V63  1  0.62586145  0.37632067  0.74993773  1
  V  V64  1  0.75074309  0.50019682  0.25062436  1
  V  V65  1  0.12569241  0.12460931  -0.00002248  1
  V  V66  1  0.24895010  0.75090991  0.49956452  1
  V  V67  1  0.75030811  0.25149226  0.50052209  1
  V  V68  1  0.62487932  0.25119361  0.37508248  1
  V  V69  1  0.87541198  0.49975301  0.87452870  1
  V  V70  1  0.37583381  0.50056502  0.87499288  1
  V  V71  1  0.12473738  0.87594609  0.74873242  1
  V  V72  1  0.37658378  0.37490250  0.00075163  1
  V  V73  1  0.75007137  0.12592147  0.37564652  1
  V  V74  1  0.37363905  0.87596927  0.49909234  1
  V  V75  1  0.24957614  0.12583609  0.87585081  1
  V  V76  1  0.37459038  0.62578563  0.74933617  1
  V  V77  1  0.50159294  0.50059019  0.00018356  1
  V  V78  1  0.62426812  -0.00065519  0.62580308  1
  V  V79  1  0.75067795  0.12351877  0.87365849  1
  V  V80  1  0.49901879  0.75088223  0.75005688  1
  V  V81  1  0.87423859  0.00075920  0.37585633  1
  V  V82  1  0.00248789  0.25003106  0.75092849  1
  V  V83  1  0.62535204  0.00000065  0.12549826  1
  V  V84  1  0.24928486  0.62512852  0.87518817  1
  V  V85  1  0.87359243  0.87587329  0.50152423  1
  V  V86  1  0.87686013  0.24864066  0.12583591  1
  V  V87  1  0.62461104  0.87611190  0.25006026  1
  V  V88  1  0.50040009  0.62552887  0.62436038  1
  V  V89  1  0.75258106  0.37423655  0.12598210  1
  V  V90  1  0.25163740  0.24952619  0.00079142  1
  V  V91  1  -0.00090945  -0.00194177  -0.00095255  1
  V  V92  1  0.62566393  0.62593369  -0.00032789  1
  V  V93  1  0.62447275  0.74978342  0.87578759  1
  V  V94  1  0.50022560  0.25008889  0.24936702  1
  V  V95  1  0.62637138  0.50038586  0.12532122  1
  Zn  Zn96  1  0.25216529  0.37505063  0.12526136  1
  Zn  Zn97  1  0.87716873  0.25114103  0.62297759  1
  Zn  Zn98  1  0.12505354  0.25193369  0.87666936  1
  Zn  Zn99  1  0.00389294  0.37455422  0.87474879  1
  Zn  Zn100  1  0.74823591  0.87587700  0.62473557  1
  Zn  Zn101  1  0.12572203  0.62327269  -0.00086224  1
  Zn  Zn102  1  0.12533799  0.87114456  0.24968209  1
  Zn  Zn103  1  0.87280584  0.62309977  0.75091706  1
  Zn  Zn104  1  0.75191187  0.24893118  0.00071533  1
  Zn  Zn105  1  0.74972690  0.87477030  0.12482189  1
  Zn  Zn106  1  0.37386450  0.74958359  0.12484954  1
  Zn  Zn107  1  0.12520896  0.24847154  0.37315747  1
  Zn  Zn108  1  0.24728536  0.87729643  0.62279894  1
  Zn  Zn109  1  0.75019758  0.50230331  0.75144154  1
  Zn  Zn110  1  0.00089206  0.75075024  0.24973926  1
  Zn  Zn111  1  0.75041108  0.62385541  0.87354112  1
  Zn  Zn112  1  0.12580284  0.37284925  0.75284208  1
  Zn  Zn113  1  -0.00120634  0.49966184  0.50207168  1
  Zn  Zn114  1  -0.00093715  0.12600255  0.62349639  1
  Zn  Zn115  1  0.37414355  0.00285525  0.37388919  1
  Zn  Zn116  1  0.74875039  0.75212718  0.50034984  1
  Zn  Zn117  1  0.87703201  0.37487150  0.50063943  1
  Zn  Zn118  1  0.87435163  -0.00236292  0.87312722  1
  Zn  Zn119  1  0.12385162  -0.00007608  0.62546752  1
  Zn  Zn120  1  0.37468475  0.25098226  0.62537783  1
  Zn  Zn121  1  0.37486788  0.12588582  0.25111258  1
  Zn  Zn122  1  0.00279778  0.24656895  0.25085556  1
  Zn  Zn123  1  0.25156656  0.12427313  0.37247372  1
  Zn  Zn124  1  0.75125264  -0.00217479  0.74746257  1
  Zn  Zn125  1  0.00351213  0.49805989  -0.00253719  1
  Zn  Zn126  1  0.12330639  0.74884281  0.37328377  1
  Zn  Zn127  1  0.49914806  0.50020974  0.50067055  1
  Zn  Zn128  1  0.18896892  0.18627264  0.18413567  1
  Zn  Zn129  1  0.18642752  0.18660334  0.68457294  1
  Zn  Zn130  1  0.18591582  0.68973798  0.18956482  1
  Zn  Zn131  1  0.18678142  0.68797742  0.68647046  1
  Zn  Zn132  1  0.68930787  0.18808538  0.18764257  1
  Zn  Zn133  1  0.68712890  0.18857801  0.68723304  1
  Zn  Zn134  1  0.68761916  0.68872286  0.18770408  1
  Zn  Zn135  1  0.68944399  0.68670443  0.69009870  1
  Zn  Zn136  1  0.31332989  0.31295191  0.31285440  1
  Zn  Zn137  1  0.31306625  0.31249193  0.81371611  1
  Zn  Zn138  1  0.31263517  0.81301155  0.31276849  1
  Zn  Zn139  1  0.31050452  0.81366172  0.81217539  1
  Zn  Zn140  1  0.81517762  0.31155865  0.31217904  1
  Zn  Zn141  1  0.81381490  0.31146698  0.81178686  1
  Zn  Zn142  1  0.81250529  0.81217176  0.31224955  1
  Zn  Zn143  1  0.81000646  0.81159573  0.81164719  1
  Zn  Zn144  1  0.18725243  0.43962465  0.43888396  1
  Zn  Zn145  1  0.18907482  0.43411730  0.93659626  1
  Zn  Zn146  1  0.18653144  0.93750206  0.43553459  1
  Zn  Zn147  1  0.18614714  0.93673986  0.93571595  1
  Zn  Zn148  1  0.68700266  0.43982207  0.43973168  1
  Zn  Zn149  1  0.69160355  0.43710658  0.93936985  1
  Zn  Zn150  1  0.68678689  0.93779231  0.43903145  1
  Zn  Zn151  1  0.68814855  0.93717426  0.93682800  1
  Zn  Zn152  1  0.31353327  0.06316907  0.06448569  1
  Zn  Zn153  1  0.31135016  0.06206190  0.56430838  1
  Zn  Zn154  1  0.31268898  0.56319319  0.06271206  1
  Zn  Zn155  1  0.31149324  0.56306679  0.56216134  1
  Zn  Zn156  1  0.81278183  0.06029887  0.06185793  1
  Zn  Zn157  1  0.81095365  0.06263665  0.56422965  1
  Zn  Zn158  1  0.81294858  0.56144511  0.05998838  1
  Zn  Zn159  1  0.81210570  0.56231381  0.56036972  1
  Zn  Zn160  1  0.43883855  0.43775992  0.18799968  1
  Zn  Zn161  1  0.43710385  0.43789142  0.68651305  1
  Zn  Zn162  1  0.43613274  0.93683875  0.18573876  1
  Zn  Zn163  1  0.43590358  0.93830047  0.68594504  1
  Zn  Zn164  1  0.93922990  0.43786503  0.18970741  1
  Zn  Zn165  1  0.93823084  0.43632333  0.68988171  1
  Zn  Zn166  1  0.93571141  0.93673818  0.18697562  1
  Zn  Zn167  1  0.93863240  0.93900826  0.68623422  1
  Zn  Zn168  1  0.06528257  0.05872693  0.31294265  1
  Zn  Zn169  1  0.06212527  0.06271956  0.81429558  1
  Zn  Zn170  1  0.06217996  0.56164442  0.31211008  1
  Zn  Zn171  1  0.06050290  0.56140048  0.81109586  1
  Zn  Zn172  1  0.56185027  0.06328575  0.31280766  1
  Zn  Zn173  1  0.56252677  0.06255795  0.81135652  1
  Zn  Zn174  1  0.56212329  0.56260760  0.31328369  1
  Zn  Zn175  1  0.56332625  0.56366885  0.81164186  1
  Zn  Zn176  1  0.43394796  0.18701038  0.43523269  1
  Zn  Zn177  1  0.43833433  0.18804884  0.93716537  1
  Zn  Zn178  1  0.43737122  0.68884448  0.43796350  1
  Zn  Zn179  1  0.43676176  0.68807977  0.93795800  1
  Zn  Zn180  1  0.93782316  0.19076125  0.43668591  1
  Zn  Zn181  1  0.93836653  0.18716477  0.93644495  1
  Zn  Zn182  1  0.93677016  0.68728401  0.44033498  1
  Zn  Zn183  1  0.93731916  0.68535716  0.93894400  1
  Zn  Zn184  1  0.06284259  0.30948351  0.06431630  1
  Zn  Zn185  1  0.06392014  0.31138827  0.56491391  1
  Zn  Zn186  1  0.06289695  0.81086441  0.06146345  1
  Zn  Zn187  1  0.06161741  0.81277667  0.56199654  1
  Zn  Zn188  1  0.56479223  0.31219353  0.06208371  1
  Zn  Zn189  1  0.56264866  0.31320162  0.56283180  1
  Zn  Zn190  1  0.56206699  0.81331001  0.06330946  1
  Zn  Zn191  1  0.56092664  0.81314100  0.56227627  1
  O  O192  1  0.11916765  0.11734104  0.11890040  1
  O  O193  1  0.12271338  0.12303742  0.61013762  1
  O  O194  1  0.11741600  0.61534906  0.12627463  1
  O  O195  1  0.11921558  0.61980512  0.62024770  1
  O  O196  1  0.62095113  0.12029463  0.11928493  1
  O  O197  1  0.61839258  0.12080749  0.61960495  1
  O  O198  1  0.61956839  0.61928897  0.12036384  1
  O  O199  1  0.61960175  0.62163283  0.62061712  1
  O  O200  1  0.38031604  0.38140397  0.37997582  1
  O  O201  1  0.38292278  0.38132664  0.88061238  1
  O  O202  1  0.38238180  0.87714582  0.38150405  1
  O  O203  1  0.38006213  0.88146020  0.87981155  1
  O  O204  1  0.88527054  0.38099973  0.37280385  1
  O  O205  1  0.87516601  0.38027110  0.88537425  1
  O  O206  1  0.88075622  0.88116992  0.38057404  1
  O  O207  1  0.88101456  0.87447243  0.88075616  1
  O  O208  1  0.25071239  -0.00097910  0.36114907  1
  O  O209  1  0.25614606  0.00600445  0.87038964  1
  O  O210  1  0.25597193  0.50649973  0.36970479  1
  O  O211  1  0.25721072  0.50531509  0.87029088  1
  O  O212  1  0.75404186  0.00710678  0.37054879  1
  O  O213  1  0.74966866  0.01267057  0.87193188  1
  O  O214  1  0.75451699  0.50526154  0.36904481  1
  O  O215  1  0.76158311  0.50035021  0.87500439  1
  O  O216  1  0.24100837  0.49977130  0.13152344  1
  O  O217  1  0.24518364  0.49595534  0.63095317  1
  O  O218  1  0.24501281  0.99379006  0.12976230  1
  O  O219  1  0.24656799  0.99792005  0.63478684  1
  O  O220  1  0.74564054  0.49466041  0.13120087  1
  O  O221  1  0.74353013  0.49047343  0.62527028  1
  O  O222  1  0.74286745  0.99908431  0.13205786  1
  O  O223  1  0.73950586  0.99808943  0.62712649  1
  O  O224  1  0.01063330  0.37511796  0.25811918  1
  O  O225  1  0.00097166  0.36159891  0.75154873  1
  O  O226  1  -0.00159944  0.87532998  0.26185104  1
  O  O227  1  0.00468700  0.86919168  0.75565598  1
  O  O228  1  0.50726262  0.37027553  0.25570088  1
  O  O229  1  0.50543534  0.37054889  0.75582170  1
  O  O230  1  0.50501221  0.87054462  0.25456161  1
  O  O231  1  0.50317266  0.87008998  0.75609627  1
  O  O232  1  0.50158707  0.13286497  0.24261630  1
  O  O233  1  0.49482393  0.13065587  0.74542035  1
  O  O234  1  0.49566356  0.63025933  0.24537119  1
  O  O235  1  0.49386124  0.63166635  0.74488147  1
  O  O236  1  0.99456358  0.12230709  0.24384203  1
  O  O237  1  0.99101138  0.13114966  0.75027070  1
  O  O238  1  0.99326440  0.62405597  0.23953805  1
  O  O239  1  0.99678052  0.63223872  0.74281128  1
  O  O240  1  0.37276515  0.25579547  0.00522382  1
  O  O241  1  0.36515079  0.25635959  0.50118341  1
  O  O242  1  0.36799993  0.75716756  0.00002671  1
  O  O243  1  0.36936964  0.75576169  0.50519440  1
  O  O244  1  0.87483611  0.25790941  0.00642414  1
  O  O245  1  0.86582061  0.25373433  0.50211464  1
  O  O246  1  0.86911387  0.75400260  0.00503794  1
  O  O247  1  0.87412520  0.75605280  0.51091998  1
  O  O248  1  0.13372338  0.24280947  0.49824006  1
  O  O249  1  0.13306217  0.24183732  1.00222632  1
  O  O250  1  0.13103170  0.74293097  0.49845029  1
  O  O251  1  0.13164788  0.74732399  0.99207672  1
  O  O252  1  0.62961872  0.24485916  0.49371054  1
  O  O253  1  0.62782092  0.24325870  0.99314874  1
  O  O254  1  0.62511190  0.74442986  0.49325861  1
  O  O255  1  0.62853426  0.74573017  0.99529945  1
  O  O256  1  0.49755901  0.24580319  0.12993501  1
  O  O257  1  0.49905351  0.24408024  0.63162663  1
  O  O258  1  0.49887145  0.74351652  0.13163373  1
  O  O259  1  0.49341355  0.74484310  0.63119343  1
  O  O260  1  0.99451231  0.24041140  0.12838179  1
  O  O261  1  0.99722144  0.24711928  0.63515277  1
  O  O262  1  0.99390583  0.73909250  0.12469108  1
  O  O263  1  0.99141751  0.74482025  0.62974602  1
  O  O264  1  0.00329608  0.26201607  0.37081397  1
  O  O265  1  0.00224713  0.25005546  0.86453465  1
  O  O266  1  -0.00272968  0.76118824  0.37441005  1
  O  O267  1  0.00454096  0.75346351  0.87005036  1
  O  O268  1  0.50586610  0.25629638  0.36952454  1
  O  O269  1  0.50620875  0.25613278  0.86971017  1
  O  O270  1  0.50550831  0.75604922  0.36891698  1
  O  O271  1  0.50388753  0.75636740  0.86994875  1
  O  O272  1  0.24299315  0.13325363  0.49928861  1
  O  O273  1  0.24601606  0.12917851  0.99564177  1
  O  O274  1  0.24479676  0.63090921  0.49458455  1
  O  O275  1  0.24974805  0.63083508  0.99264924  1
  O  O276  1  0.74306504  0.13081336  0.49449152  1
  O  O277  1  0.74545459  0.12537656  0.99029438  1
  O  O278  1  0.74215584  0.62729106  0.49233309  1
  O  O279  1  0.74218272  0.63138038  0.99940619  1
  O  O280  1  0.25971460  0.36855887  0.00236397  1
  O  O281  1  0.25402690  0.36792244  0.50443329  1
  O  O282  1  0.25487960  0.87000948  0.00322528  1
  O  O283  1  0.25561550  0.86912923  0.49979685  1
  O  O284  1  0.76163428  0.37240108  0.00802827  1
  O  O285  1  0.74835189  0.36982563  0.50921939  1
  O  O286  1  0.75574448  0.86850501  0.00104385  1
  O  O287  1  0.75797209  0.87284831  0.50206829  1
  O  O288  1  0.13065009  0.49292550  0.24248228  1
  O  O289  1  0.13287559  0.49919362  0.74332583  1
  O  O290  1  0.13474807  0.99582694  0.24232808  1
  O  O291  1  0.13053973  0.99406952  0.75064048  1
  O  O292  1  0.63088836  0.49483252  0.24492451  1
  O  O293  1  0.62563471  0.49323323  0.74399767  1
  O  O294  1  0.62953122  0.99573706  0.24520074  1
  O  O295  1  0.62310761  0.99367900  0.74305478  1
  O  O296  1  0.36393602  0.00156446  0.24773753  1
  O  O297  1  0.37015342  0.00582267  0.75654748  1
  O  O298  1  0.37047478  0.50534712  0.25564281  1
  O  O299  1  0.37040692  0.50631764  0.75579293  1
  O  O300  1  0.86837526  0.00542514  0.25568803  1
  O  O301  1  0.87353837  0.01147638  0.75197243  1
  O  O302  1  0.86912795  0.50599605  0.25540585  1
  O  O303  1  0.87351274  0.49860751  0.76288247  1
  O  O304  1  0.11817846  0.37793786  0.36571879  1
  O  O305  1  0.12225183  0.37019557  0.87183963  1
  O  O306  1  0.11047537  0.87394663  0.37482222  1
  O  O307  1  0.11826552  0.86778001  0.86914632  1
  O  O308  1  0.62077015  0.37083438  0.36984663  1
  O  O309  1  0.62149625  0.37047658  0.87095666  1
  O  O310  1  0.61869787  0.87043792  0.36981130  1
  O  O311  1  0.61727884  0.87012572  0.87046398  1
  O  O312  1  0.38449073  0.13265249  0.12524293  1
  O  O313  1  0.38173671  0.12675530  0.63257788  1
  O  O314  1  0.38230796  0.62517101  0.13225610  1
  O  O315  1  0.37993241  0.63085814  0.63047036  1
  O  O316  1  0.88011229  0.12817209  0.12998069  1
  O  O317  1  0.87376680  0.12865243  0.63665018  1
  O  O318  1  0.88208363  0.62732644  0.12949460  1
  O  O319  1  0.88035740  0.63431536  0.62425189  1
  O  O320  1  0.25887920  0.25216520  0.11824190  1
  O  O321  1  0.25121477  0.25582092  0.61368092  1
  O  O322  1  0.25098260  0.75520721  0.11774204  1
  O  O323  1  0.25669015  0.75122078  0.61806970  1
  O  O324  1  0.75809187  0.25621609  0.12429211  1
  O  O325  1  0.74758813  0.26089297  0.61909006  1
  O  O326  1  0.75582592  0.75126118  0.11806706  1
  O  O327  1  0.76159250  0.75164054  0.62392201  1
  O  O328  1  0.24780995  0.25071438  0.38738044  1
  O  O329  1  0.25143210  0.24240505  0.88317840  1
  O  O330  1  0.24920674  0.74317613  0.38172300  1
  O  O331  1  0.24426285  0.74441509  0.87904665  1
  O  O332  1  0.74428190  0.24555007  0.37935855  1
  O  O333  1  0.74456211  0.23925965  0.87574424  1
  O  O334  1  0.74288711  0.74295004  0.37533313  1
  O  O335  1  0.74151011  0.74832714  0.88236641  1
  O  O336  1  0.00476904  0.11804859  0.00538652  1
  O  O337  1  0.00809080  0.12084527  0.49750672  1
  O  O338  1  0.00224829  0.62080568  0.01381424  1
  O  O339  1  0.00682139  0.62314338  0.50720109  1
  O  O340  1  0.50681965  0.11969151  0.00429938  1
  O  O341  1  0.50455315  0.12146053  0.50480179  1
  O  O342  1  0.50506465  0.61970451  0.00560176  1
  O  O343  1  0.50570182  0.62466149  0.50692095  1
  O  O344  1  0.49350018  0.37587185  0.49342780  1
  O  O345  1  0.49747404  0.38124403  0.99424426  1
  O  O346  1  0.49402666  0.88087667  0.49413795  1
  O  O347  1  0.49462401  0.88122482  0.99436785  1
  O  O348  1  1.00106534  0.37657102  0.48833131  1
  O  O349  1  0.98861702  0.37507042  1.00168670  1
  O  O350  1  0.99338646  0.88132638  0.49188633  1
  O  O351  1  0.99431750  0.87815910  0.99391260  1
  O  O352  1  0.49352825  0.49353813  0.37580123  1
  O  O353  1  0.49572654  0.49531230  0.88039934  1
  O  O354  1  0.49987598  0.99393577  0.38136360  1
  O  O355  1  0.49455981  0.99571944  0.88058842  1
  O  O356  1  0.99452564  0.49107122  0.37502741  1
  O  O357  1  0.99052524  0.49625315  0.87799490  1
  O  O358  1  0.99314763  0.99231033  0.38050880  1
  O  O359  1  0.99837867  0.99184931  0.88219628  1
  O  O360  1  0.00490195  0.00319935  0.11869822  1
  O  O361  1  0.00176053  0.00420189  0.61464259  1
  O  O362  1  0.00949876  0.50749525  0.12636461  1
  O  O363  1  0.00596818  0.50562695  0.62523343  1
  O  O364  1  0.50577097  0.00585008  0.11898279  1
  O  O365  1  0.50448144  0.00664791  0.61876069  1
  O  O366  1  0.50704283  0.50553693  0.12013884  1
  O  O367  1  0.50597783  0.50782183  0.62431568  1
  O  O368  1  0.24124836  0.38189225  0.24972621  1
  O  O369  1  0.25160476  0.38138457  0.74356547  1
  O  O370  1  0.24999190  0.88255222  0.24221665  1
  O  O371  1  0.24268137  0.88220585  0.75017114  1
  O  O372  1  0.74566978  0.38071481  0.24581906  1
  O  O373  1  0.74369781  0.37456223  0.74020070  1
  O  O374  1  0.74271098  0.88255923  0.24985352  1
  O  O375  1  0.73988519  0.87757097  0.74817683  1
  O  O376  1  0.25074263  0.11309674  0.24804593  1
  O  O377  1  0.25513362  0.12059276  0.75573131  1
  O  O378  1  0.25586051  0.62022697  0.25549990  1
  O  O379  1  0.25606408  0.61996722  0.75543967  1
  O  O380  1  0.75507834  0.11955960  0.25656497  1
  O  O381  1  0.75712099  0.12631586  0.75814305  1
  O  O382  1  0.75441095  0.61897764  0.25530374  1
  O  O383  1  0.75452091  0.62052689  0.75544100  1
  O  O384  1  0.37019758  0.12089543  0.36897069  1
  O  O385  1  0.37055575  0.11942980  0.87019425  1
  O  O386  1  0.37002587  0.62016475  0.36976094  1
  O  O387  1  0.37070553  0.61976001  0.86887126  1
  O  O388  1  0.86936941  0.12028644  0.36982712  1
  O  O389  1  0.86596004  0.12409778  0.86738609  1
  O  O390  1  0.86971515  0.62028860  0.36995081  1
  O  O391  1  0.87424225  0.61236057  0.87699851  1
  O  O392  1  0.12458210  0.38384710  0.13466384  1
  O  O393  1  0.13294081  0.38216498  0.62731516  1
  O  O394  1  0.13112290  0.88076416  0.12419636  1
  O  O395  1  0.12576725  0.87702535  0.63347135  1
  O  O396  1  0.63142688  0.38065638  0.13061241  1
  O  O397  1  0.63164520  0.38074163  0.62976292  1
  O  O398  1  0.62528875  0.88252124  0.13192757  1
  O  O399  1  0.62312707  0.88107261  0.63140721  1
  O  O400  1  0.12657079  0.26187856  0.24980011  1
  O  O401  1  0.11481443  0.24749839  0.75158379  1
  O  O402  1  0.11907679  0.75394075  0.25515861  1
  O  O403  1  0.11903431  0.75481814  0.75543331  1
  O  O404  1  0.62097459  0.25652460  0.25550750  1
  O  O405  1  0.61867599  0.25613737  0.75602784  1
  O  O406  1  0.61931585  0.75582275  0.25569110  1
  O  O407  1  0.61724636  0.75559667  0.75552840  1
  O  O408  1  0.38280764  0.25149501  0.24291608  1
  O  O409  1  0.38211731  0.24359273  0.74964925  1
  O  O410  1  0.38223834  0.74329916  0.24873342  1
  O  O411  1  0.37957994  0.74537448  0.74556860  1
  O  O412  1  0.87751820  0.24163489  0.24379527  1
  O  O413  1  0.88323879  0.24032857  0.74956831  1
  O  O414  1  0.87572093  0.74260347  0.24249377  1
  O  O415  1  0.88103261  0.75004370  0.74030839  1
  O  O416  1  0.37553034  0.49416484  0.49317295  1
  O  O417  1  0.38206327  0.49560754  0.99473781  1
  O  O418  1  0.38082137  0.99399758  0.49932587  1
  O  O419  1  0.38083549  0.99545298  0.99429430  1
  O  O420  1  0.87744012  0.49637449  0.49086565  1
  O  O421  1  0.87714711  0.48934224  0.99431504  1
  O  O422  1  0.87988019  0.99712718  0.49432470  1
  O  O423  1  0.88165712  0.99203194  0.99819764  1
  O  O424  1  0.11941481  0.00441287  0.00506285  1
  O  O425  1  0.11940044  0.00926694  0.49871012  1
  O  O426  1  0.12557852  0.49931204  0.01302990  1
  O  O427  1  0.12447250  0.50766491  0.50848943  1
  O  O428  1  0.61933812  0.00543846  0.00486086  1
  O  O429  1  0.61770934  0.00665310  0.50492634  1
  O  O430  1  0.62059571  0.50472453  0.00607988  1
  O  O431  1  0.62158924  0.50802762  0.50691645  1
  O  O432  1  0.37655081  0.36984290  0.11825934  1
  O  O433  1  0.36823860  0.37418296  0.61798061  1
  O  O434  1  0.36844398  0.87300337  0.11595737  1
  O  O435  1  0.37365553  0.86827632  0.61774910  1
  O  O436  1  0.87234168  0.37052475  0.11989331  1
  O  O437  1  0.86209306  0.37462608  0.62392002  1
  O  O438  1  0.87350751  0.86722572  0.11778831  1
  O  O439  1  0.87551585  0.86556119  0.62005809  1
  O  O440  1  0.12813688  0.12733917  0.38524614  1
  O  O441  1  0.13275557  0.12556900  0.88361352  1
  O  O442  1  0.13112533  0.62400522  0.38135053  1
  O  O443  1  0.13113673  0.62981042  0.87618687  1
  O  O444  1  0.63008345  0.13167751  0.38056398  1
  O  O445  1  0.63188291  0.12982627  0.87869033  1
  O  O446  1  0.62918810  0.63047761  0.37937800  1
  O  O447  1  0.62313014  0.63226812  0.88279806  1
