# generated using pymatgen
data_V3Zn3O8
_symmetry_space_group_name_H-M   'P 1'
_cell_length_a   17.08828659
_cell_length_b   17.08763229
_cell_length_c   17.08762646
_cell_angle_alpha   90.00225219
_cell_angle_beta   89.98722070
_cell_angle_gamma   89.98294116
_symmetry_Int_Tables_number   1
_chemical_formula_structural   V3Zn3O8
_chemical_formula_sum   'V96 Zn96 O256'
_cell_volume   4989.55851577
_cell_formula_units_Z   32
loop_
 _symmetry_equiv_pos_site_id
 _symmetry_equiv_pos_as_xyz
  1  'x, y, z'
loop_
 _atom_site_type_symbol
 _atom_site_label
 _atom_site_symmetry_multiplicity
 _atom_site_fract_x
 _atom_site_fract_y
 _atom_site_fract_z
 _atom_site_occupancy
  V  V0  1  0.12484049  0.37606023  0.74921535  1
  V  V1  1  0.87507484  0.00013527  0.37447260  1
  V  V2  1  0.37460760  0.62535512  0.74924515  1
  V  V3  1  0.62445690  0.24953219  0.37484853  1
  V  V4  1  0.37508192  0.24989785  0.62527561  1
  V  V5  1  0.24928804  0.74982705  -0.00045096  1
  V  V6  1  0.00138167  0.50125937  0.00033403  1
  V  V7  1  0.62475896  0.25148467  0.87471209  1
  V  V8  1  0.74887943  0.74939874  0.00043153  1
  V  V9  1  0.37528474  0.50017054  0.37490399  1
  V  V10  1  0.49983996  0.12563953  0.62483571  1
  V  V11  1  0.49998749  0.37381736  0.37421893  1
  V  V12  1  0.50059877  0.75220574  0.75026425  1
  V  V13  1  0.87605870  0.37451123  0.49877988  1
  V  V14  1  0.50092059  0.87461132  0.87396822  1
  V  V15  1  0.49982016  0.24937252  0.25037597  1
  V  V16  1  0.49907686  0.62417251  0.12445106  1
  V  V17  1  -0.00041486  0.12463227  0.62579358  1
  V  V18  1  0.37562787  0.87516596  0.00007348  1
  V  V19  1  0.87498689  0.50087273  0.87474446  1
  V  V20  1  0.25124787  0.25107443  0.00014988  1
  V  V21  1  0.49965039  0.50060576  -0.00092503  1
  V  V22  1  0.37545064  0.12569039  0.74936118  1
  V  V23  1  -0.00034353  0.25000056  0.75036398  1
  V  V24  1  0.62317632  0.87275307  0.25170378  1
  V  V25  1  0.37379383  0.50069332  0.87313600  1
  V  V26  1  0.87497365  0.74857509  0.12531057  1
  V  V27  1  0.12499619  0.25013544  0.87513283  1
  V  V28  1  -0.00004412  0.87332948  0.37473133  1
  V  V29  1  0.37531934  0.74948477  0.12533873  1
  V  V30  1  0.75011549  0.74981245  0.50046384  1
  V  V31  1  0.24938639  0.74954924  0.49958646  1
  V  V32  1  0.74966395  0.24912774  0.49868685  1
  V  V33  1  0.37483773  0.37468892  0.50046327  1
  V  V34  1  0.12499550  0.62594302  -0.00046279  1
  V  V35  1  0.00019340  0.49936691  0.49914109  1
  V  V36  1  0.87450127  0.87414187  0.50047486  1
  V  V37  1  0.75065986  0.87510017  0.62641045  1
  V  V38  1  0.87368221  0.25097193  0.12552766  1
  V  V39  1  0.37510450  0.00062807  0.87464796  1
  V  V40  1  0.74969830  0.12704454  0.87602318  1
  V  V41  1  0.62538706  0.12516092  0.50054985  1
  V  V42  1  0.24978458  0.87489180  0.62468556  1
  V  V43  1  0.62422053  0.62460467  0.00048575  1
  V  V44  1  0.00068682  0.12453483  0.12512136  1
  V  V45  1  0.74975522  0.37566797  0.62413781  1
  V  V46  1  -0.00027496  -0.00122367  0.49970956  1
  V  V47  1  0.75050441  0.62420587  0.37437419  1
  V  V48  1  0.87568023  0.87752068  -0.00049642  1
  V  V49  1  0.37502112  0.75007876  0.62480635  1
  V  V50  1  0.00055535  0.37457881  0.37506905  1
  V  V51  1  0.50039605  0.62582555  0.62427897  1
  V  V52  1  0.62459626  0.12618955  -0.00067499  1
  V  V53  1  0.49987602  0.50020139  0.49969485  1
  V  V54  1  0.12502126  0.12481317  0.49997428  1
  V  V55  1  0.24951979  0.49903395  0.24897378  1
  V  V56  1  0.62594150  0.49945596  0.62468886  1
  V  V57  1  0.25093588  -0.00015458  0.25107416  1
  V  V58  1  0.24939689  0.24887757  0.49975588  1
  V  V59  1  0.12476847  0.12468362  0.00042467  1
  V  V60  1  0.75062423  0.00048082  0.75119697  1
  V  V61  1  0.50034372  -0.00145476  0.49924068  1
  V  V62  1  0.24985744  0.12544519  0.87461974  1
  V  V63  1  0.12481348  -0.00005100  0.12473624  1
  V  V64  1  0.24981222  0.87521071  0.12512600  1
  V  V65  1  0.75038820  0.00077878  0.25114641  1
  V  V66  1  0.74885205  0.87413987  0.12559289  1
  V  V67  1  0.50072237  0.37590869  0.87377697  1
  V  V68  1  0.24941423  0.37562184  0.62547731  1
  V  V69  1  0.12499425  0.75123047  0.87538331  1
  V  V70  1  0.12428564  -0.00025277  0.62543994  1
  V  V71  1  0.87500918  0.25020517  0.62444825  1
  V  V72  1  0.37519333  0.12397790  0.25084546  1
  V  V73  1  0.62571458  0.62533941  0.49996227  1
  V  V74  1  0.12432740  0.49985974  0.62434611  1
  V  V75  1  0.50051978  0.12503558  0.12415452  1
  V  V76  1  0.00037861  0.62438799  0.12458369  1
  V  V77  1  0.12702854  0.37525744  0.24899398  1
  V  V78  1  0.37601580  0.87543456  0.49974794  1
  V  V79  1  0.25017905  0.62545963  0.37543645  1
  V  V80  1  0.75040720  0.62474961  0.87347851  1
  V  V81  1  0.00044687  0.74903075  0.25107215  1
  V  V82  1  0.00121088  0.24965341  0.24975612  1
  V  V83  1  0.12450158  0.62449978  0.49991642  1
  V  V84  1  0.50069719  0.00089919  -0.00043043  1
  V  V85  1  0.37391707  0.25080560  0.12365061  1
  V  V86  1  -0.00140652  0.74920982  0.74913119  1
  V  V87  1  0.62597872  0.37588766  0.74938578  1
  V  V88  1  0.87462631  0.12598551  0.75177603  1
  V  V89  1  0.37546897  0.62519897  0.24933737  1
  V  V90  1  0.12586891  0.24861952  0.37534323  1
  V  V91  1  0.12415850  0.87502466  0.75121172  1
  V  V92  1  0.24914768  0.00018115  0.74999824  1
  V  V93  1  -0.00012179  0.37578404  0.87528618  1
  V  V94  1  0.87498286  0.37498536  0.00119163  1
  V  V95  1  0.74859593  0.49826980  0.24778940  1
  Zn  Zn96  1  0.62598535  0.87505223  0.75188143  1
  Zn  Zn97  1  0.12680822  0.49858313  0.12361783  1
  Zn  Zn98  1  0.24825594  0.50251952  0.74940379  1
  Zn  Zn99  1  0.87548097  0.49808598  0.37320970  1
  Zn  Zn100  1  0.62446996  0.37368928  0.24694588  1
  Zn  Zn101  1  0.62475949  0.00031697  0.12486826  1
  Zn  Zn102  1  0.87503071  0.62208511  0.24957850  1
  Zn  Zn103  1  0.62290972  0.49641473  0.12478506  1
  Zn  Zn104  1  0.25026849  0.37649789  0.12263284  1
  Zn  Zn105  1  0.50026053  0.25031996  0.74925177  1
  Zn  Zn106  1  0.37464952  -0.00103518  0.37536852  1
  Zn  Zn107  1  0.12540714  0.87450144  0.25104800  1
  Zn  Zn108  1  0.62496762  0.75138412  0.87397622  1
  Zn  Zn109  1  0.37408872  0.37558066  -0.00011633  1
  Zn  Zn110  1  -0.00263667  0.62446206  0.62380206  1
  Zn  Zn111  1  0.75160010  0.12581812  0.37505297  1
  Zn  Zn112  1  -0.00094050  0.87803272  0.87578049  1
  Zn  Zn113  1  0.74851014  0.25203275  0.00174048  1
  Zn  Zn114  1  0.62571976  0.00144409  0.62579708  1
  Zn  Zn115  1  0.87537676  0.12517612  0.25103265  1
  Zn  Zn116  1  0.74613875  0.37543484  0.12411860  1
  Zn  Zn117  1  -0.00003582  -0.00026810  -0.00022253  1
  Zn  Zn118  1  0.12518043  0.75025858  0.37497315  1
  Zn  Zn119  1  0.87668020  0.00298280  0.87900461  1
  Zn  Zn120  1  0.87560855  0.74614630  0.62580954  1
  Zn  Zn121  1  0.49936252  0.87203570  0.37481108  1
  Zn  Zn122  1  0.75258495  0.50180026  0.74787384  1
  Zn  Zn123  1  0.87565625  0.62403665  0.74733361  1
  Zn  Zn124  1  0.24944311  0.62550586  0.87330372  1
  Zn  Zn125  1  0.50017843  0.74939633  0.25206838  1
  Zn  Zn126  1  0.25140000  0.12320356  0.37643837  1
  Zn  Zn127  1  0.62284780  0.75026405  0.37585901  1
  Zn  Zn128  1  0.18871948  0.18712255  0.18698494  1
  Zn  Zn129  1  0.18739286  0.18808380  0.68724210  1
  Zn  Zn130  1  0.18673845  0.68624669  0.18679634  1
  Zn  Zn131  1  0.18626080  0.68625815  0.68721130  1
  Zn  Zn132  1  0.68642640  0.18662361  0.18771382  1
  Zn  Zn133  1  0.68639840  0.18873279  0.68737030  1
  Zn  Zn134  1  0.68566090  0.68559865  0.18664413  1
  Zn  Zn135  1  0.68624176  0.68934367  0.68852592  1
  Zn  Zn136  1  0.31233308  0.31164237  0.31214073  1
  Zn  Zn137  1  0.31215663  0.31382874  0.81143846  1
  Zn  Zn138  1  0.31452014  0.81293184  0.31386765  1
  Zn  Zn139  1  0.31267344  0.81241026  0.81289404  1
  Zn  Zn140  1  0.81218172  0.31332376  0.31184507  1
  Zn  Zn141  1  0.81097001  0.31374659  0.81287589  1
  Zn  Zn142  1  0.81252669  0.81126255  0.31334968  1
  Zn  Zn143  1  0.81407163  0.81158489  0.81449881  1
  Zn  Zn144  1  0.18739864  0.43711156  0.43672109  1
  Zn  Zn145  1  0.18851438  0.43773512  0.93732531  1
  Zn  Zn146  1  0.18617955  0.93555290  0.43587243  1
  Zn  Zn147  1  0.18706426  0.93727802  0.93793035  1
  Zn  Zn148  1  0.68696419  0.43681919  0.43551401  1
  Zn  Zn149  1  0.68813106  0.43812495  0.93895356  1
  Zn  Zn150  1  0.68659857  0.93768023  0.43678464  1
  Zn  Zn151  1  0.68691856  0.93847897  0.93656939  1
  Zn  Zn152  1  0.31279652  0.06394455  0.06316971  1
  Zn  Zn153  1  0.31296518  0.06227611  0.56299349  1
  Zn  Zn154  1  0.31143732  0.56259511  0.06173586  1
  Zn  Zn155  1  0.31140233  0.56235185  0.56276791  1
  Zn  Zn156  1  0.81040773  0.06401063  0.06498334  1
  Zn  Zn157  1  0.81299432  0.06249937  0.56276385  1
  Zn  Zn158  1  0.81307492  0.56220184  0.06240010  1
  Zn  Zn159  1  0.81520230  0.56231034  0.56210998  1
  Zn  Zn160  1  0.43599432  0.43615526  0.18634858  1
  Zn  Zn161  1  0.43887175  0.43766626  0.68831507  1
  Zn  Zn162  1  0.43823476  0.93808732  0.18619178  1
  Zn  Zn163  1  0.43758013  0.93815935  0.68654096  1
  Zn  Zn164  1  0.93732186  0.43813975  0.18832013  1
  Zn  Zn165  1  0.93710999  0.43899191  0.68741426  1
  Zn  Zn166  1  0.93725607  0.93628394  0.18654656  1
  Zn  Zn167  1  0.93614559  0.93654331  0.68892217  1
  Zn  Zn168  1  0.06317341  0.06239773  0.31171419  1
  Zn  Zn169  1  0.06028719  0.06093103  0.81557209  1
  Zn  Zn170  1  0.06413885  0.56200987  0.31299351  1
  Zn  Zn171  1  0.06275626  0.56431671  0.81286036  1
  Zn  Zn172  1  0.56354440  0.06231483  0.31418358  1
  Zn  Zn173  1  0.56366386  0.06303723  0.81219723  1
  Zn  Zn174  1  0.56380157  0.56193034  0.31115650  1
  Zn  Zn175  1  0.56356731  0.56322485  0.81128311  1
  Zn  Zn176  1  0.43676427  0.18530370  0.43672431  1
  Zn  Zn177  1  0.43851320  0.18926814  0.93658747  1
  Zn  Zn178  1  0.43850404  0.68951383  0.43560927  1
  Zn  Zn179  1  0.43727414  0.68751489  0.93693898  1
  Zn  Zn180  1  0.93734102  0.18604751  0.43595512  1
  Zn  Zn181  1  0.93761645  0.18788483  0.93967169  1
  Zn  Zn182  1  0.93543030  0.68627580  0.43820207  1
  Zn  Zn183  1  0.93760155  0.68972920  0.93632008  1
  Zn  Zn184  1  0.06331064  0.31317956  0.06351008  1
  Zn  Zn185  1  0.06259496  0.31269443  0.56240547  1
  Zn  Zn186  1  0.06222605  0.81274671  0.06427541  1
  Zn  Zn187  1  0.06301064  0.81123012  0.56327718  1
  Zn  Zn188  1  0.56151943  0.31415996  0.06176296  1
  Zn  Zn189  1  0.56229221  0.31190877  0.56209524  1
  Zn  Zn190  1  0.56279170  0.81127310  0.06347136  1
  Zn  Zn191  1  0.56566938  0.81313176  0.56421064  1
  O  O192  1  0.12037570  0.12031087  0.11927484  1
  O  O193  1  0.11884057  0.11945063  0.62058763  1
  O  O194  1  0.11762511  0.62379349  0.11698214  1
  O  O195  1  0.12365721  0.61729123  0.61731793  1
  O  O196  1  0.61773082  0.12409734  0.11780738  1
  O  O197  1  0.61826733  0.12487505  0.61826807  1
  O  O198  1  0.61688763  0.62240414  0.11767730  1
  O  O199  1  0.61992249  0.61958914  0.61957424  1
  O  O200  1  0.38004429  0.38008854  0.38160673  1
  O  O201  1  0.38135096  0.38555643  0.87265425  1
  O  O202  1  0.37820991  0.87822113  0.38456466  1
  O  O203  1  0.37979734  0.88176566  0.88061270  1
  O  O204  1  0.88314205  0.37348999  0.38207948  1
  O  O205  1  0.88121855  0.37955024  0.88052839  1
  O  O206  1  0.88007096  0.88034357  0.38140316  1
  O  O207  1  0.87369997  0.87690062  0.88928801  1
  O  O208  1  0.25034145  0.00060821  0.36309203  1
  O  O209  1  0.25527546  0.00573587  0.86945995  1
  O  O210  1  0.25667496  0.50537839  0.37053826  1
  O  O211  1  0.26186441  0.50183334  0.87198548  1
  O  O212  1  0.75641680  -0.00048297  0.36633448  1
  O  O213  1  0.75239257  0.00726191  0.86594811  1
  O  O214  1  0.75021361  0.50777619  0.36758401  1
  O  O215  1  0.75621915  0.51022344  0.87540288  1
  O  O216  1  0.24855300  0.49820070  0.13328328  1
  O  O217  1  0.24320861  0.49235046  0.62535610  1
  O  O218  1  0.24610341  0.99548152  0.13269940  1
  O  O219  1  0.24395637  0.99487890  0.63057575  1
  O  O220  1  0.74886417  0.50073681  0.13597509  1
  O  O221  1  0.74331208  0.49299912  0.62383595  1
  O  O222  1  0.74852071  0.99362305  0.13607841  1
  O  O223  1  0.75128857  0.99281915  0.63394881  1
  O  O224  1  0.00663697  0.36933808  0.25571997  1
  O  O225  1  0.00490887  0.36872448  0.75546994  1
  O  O226  1  -0.00035454  0.86469026  0.25510290  1
  O  O227  1  0.00625914  0.86727988  0.75089934  1
  O  O228  1  0.49862055  0.36724126  0.25771399  1
  O  O229  1  0.50814389  0.37406384  0.75541616  1
  O  O230  1  0.51146304  0.87631143  0.25011835  1
  O  O231  1  0.50005553  0.87052116  0.75532434  1
  O  O232  1  0.49518467  0.12889741  0.24465802  1
  O  O233  1  0.49283465  0.12502219  0.74329053  1
  O  O234  1  0.49262481  0.62430136  0.24308358  1
  O  O235  1  0.49480629  0.63127076  0.74297028  1
  O  O236  1  0.99954865  0.13185405  0.24301406  1
  O  O237  1  0.99510336  0.13061397  0.74512864  1
  O  O238  1  0.99849841  0.63296960  0.24540749  1
  O  O239  1  1.00042409  0.63756833  0.74876177  1
  O  O240  1  0.36846277  0.24966721  0.00508892  1
  O  O241  1  0.36951425  0.25503539  0.50542256  1
  O  O242  1  0.36936128  0.75580371  0.00517723  1
  O  O243  1  0.36946763  0.75477041  0.50665682  1
  O  O244  1  0.87570122  0.25614692  0.01058702  1
  O  O245  1  0.87070347  0.25423281  0.50564002  1
  O  O246  1  0.86900737  0.75807825  0.00573729  1
  O  O247  1  0.86803126  0.75755395  0.50177770  1
  O  O248  1  0.12967625  0.24428958  0.49582166  1
  O  O249  1  0.13023386  0.24445940  0.99369893  1
  O  O250  1  0.13223029  0.74328724  0.49950845  1
  O  O251  1  0.12960164  0.74635274  0.99537733  1
  O  O252  1  0.63006688  0.24492184  0.49482096  1
  O  O253  1  0.62547767  0.24367624  0.99250986  1
  O  O254  1  0.63275481  0.74266476  0.50047009  1
  O  O255  1  0.63158225  0.74300881  0.99834059  1
  O  O256  1  0.49368051  0.24363706  0.13031345  1
  O  O257  1  0.49220692  0.24381479  0.62525824  1
  O  O258  1  0.49196129  0.74266859  0.12604396  1
  O  O259  1  0.49431183  0.74518752  0.62925776  1
  O  O260  1  0.99313528  0.24496305  0.13024764  1
  O  O261  1  0.99498480  0.24447005  0.63052564  1
  O  O262  1  0.99499798  0.74476114  0.13316640  1
  O  O263  1  0.99940526  0.74954025  0.63651502  1
  O  O264  1  0.00635459  0.25448923  0.37001865  1
  O  O265  1  0.00547393  0.25549348  0.86975824  1
  O  O266  1  -0.00152910  0.75424982  0.36611302  1
  O  O267  1  0.00653699  0.75401385  0.86624931  1
  O  O268  1  0.50401939  0.25438402  0.37044877  1
  O  O269  1  0.50634110  0.25734167  0.87191702  1
  O  O270  1  0.50499767  0.75323296  0.37057807  1
  O  O271  1  0.49863760  0.75720009  0.86818567  1
  O  O272  1  0.24274387  0.13061388  0.50073874  1
  O  O273  1  0.24471559  0.13023367  0.99331172  1
  O  O274  1  0.24562054  0.63009741  0.49487625  1
  O  O275  1  0.24336821  0.63297876  0.99836393  1
  O  O276  1  0.74418712  0.13150648  0.49990974  1
  O  O277  1  0.74290971  0.12688875  0.99401759  1
  O  O278  1  0.74498161  0.62863410  0.49304210  1
  O  O279  1  0.74511136  0.62933831  0.99254685  1
  O  O280  1  0.25255798  0.36609599  0.00022943  1
  O  O281  1  0.25557179  0.36898388  0.50539100  1
  O  O282  1  0.25660855  0.87040783  0.00546050  1
  O  O283  1  0.25472695  0.87035323  0.50607638  1
  O  O284  1  0.75976117  0.37317022  0.00272128  1
  O  O285  1  0.75536164  0.36876283  0.50455411  1
  O  O286  1  0.75546483  0.87004314  0.00578704  1
  O  O287  1  0.75440876  0.87141569  0.50777631  1
  O  O288  1  0.13225214  0.49322810  0.24961828  1
  O  O289  1  0.12473892  0.49315139  0.74385177  1
  O  O290  1  0.13521084  0.99905611  0.24338736  1
  O  O291  1  0.12980497  0.99582547  0.74478553  1
  O  O292  1  0.63538725  0.49757604  0.24814464  1
  O  O293  1  0.62722424  0.49436075  0.74166752  1
  O  O294  1  0.63433733  0.99177928  0.25011432  1
  O  O295  1  0.63915680  0.99975389  0.74802869  1
  O  O296  1  0.36584831  0.00472947  0.24931285  1
  O  O297  1  0.36814683  0.00554425  0.75477674  1
  O  O298  1  0.36976079  0.50543662  0.25647591  1
  O  O299  1  0.37550914  0.50640879  0.75783859  1
  O  O300  1  0.86525140  -0.00206966  0.25506147  1
  O  O301  1  0.86532019  0.00713184  0.75114431  1
  O  O302  1  0.86462160  0.50230983  0.25310149  1
  O  O303  1  0.87339482  0.50207406  0.75931110  1
  O  O304  1  0.11997883  0.36774689  0.37014445  1
  O  O305  1  0.11913632  0.36943785  0.86934705  1
  O  O306  1  0.11571482  0.87079240  0.37213108  1
  O  O307  1  0.12448234  0.86932176  0.86855983  1
  O  O308  1  0.61643541  0.36709483  0.37474565  1
  O  O309  1  0.62056471  0.37164573  0.86933523  1
  O  O310  1  0.62473814  0.87291424  0.36397629  1
  O  O311  1  0.61662835  0.87283928  0.87297228  1
  O  O312  1  0.38123279  0.13064686  0.13056477  1
  O  O313  1  0.37922765  0.13062705  0.63022991  1
  O  O314  1  0.37922800  0.63047912  0.12976250  1
  O  O315  1  0.38115823  0.63039553  0.62854982  1
  O  O316  1  0.88134327  0.13512333  0.12629448  1
  O  O317  1  0.88089343  0.13089947  0.63080690  1
  O  O318  1  0.88260506  0.63233288  0.12491957  1
  O  O319  1  0.87865854  0.62812795  0.62898396  1
  O  O320  1  0.25687168  0.24904360  0.11757419  1
  O  O321  1  0.25477694  0.25561857  0.61921191  1
  O  O322  1  0.25523638  0.75540042  0.11945042  1
  O  O323  1  0.25530210  0.75579987  0.61968988  1
  O  O324  1  0.76283814  0.25044623  0.12589155  1
  O  O325  1  0.75588759  0.25564412  0.61881485  1
  O  O326  1  0.75548796  0.75381317  0.11994020  1
  O  O327  1  0.75167608  0.75988854  0.62081822  1
  O  O328  1  0.24352962  0.24786422  0.38238295  1
  O  O329  1  0.24439548  0.24433247  0.87873154  1
  O  O330  1  0.24972027  0.74339267  0.38192654  1
  O  O331  1  0.24401791  0.75006159  0.88219745  1
  O  O332  1  0.74357891  0.24887593  0.38112757  1
  O  O333  1  0.74296609  0.24421824  0.87635109  1
  O  O334  1  0.74823619  0.74026687  0.38100348  1
  O  O335  1  0.74959480  0.74021374  0.88153583  1
  O  O336  1  0.00774213  0.12465432  0.00719597  1
  O  O337  1  0.00496068  0.11874448  0.50659156  1
  O  O338  1  0.00523842  0.62131532  0.00437262  1
  O  O339  1  0.00659544  0.61783451  0.49930674  1
  O  O340  1  0.50467226  0.11980293  0.00379942  1
  O  O341  1  0.50400519  0.11722697  0.50548411  1
  O  O342  1  0.50427992  0.62028877  0.00426831  1
  O  O343  1  0.50493503  0.61961647  0.50534412  1
  O  O344  1  0.49369558  0.38050928  0.49508441  1
  O  O345  1  0.49695488  0.38266007  0.99070303  1
  O  O346  1  0.49568524  0.88418305  0.50363130  1
  O  O347  1  0.49418935  0.88059150  0.99523342  1
  O  O348  1  0.99580379  0.37862097  0.49430675  1
  O  O349  1  0.99589429  0.38046095  0.99373813  1
  O  O350  1  0.99483734  0.87996052  0.49582195  1
  O  O351  1  0.98709817  0.87510973  1.00168495  1
  O  O352  1  0.49441370  0.49499843  0.38067286  1
  O  O353  1  0.49201987  0.49661334  0.87854217  1
  O  O354  1  0.49891924  0.99826691  0.38934505  1
  O  O355  1  0.49365419  0.99563674  0.87951403  1
  O  O356  1  0.99940872  0.49207901  0.38100753  1
  O  O357  1  0.99522648  0.49481717  0.88063279  1
  O  O358  1  0.99542515  0.99372419  0.38023545  1
  O  O359  1  0.99465104  0.99626108  0.88095684  1
  O  O360  1  0.00665735  0.00624400  0.12471906  1
  O  O361  1  0.00459278  0.00476847  0.62019263  1
  O  O362  1  0.00115397  0.50671685  0.11784536  1
  O  O363  1  0.00746137  0.49885762  0.61692489  1
  O  O364  1  0.50079066  0.00751397  0.11694009  1
  O  O365  1  0.50138957  0.00617207  0.61548515  1
  O  O366  1  0.49699944  0.50697211  0.11676482  1
  O  O367  1  0.50520860  0.50585700  0.61853277  1
  O  O368  1  0.24434928  0.38146617  0.25059843  1
  O  O369  1  0.24215013  0.37623582  0.74278582  1
  O  O370  1  0.25034343  0.88384869  0.24363963  1
  O  O371  1  0.24501878  0.88083692  0.74423948  1
  O  O372  1  0.74802467  0.38612116  0.24938057  1
  O  O373  1  0.74403968  0.37722769  0.74178269  1
  O  O374  1  0.74367779  0.88154986  0.24604329  1
  O  O375  1  0.75293790  0.88341271  0.74364185  1
  O  O376  1  0.25593355  0.11441309  0.24975555  1
  O  O377  1  0.25447452  0.11951491  0.75482723  1
  O  O378  1  0.25556818  0.61974707  0.25552030  1
  O  O379  1  0.25867200  0.62326546  0.75164998  1
  O  O380  1  0.75087054  0.11184976  0.25139441  1
  O  O381  1  0.75517703  0.11886855  0.75407362  1
  O  O382  1  0.74967966  0.61793974  0.25864804  1
  O  O383  1  0.75068889  0.62495371  0.76223944  1
  O  O384  1  0.37186272  0.12086361  0.36686382  1
  O  O385  1  0.36940888  0.11980033  0.86927702  1
  O  O386  1  0.36981320  0.61894009  0.37015422  1
  O  O387  1  0.37537912  0.61579780  0.86805616  1
  O  O388  1  0.87315017  0.11613093  0.37174923  1
  O  O389  1  0.86820342  0.12675899  0.86910991  1
  O  O390  1  0.86093703  0.62178316  0.37472311  1
  O  O391  1  0.86521705  0.61988910  0.87632188  1
  O  O392  1  0.12802759  0.37674420  0.13376087  1
  O  O393  1  0.12992340  0.37934074  0.62979051  1
  O  O394  1  0.13264455  0.88147194  0.12624668  1
  O  O395  1  0.13084086  0.88122785  0.63043230  1
  O  O396  1  0.62767198  0.37783480  0.12843248  1
  O  O397  1  0.63009663  0.37991427  0.62832905  1
  O  O398  1  0.63106242  0.87706338  0.13359228  1
  O  O399  1  0.63972524  0.87874348  0.62786591  1
  O  O400  1  0.12088720  0.25426933  0.25563530  1
  O  O401  1  0.11898379  0.25508107  0.75509955  1
  O  O402  1  0.11240961  0.75114304  0.25094644  1
  O  O403  1  0.11879727  0.75604608  0.75461428  1
  O  O404  1  0.61720362  0.24916144  0.25718101  1
  O  O405  1  0.62346065  0.25767062  0.75617658  1
  O  O406  1  0.62498585  0.76169540  0.25012595  1
  O  O407  1  0.61558516  0.75353062  0.75256511  1
  O  O408  1  0.38009126  0.24337312  0.24484597  1
  O  O409  1  0.37545737  0.24325258  0.74314328  1
  O  O410  1  0.37500407  0.74303845  0.24257537  1
  O  O411  1  0.38016578  0.74566929  0.74339004  1
  O  O412  1  0.88217385  0.24976168  0.24132574  1
  O  O413  1  0.88042020  0.24592403  0.74412287  1
  O  O414  1  0.88426830  0.74821597  0.24418802  1
  O  O415  1  0.88714335  0.74986726  0.75007736  1
  O  O416  1  0.38032792  0.49465511  0.49492496  1
  O  O417  1  0.38019667  0.50091710  0.98789487  1
  O  O418  1  0.38398233  0.99442543  0.50161798  1
  O  O419  1  0.37979692  0.99544326  0.99394364  1
  O  O420  1  0.88198843  0.49099455  0.49763724  1
  O  O421  1  0.88209398  0.49474692  0.99449530  1
  O  O422  1  0.88104664  0.99448028  0.49527014  1
  O  O423  1  0.87390381  0.98876958  1.00304200  1
  O  O424  1  0.12609949  0.00723539  0.00716096  1
  O  O425  1  0.11922175  0.00413091  0.50618509  1
  O  O426  1  0.11859923  0.50695913  -0.00078355  1
  O  O427  1  0.12002691  0.50400373  0.50461970  1
  O  O428  1  0.61810153  0.00765320  0.00072005  1
  O  O429  1  0.61675869  0.00572198  0.50215352  1
  O  O430  1  0.61681187  0.50727687  0.00014079  1
  O  O431  1  0.61883652  0.50496200  0.50510447  1
  O  O432  1  0.37231003  0.36529875  0.12150624  1
  O  O433  1  0.37023875  0.37036973  0.61974368  1
  O  O434  1  0.36991185  0.86990890  0.11868579  1
  O  O435  1  0.36845814  0.86945057  0.62022962  1
  O  O436  1  0.87693322  0.36463792  0.11961586  1
  O  O437  1  0.87031343  0.36875252  0.61913055  1
  O  O438  1  0.86838937  0.86838340  0.11817076  1
  O  O439  1  0.86444292  0.87494207  0.61914355  1
  O  O440  1  0.12565722  0.13083101  0.38294826  1
  O  O441  1  0.13066113  0.13084253  0.87933919  1
  O  O442  1  0.13309480  0.62638224  0.38218655  1
  O  O443  1  0.12687846  0.63305123  0.88189466  1
  O  O444  1  0.62655496  0.13210385  0.38306995  1
  O  O445  1  0.62971586  0.13154834  0.87946046  1
  O  O446  1  0.63528032  0.62464949  0.38163308  1
  O  O447  1  0.63460876  0.62568599  0.88112377  1
