# generated using pymatgen
data_V3Zn3O8
_symmetry_space_group_name_H-M   'P 1'
_cell_length_a   17.08500689
_cell_length_b   17.08685253
_cell_length_c   17.08484907
_cell_angle_alpha   89.99615981
_cell_angle_beta   89.99995076
_cell_angle_gamma   90.00819514
_symmetry_Int_Tables_number   1
_chemical_formula_structural   V3Zn3O8
_chemical_formula_sum   'V96 Zn96 O256'
_cell_volume   4987.56272500
_cell_formula_units_Z   32
loop_
 _symmetry_equiv_pos_site_id
 _symmetry_equiv_pos_as_xyz
  1  'x, y, z'
loop_
 _atom_site_type_symbol
 _atom_site_label
 _atom_site_symmetry_multiplicity
 _atom_site_fract_x
 _atom_site_fract_y
 _atom_site_fract_z
 _atom_site_occupancy
  V  V0  1  0.87525511  0.87486832  -0.00006775  1
  V  V1  1  0.49921511  0.12509002  0.62537975  1
  V  V2  1  0.50012205  0.75052198  0.25041772  1
  V  V3  1  0.12557190  0.62496690  0.50012960  1
  V  V4  1  0.87503490  0.62459957  0.25036585  1
  V  V5  1  0.87456342  -0.00123275  0.87459057  1
  V  V6  1  0.62594680  0.49876904  0.62487472  1
  V  V7  1  0.50091278  0.50107272  0.00037612  1
  V  V8  1  0.87525791  0.75107799  0.12519779  1
  V  V9  1  0.12615395  0.62548387  -0.00017564  1
  V  V10  1  0.75049281  0.37426326  0.62423375  1
  V  V11  1  0.62506960  0.00000079  0.62490453  1
  V  V12  1  -0.00007731  0.62439552  0.62535304  1
  V  V13  1  0.12457697  0.25006310  0.87440527  1
  V  V14  1  0.12440736  -0.00122641  0.62557534  1
  V  V15  1  0.87475203  0.50033791  0.37429976  1
  V  V16  1  0.37455893  0.37549913  0.49907757  1
  V  V17  1  -0.00033357  0.87475550  0.87600203  1
  V  V18  1  0.12460700  0.74989314  0.37567199  1
  V  V19  1  0.37459310  0.87565797  0.00171598  1
  V  V20  1  0.87352520  0.74986243  0.62440700  1
  V  V21  1  0.74964119  0.87725329  0.12589907  1
  V  V22  1  0.24907243  0.87514038  0.12582340  1
  V  V23  1  0.37447878  0.00029976  0.37584710  1
  V  V24  1  -0.00054879  0.49968810  -0.00095637  1
  V  V25  1  0.62527379  0.74886109  0.87554138  1
  V  V26  1  0.24857155  0.12617315  0.37562747  1
  V  V27  1  0.12645525  0.74961239  0.87541206  1
  V  V28  1  0.50047914  0.25106786  0.24922953  1
  V  V29  1  0.50043086  0.12556620  0.12445244  1
  V  V30  1  0.25097154  0.50120091  0.25034391  1
  V  V31  1  -0.00013161  0.24830285  0.74980782  1
  V  V32  1  0.00048502  0.75038357  0.25095980  1
  V  V33  1  0.37470594  0.50094378  0.87429675  1
  V  V34  1  0.62477414  0.87511623  0.74935252  1
  V  V35  1  0.74964183  0.62463106  0.87493288  1
  V  V36  1  0.37592575  0.24872593  0.62692287  1
  V  V37  1  0.00035440  0.62539060  0.12529988  1
  V  V38  1  0.37430067  0.00112163  0.87443160  1
  V  V39  1  0.12526941  0.50091903  0.12469642  1
  V  V40  1  0.50266340  0.37309712  0.87253235  1
  V  V41  1  0.37559735  0.75057413  0.12528462  1
  V  V42  1  0.49996774  0.87610266  0.37453026  1
  V  V43  1  -0.00086980  -0.00168711  0.49956620  1
  V  V44  1  0.24900833  0.00029450  0.24922122  1
  V  V45  1  0.74980335  0.00054237  0.75043501  1
  V  V46  1  0.37484919  0.37563690  -0.00058172  1
  V  V47  1  -0.00002169  0.74918844  0.75019480  1
  V  V48  1  -0.00038840  0.12329149  0.62554204  1
  V  V49  1  0.25015110  0.37597806  0.12524850  1
  V  V50  1  -0.00026452  0.49867946  0.50040411  1
  V  V51  1  0.62518175  0.87632813  0.24923629  1
  V  V52  1  0.37512104  0.62495388  0.25161081  1
  V  V53  1  0.50054607  0.00017570  0.49982898  1
  V  V54  1  0.25012650  0.62582971  0.37515053  1
  V  V55  1  0.12476652  0.12417606  0.49972342  1
  V  V56  1  0.25044579  0.62502396  0.87524218  1
  V  V57  1  0.74959236  0.49823748  0.74947908  1
  V  V58  1  0.25077567  0.00040430  0.75077968  1
  V  V59  1  0.87544959  0.25134834  0.12462691  1
  V  V60  1  0.62515935  0.75013841  0.37634404  1
  V  V61  1  0.24903904  0.25093789  -0.00000250  1
  V  V62  1  0.37482117  0.87445669  0.50072022  1
  V  V63  1  0.75043362  0.50066571  0.25001117  1
  V  V64  1  0.00012924  0.87446082  0.37497056  1
  V  V65  1  0.50170270  0.00083531  0.00081099  1
  V  V66  1  0.50079879  0.62507458  0.12557792  1
  V  V67  1  0.62500203  0.50175649  0.12545581  1
  V  V68  1  0.49967082  0.49913117  0.49999912  1
  V  V69  1  0.12528241  0.12454075  0.00046359  1
  V  V70  1  0.12484178  0.87469416  0.75041546  1
  V  V71  1  0.12351996  0.37351392  0.75002680  1
  V  V72  1  0.74989668  0.24949689  0.49882284  1
  V  V73  1  0.62620919  0.62556048  0.49996541  1
  V  V74  1  0.24954497  0.37448678  0.62483145  1
  V  V75  1  0.87477091  0.62440523  0.74972836  1
  V  V76  1  0.62472774  0.24994271  0.37410136  1
  V  V77  1  0.75124609  0.37554523  0.12416680  1
  V  V78  1  0.49835352  0.74890010  0.74960615  1
  V  V79  1  0.12507487  0.37550793  0.25069884  1
  V  V80  1  0.37535388  0.25142828  0.12517926  1
  V  V81  1  0.62584575  0.12553626  0.49859144  1
  V  V82  1  0.00025548  0.12460240  0.12628786  1
  V  V83  1  0.87362107  0.00084897  0.37302927  1
  V  V84  1  0.87597481  0.50001765  0.87545443  1
  V  V85  1  0.62471729  0.37511400  0.25032599  1
  V  V86  1  0.74908657  0.24923672  -0.00235995  1
  V  V87  1  0.37484851  0.75048208  0.62580980  1
  V  V88  1  0.24953761  0.50010747  0.75077701  1
  V  V89  1  0.87491896  0.37370243  0.49975642  1
  V  V90  1  0.24989839  0.87441789  0.62452538  1
  V  V91  1  0.75021525  0.87313966  0.62425639  1
  V  V92  1  0.00122447  0.37416041  0.37477802  1
  V  V93  1  0.87465242  0.12367305  0.75006966  1
  V  V94  1  0.00062086  0.25133112  0.24997488  1
  V  V95  1  0.12463981  0.49914846  0.62569790  1
  Zn  Zn96  1  0.24799885  0.25018674  0.49973725  1
  Zn  Zn97  1  0.25146723  0.74990569  -0.00010510  1
  Zn  Zn98  1  0.87415236  0.24788901  0.62471618  1
  Zn  Zn99  1  0.87197047  0.12602292  0.24970578  1
  Zn  Zn100  1  0.37498676  0.50002690  0.37515171  1
  Zn  Zn101  1  0.24975138  0.12630880  0.87294641  1
  Zn  Zn102  1  0.50409159  0.24760958  0.75081069  1
  Zn  Zn103  1  0.49889740  0.37457132  0.37315599  1
  Zn  Zn104  1  -0.00128662  0.37414236  0.87584344  1
  Zn  Zn105  1  0.00080186  -0.00077687  0.00109540  1
  Zn  Zn106  1  0.49772015  0.62384726  0.62598069  1
  Zn  Zn107  1  0.12364189  -0.00173756  0.12473574  1
  Zn  Zn108  1  0.62643464  0.62582933  0.00135801  1
  Zn  Zn109  1  0.74922178  0.74892256  0.00039176  1
  Zn  Zn110  1  0.74762987  0.12502380  0.87504809  1
  Zn  Zn111  1  0.75061875  0.62700589  0.37437341  1
  Zn  Zn112  1  0.75147576  0.75011558  0.49846833  1
  Zn  Zn113  1  0.62649017  0.00179198  0.12555041  1
  Zn  Zn114  1  0.37434697  0.12771189  0.25117179  1
  Zn  Zn115  1  0.12433768  0.87429469  0.24941460  1
  Zn  Zn116  1  0.62612672  0.24710703  0.87141929  1
  Zn  Zn117  1  0.12484441  0.25063284  0.37679835  1
  Zn  Zn118  1  0.62590983  0.37280978  0.74907255  1
  Zn  Zn119  1  0.25037635  0.74965657  0.50041973  1
  Zn  Zn120  1  0.75026141  0.12505458  0.37107746  1
  Zn  Zn121  1  0.74749097  0.00362040  0.25039019  1
  Zn  Zn122  1  0.87272772  0.87246943  0.49919393  1
  Zn  Zn123  1  0.37444371  0.62448557  0.74846456  1
  Zn  Zn124  1  0.87661365  0.37533961  -0.00210703  1
  Zn  Zn125  1  0.37505731  0.12568554  0.75076720  1
  Zn  Zn126  1  0.62615505  0.12512612  -0.00292768  1
  Zn  Zn127  1  0.50032376  0.87530962  0.87679685  1
  Zn  Zn128  1  0.18619956  0.18914761  0.18828733  1
  Zn  Zn129  1  0.18904735  0.18588463  0.68732962  1
  Zn  Zn130  1  0.18753742  0.68856196  0.18871303  1
  Zn  Zn131  1  0.18857943  0.68731373  0.68786901  1
  Zn  Zn132  1  0.68809278  0.18731136  0.18637484  1
  Zn  Zn133  1  0.68720992  0.18903369  0.68786408  1
  Zn  Zn134  1  0.68839991  0.68917218  0.18910076  1
  Zn  Zn135  1  0.68681010  0.68556899  0.68656557  1
  Zn  Zn136  1  0.31269482  0.31220866  0.31225476  1
  Zn  Zn137  1  0.31218443  0.31345065  0.81267116  1
  Zn  Zn138  1  0.31213543  0.81187965  0.31324194  1
  Zn  Zn139  1  0.31279601  0.81416733  0.81372862  1
  Zn  Zn140  1  0.81293644  0.31158921  0.31191989  1
  Zn  Zn141  1  0.81480027  0.31313541  0.81233833  1
  Zn  Zn142  1  0.81173264  0.81337205  0.31286575  1
  Zn  Zn143  1  0.81191203  0.81251803  0.81116444  1
  Zn  Zn144  1  0.18825243  0.43936164  0.43686512  1
  Zn  Zn145  1  0.18571847  0.43714876  0.93657587  1
  Zn  Zn146  1  0.18647882  0.93681311  0.43768354  1
  Zn  Zn147  1  0.18781126  0.93833041  0.93816028  1
  Zn  Zn148  1  0.68808006  0.43655717  0.43567201  1
  Zn  Zn149  1  0.68786134  0.43682471  0.93865513  1
  Zn  Zn150  1  0.68912819  0.93672810  0.43820320  1
  Zn  Zn151  1  0.68811127  0.93559131  0.93741071  1
  Zn  Zn152  1  0.31348545  0.06400588  0.06225180  1
  Zn  Zn153  1  0.31160117  0.06140727  0.56211314  1
  Zn  Zn154  1  0.31355216  0.56319815  0.06196081  1
  Zn  Zn155  1  0.31223352  0.56419678  0.56429399  1
  Zn  Zn156  1  0.81503378  0.06263355  0.06045812  1
  Zn  Zn157  1  0.81202680  0.06168900  0.56088918  1
  Zn  Zn158  1  0.81227896  0.56376546  0.06083445  1
  Zn  Zn159  1  0.81203215  0.56191254  0.56241130  1
  Zn  Zn160  1  0.43765596  0.43816085  0.18740433  1
  Zn  Zn161  1  0.43724398  0.43698830  0.68777229  1
  Zn  Zn162  1  0.43571069  0.93902407  0.18901922  1
  Zn  Zn163  1  0.43841508  0.93609406  0.68827123  1
  Zn  Zn164  1  0.93705926  0.43719652  0.18625126  1
  Zn  Zn165  1  0.93612696  0.43525040  0.68805417  1
  Zn  Zn166  1  0.93719224  0.93813383  0.18926911  1
  Zn  Zn167  1  0.93636280  0.93598156  0.68776753  1
  Zn  Zn168  1  0.06261966  0.06152507  0.31224633  1
  Zn  Zn169  1  0.06153173  0.06193520  0.81432698  1
  Zn  Zn170  1  0.06259104  0.56243268  0.31310157  1
  Zn  Zn171  1  0.06270695  0.56197784  0.81312280  1
  Zn  Zn172  1  0.56358952  0.06354772  0.31068638  1
  Zn  Zn173  1  0.56280928  0.06644930  0.81253102  1
  Zn  Zn174  1  0.56258518  0.56241820  0.31451556  1
  Zn  Zn175  1  0.56327702  0.56191161  0.81207646  1
  Zn  Zn176  1  0.43749124  0.18828648  0.43738306  1
  Zn  Zn177  1  0.43649601  0.18750379  0.93818597  1
  Zn  Zn178  1  0.43783070  0.68789015  0.43820937  1
  Zn  Zn179  1  0.43735918  0.68709098  0.93797605  1
  Zn  Zn180  1  0.93741466  0.18663166  0.43710930  1
  Zn  Zn181  1  0.93592783  0.18718348  0.93669738  1
  Zn  Zn182  1  0.93740004  0.68726533  0.43828278  1
  Zn  Zn183  1  0.93701070  0.68769962  0.93839565  1
  Zn  Zn184  1  0.06187579  0.31313724  0.06194939  1
  Zn  Zn185  1  0.06219823  0.30895020  0.56246498  1
  Zn  Zn186  1  0.06300396  0.81174581  0.06151671  1
  Zn  Zn187  1  0.06102353  0.81182297  0.56113307  1
  Zn  Zn188  1  0.56486936  0.31402908  0.06082413  1
  Zn  Zn189  1  0.56290291  0.31215583  0.56250211  1
  Zn  Zn190  1  0.56299400  0.81342051  0.06225232  1
  Zn  Zn191  1  0.56198710  0.81246809  0.56330298  1
  O  O192  1  0.11751393  0.12678707  0.11627178  1
  O  O193  1  0.12004419  0.11716168  0.62032716  1
  O  O194  1  0.12034675  0.62041591  0.12029164  1
  O  O195  1  0.11952906  0.61913005  0.62066645  1
  O  O196  1  0.61081608  0.12361232  0.12139971  1
  O  O197  1  0.61907702  0.11881621  0.61846717  1
  O  O198  1  0.61827731  0.62015960  0.12577705  1
  O  O199  1  0.62222909  0.61843568  0.61524820  1
  O  O200  1  0.37524099  0.37605438  0.38761295  1
  O  O201  1  0.38159193  0.38118175  0.88067517  1
  O  O202  1  0.38040741  0.88037730  0.38032578  1
  O  O203  1  0.37602544  0.88578618  0.88218201  1
  O  O204  1  0.88165863  0.38113757  0.37977549  1
  O  O205  1  0.87882265  0.38528436  0.87627247  1
  O  O206  1  0.88174452  0.88313057  0.37613066  1
  O  O207  1  0.88027201  0.87807685  0.87942314  1
  O  O208  1  0.25408858  0.00637929  0.36780825  1
  O  O209  1  0.25901777  0.00068366  0.87035630  1
  O  O210  1  0.25171754  0.50769041  0.36761002  1
  O  O211  1  0.25484631  0.50443902  0.87034799  1
  O  O212  1  0.76130150  0.00008336  0.37440178  1
  O  O213  1  0.75665777  -0.00146248  0.86784859  1
  O  O214  1  0.75714757  0.50125107  0.36754267  1
  O  O215  1  0.75501675  0.50517801  0.86941823  1
  O  O216  1  0.24509494  0.49520373  0.13013241  1
  O  O217  1  0.24377849  0.49438534  0.63075215  1
  O  O218  1  0.25214156  0.99276487  0.13338956  1
  O  O219  1  0.24401694  0.99382118  0.63034816  1
  O  O220  1  0.74518341  0.49609285  0.13053686  1
  O  O221  1  0.74541335  0.49447086  0.62965178  1
  O  O222  1  0.75009187  0.98775007  0.12467754  1
  O  O223  1  0.74377176  0.99396446  0.63019849  1
  O  O224  1  0.00604589  0.37174997  0.25482277  1
  O  O225  1  0.00679195  0.36708297  0.74957156  1
  O  O226  1  0.00237204  0.86789589  0.25583194  1
  O  O227  1  0.00561042  0.86851330  0.75560043  1
  O  O228  1  0.50639780  0.36940023  0.24999399  1
  O  O229  1  0.50033364  0.37494629  0.76157487  1
  O  O230  1  0.50386676  0.87008128  0.25491774  1
  O  O231  1  0.50629398  0.86455597  0.75158214  1
  O  O232  1  0.49713403  0.13086381  0.24004802  1
  O  O233  1  0.49441548  0.12668244  0.74074191  1
  O  O234  1  0.49487482  0.63038714  0.24576166  1
  O  O235  1  0.49879516  0.63740038  0.74860094  1
  O  O236  1  1.00362498  0.13189252  0.23946162  1
  O  O237  1  0.99547009  0.12818368  0.74446349  1
  O  O238  1  0.99480998  0.62964388  0.24432866  1
  O  O239  1  0.99513291  0.62960092  0.74442470  1
  O  O240  1  0.36860296  0.25644298  0.00557308  1
  O  O241  1  0.37393967  0.25939564  0.50859651  1
  O  O242  1  0.37455679  0.75733651  0.00722947  1
  O  O243  1  0.37499938  0.75740292  0.50693062  1
  O  O244  1  0.86703871  0.25197196  0.00606057  1
  O  O245  1  0.86910713  0.25640176  0.50054687  1
  O  O246  1  0.87396631  0.75670402  0.00739741  1
  O  O247  1  0.87261931  0.75016585  0.50873913  1
  O  O248  1  0.12828303  0.24079151  0.49721862  1
  O  O249  1  0.12963658  0.24330738  0.99525459  1
  O  O250  1  0.12563984  0.74201449  0.49425358  1
  O  O251  1  0.12739765  0.74311711  0.99322310  1
  O  O252  1  0.62943399  0.24509132  0.49398829  1
  O  O253  1  0.63769013  0.25006928  0.99905447  1
  O  O254  1  0.62228636  0.73974603  0.49585417  1
  O  O255  1  0.62449150  0.74921393  0.98662824  1
  O  O256  1  0.49533791  0.24383989  0.12751609  1
  O  O257  1  0.49041959  0.24465636  0.62350120  1
  O  O258  1  0.49529715  0.74562543  0.13110232  1
  O  O259  1  0.49435992  0.75038906  0.63524102  1
  O  O260  1  0.99622945  0.24369161  0.12959668  1
  O  O261  1  0.99868723  0.24069877  0.63170291  1
  O  O262  1  0.99540203  0.74470633  0.13083513  1
  O  O263  1  0.99509803  0.74368407  0.63132565  1
  O  O264  1  0.00150310  0.25679034  0.36834359  1
  O  O265  1  0.00675265  0.25047189  0.86791337  1
  O  O266  1  0.00461743  0.75430007  0.37011477  1
  O  O267  1  0.00602505  0.75431183  0.86905734  1
  O  O268  1  0.50569293  0.25129096  0.36752615  1
  O  O269  1  0.49766212  0.26216358  0.87555831  1
  O  O270  1  0.50465219  0.75685334  0.36950516  1
  O  O271  1  0.50729623  0.75140873  0.86676372  1
  O  O272  1  0.24376160  0.12211646  0.48999762  1
  O  O273  1  0.24011743  0.13207740  1.00172495  1
  O  O274  1  0.24289188  0.62564986  0.49387201  1
  O  O275  1  0.24384673  0.62631618  0.99391227  1
  O  O276  1  0.74254066  0.13120091  0.49811708  1
  O  O277  1  0.74912100  0.13611152  1.00105979  1
  O  O278  1  0.73663383  0.62442605  0.49815970  1
  O  O279  1  0.74689589  0.62951433  0.99169158  1
  O  O280  1  0.25462801  0.37107325  0.00586436  1
  O  O281  1  0.25898083  0.37593421  0.50584726  1
  O  O282  1  0.25571455  0.87545952  0.01085375  1
  O  O283  1  0.25676110  0.87446342  0.50659113  1
  O  O284  1  0.75251543  0.36725126  0.00681457  1
  O  O285  1  0.75584411  0.37017352  0.50417718  1
  O  O286  1  0.75560599  0.87183745  0.00930762  1
  O  O287  1  0.75095122  0.87110609  0.50957315  1
  O  O288  1  0.13069084  0.49588187  0.24369026  1
  O  O289  1  0.12941697  0.49404999  0.74460524  1
  O  O290  1  0.13848235  0.99792325  0.24788441  1
  O  O291  1  0.12977899  0.99372425  0.74555848  1
  O  O292  1  0.62996950  0.49553395  0.24539597  1
  O  O293  1  0.63183250  0.49859489  0.74262913  1
  O  O294  1  0.62534879  0.99139401  0.24588246  1
  O  O295  1  0.62903669  0.99469032  0.74409076  1
  O  O296  1  0.36405645  0.00241000  0.25660424  1
  O  O297  1  0.37034107  -0.00223826  0.75979645  1
  O  O298  1  0.36915814  0.50654207  0.25126783  1
  O  O299  1  0.36744657  0.50072517  0.75588081  1
  O  O300  1  0.87479079  0.00210757  0.26190477  1
  O  O301  1  0.86954454  0.00342483  0.75508719  1
  O  O302  1  0.87061956  0.50508466  0.25458076  1
  O  O303  1  0.86997987  0.50611002  0.75450008  1
  O  O304  1  0.11930989  0.37509886  0.36870684  1
  O  O305  1  0.12330907  0.36827000  0.86746979  1
  O  O306  1  0.11865701  0.86809445  0.37345663  1
  O  O307  1  0.12034512  0.86976091  0.87020243  1
  O  O308  1  0.62267344  0.36840070  0.36777627  1
  O  O309  1  0.61255259  0.37520412  0.87488483  1
  O  O310  1  0.61846644  0.87046095  0.37031877  1
  O  O311  1  0.62338778  0.86501294  0.86820782  1
  O  O312  1  0.38408204  0.13273933  0.12583782  1
  O  O313  1  0.37960022  0.13411803  0.62184787  1
  O  O314  1  0.38047343  0.63066536  0.13147049  1
  O  O315  1  0.37737060  0.63365315  0.62829563  1
  O  O316  1  0.88747906  0.13082601  0.12471951  1
  O  O317  1  0.88250580  0.12304400  0.63141317  1
  O  O318  1  0.88102528  0.63066695  0.13058872  1
  O  O319  1  0.88073922  0.62858633  0.63060460  1
  O  O320  1  0.25495209  0.25703507  0.12058056  1
  O  O321  1  0.25901441  0.25539233  0.62245234  1
  O  O322  1  0.25681832  0.75962044  0.12609267  1
  O  O323  1  0.25592516  0.75732373  0.62462833  1
  O  O324  1  0.75560906  0.25607018  0.11779289  1
  O  O325  1  0.75172621  0.25648151  0.61632471  1
  O  O326  1  0.75626694  0.76052355  0.12510778  1
  O  O327  1  0.75568103  0.75515454  0.62549876  1
  O  O328  1  0.24916706  0.23747266  0.37572845  1
  O  O329  1  0.24417800  0.24869172  0.88205415  1
  O  O330  1  0.24312769  0.74364237  0.37659702  1
  O  O331  1  0.24400610  0.74438999  0.87628270  1
  O  O332  1  0.74301138  0.24938014  0.38114681  1
  O  O333  1  0.75159276  0.25009578  0.88662452  1
  O  O334  1  0.74123590  0.74769815  0.37739016  1
  O  O335  1  0.73966457  0.74432658  0.87260082  1
  O  O336  1  0.00940058  0.12683091  0.00936796  1
  O  O337  1  0.00562396  0.11802967  0.50545573  1
  O  O338  1  0.00621037  0.62028462  0.00639916  1
  O  O339  1  0.00556895  0.61782832  0.50604192  1
  O  O340  1  0.49819132  0.11691505  0.00839167  1
  O  O341  1  0.50547555  0.11892208  0.50471160  1
  O  O342  1  0.50101394  0.61858939  0.00770810  1
  O  O343  1  0.50832731  0.61589214  0.50105104  1
  O  O344  1  0.49102385  0.38289783  0.49988868  1
  O  O345  1  0.49410033  0.38097693  0.99317992  1
  O  O346  1  0.49542459  0.88119286  0.49423511  1
  O  O347  1  0.49304780  0.88550119  1.00146620  1
  O  O348  1  0.99558630  0.37979236  0.49533946  1
  O  O349  1  0.99876603  0.38405301  0.99800954  1
  O  O350  1  0.99791230  0.88133318  0.49354821  1
  O  O351  1  0.99427076  0.87608689  0.99393796  1
  O  O352  1  0.49738357  0.49704123  0.38787319  1
  O  O353  1  0.49472436  0.49345202  0.88013590  1
  O  O354  1  0.49426272  0.99562113  0.37984533  1
  O  O355  1  0.49151450  0.99923701  0.88402820  1
  O  O356  1  0.99512485  0.49417566  0.38074717  1
  O  O357  1  0.99399805  0.50072625  0.88124591  1
  O  O358  1  0.99394538  0.99451167  0.37934441  1
  O  O359  1  0.99324166  0.99147465  0.87593403  1
  O  O360  1  0.00276308  0.01116783  0.12436036  1
  O  O361  1  0.00573062  0.00293064  0.62061614  1
  O  O362  1  0.00610978  0.50653713  0.12064329  1
  O  O363  1  0.00491402  0.50485713  0.62030186  1
  O  O364  1  0.49564639  0.00889271  0.11681702  1
  O  O365  1  0.50502249  0.00401248  0.61895387  1
  O  O366  1  0.50503614  0.50571147  0.12033173  1
  O  O367  1  0.50535572  0.49998001  0.61463220  1
  O  O368  1  0.24545379  0.38090824  0.24477218  1
  O  O369  1  0.24343953  0.38052364  0.74433596  1
  O  O370  1  0.25059428  0.88349194  0.24254685  1
  O  O371  1  0.24360689  0.88043150  0.74459131  1
  O  O372  1  0.74456978  0.38084678  0.24389072  1
  O  O373  1  0.75055181  0.38193431  0.74255449  1
  O  O374  1  0.74433056  0.87629552  0.24019153  1
  O  O375  1  0.74395268  0.88076682  0.74379133  1
  O  O376  1  0.25060461  0.11773718  0.25737920  1
  O  O377  1  0.25415528  0.11603718  0.75238398  1
  O  O378  1  0.25568884  0.62009919  0.25466477  1
  O  O379  1  0.24988383  0.61763186  0.75734231  1
  O  O380  1  0.75331693  0.12142787  0.25144077  1
  O  O381  1  0.75687202  0.11717947  0.74934283  1
  O  O382  1  0.75728504  0.61846329  0.25074821  1
  O  O383  1  0.75565610  0.61812222  0.75423563  1
  O  O384  1  0.36521623  0.11889616  0.37522033  1
  O  O385  1  0.37255529  0.11276365  0.87548669  1
  O  O386  1  0.36894828  0.62436380  0.36915950  1
  O  O387  1  0.36858129  0.61838836  0.87342355  1
  O  O388  1  0.87549652  0.11347979  0.37296342  1
  O  O389  1  0.87362719  0.11629661  0.86793842  1
  O  O390  1  0.87494802  0.61799736  0.36847582  1
  O  O391  1  0.86963259  0.62114571  0.86826366  1
  O  O392  1  0.13100494  0.38140940  0.13031795  1
  O  O393  1  0.12980497  0.37980926  0.62941194  1
  O  O394  1  0.13675023  0.87637645  0.12636117  1
  O  O395  1  0.12900265  0.87924891  0.63093449  1
  O  O396  1  0.63058299  0.38217864  0.13101698  1
  O  O397  1  0.63252197  0.38238824  0.62335815  1
  O  O398  1  0.63397236  0.87469712  0.13001560  1
  O  O399  1  0.62945876  0.88060431  0.63034800  1
  O  O400  1  0.11917333  0.25886484  0.25189096  1
  O  O401  1  0.12055057  0.25352967  0.75454437  1
  O  O402  1  0.11763138  0.74992490  0.25737370  1
  O  O403  1  0.11928669  0.75517122  0.75528819  1
  O  O404  1  0.61948755  0.25622929  0.25363264  1
  O  O405  1  0.62179494  0.25556981  0.75276184  1
  O  O406  1  0.61830285  0.75586560  0.25604856  1
  O  O407  1  0.61734739  0.75381268  0.75631709  1
  O  O408  1  0.38171098  0.25035148  0.24262012  1
  O  O409  1  0.37640587  0.25073961  0.73661276  1
  O  O410  1  0.38133561  0.74511268  0.24524158  1
  O  O411  1  0.38412272  0.75166144  0.74598453  1
  O  O412  1  0.88309137  0.24902584  0.24296719  1
  O  O413  1  0.88165534  0.24173170  0.74798248  1
  O  O414  1  0.88111127  0.74456076  0.24501732  1
  O  O415  1  0.88105183  0.74345022  0.74526379  1
  O  O416  1  0.38285175  0.49156656  0.50236939  1
  O  O417  1  0.38060104  0.49461079  0.99492086  1
  O  O418  1  0.38119249  0.99396507  0.49546091  1
  O  O419  1  0.38166000  0.99632866  0.99347376  1
  O  O420  1  0.88076694  0.49466380  0.49455791  1
  O  O421  1  0.88187787  0.50096480  0.99355646  1
  O  O422  1  0.88143582  0.99769628  0.49059665  1
  O  O423  1  0.87813417  0.99239558  0.99258270  1
  O  O424  1  0.12393772  0.01230083  0.00212946  1
  O  O425  1  0.11898931  0.00407376  0.50628181  1
  O  O426  1  0.12044465  0.50614348  0.00584630  1
  O  O427  1  0.11898621  0.50453186  0.50640891  1
  O  O428  1  0.61188613  -0.00112582  0.00205593  1
  O  O429  1  0.61929818  0.00488752  0.50487498  1
  O  O430  1  0.61867880  0.50206350  0.00797115  1
  O  O431  1  0.61805992  0.50603785  0.50328321  1
  O  O432  1  0.36964316  0.37137331  0.11869294  1
  O  O433  1  0.37050081  0.36801013  0.61724486  1
  O  O434  1  0.36700047  0.87059684  0.12223239  1
  O  O435  1  0.36961710  0.87083999  0.61985028  1
  O  O436  1  0.86850250  0.36949005  0.12326463  1
  O  O437  1  0.86861565  0.37362750  0.61687092  1
  O  O438  1  0.86836598  0.87081929  0.12106306  1
  O  O439  1  0.86858029  0.86735932  0.62510781  1
  O  O440  1  0.13420174  0.12353639  0.38023551  1
  O  O441  1  0.12531600  0.13039837  0.88559373  1
  O  O442  1  0.12965245  0.62947231  0.38078443  1
  O  O443  1  0.13044213  0.63011929  0.88020045  1
  O  O444  1  0.62518979  0.13171016  0.38130440  1
  O  O445  1  0.62889475  0.12890518  0.87969070  1
  O  O446  1  0.62502206  0.63068536  0.38438384  1
  O  O447  1  0.63038644  0.63413661  0.87491489  1
