# generated using pymatgen
data_V3Zn3O8
_symmetry_space_group_name_H-M   'P 1'
_cell_length_a   17.08599686
_cell_length_b   17.08559826
_cell_length_c   17.08600428
_cell_angle_alpha   89.99931323
_cell_angle_beta   89.99749039
_cell_angle_gamma   90.00266973
_symmetry_Int_Tables_number   1
_chemical_formula_structural   V3Zn3O8
_chemical_formula_sum   'V96 Zn96 O256'
_cell_volume   4987.82287158
_cell_formula_units_Z   32
loop_
 _symmetry_equiv_pos_site_id
 _symmetry_equiv_pos_as_xyz
  1  'x, y, z'
loop_
 _atom_site_type_symbol
 _atom_site_label
 _atom_site_symmetry_multiplicity
 _atom_site_fract_x
 _atom_site_fract_y
 _atom_site_fract_z
 _atom_site_occupancy
  V  V0  1  0.24854701  0.37484214  0.12611422  1
  V  V1  1  0.00050010  0.62364903  0.62465341  1
  V  V2  1  0.12543793  -0.00083831  0.12388166  1
  V  V3  1  0.62551760  0.49983172  0.62515788  1
  V  V4  1  0.87490527  -0.00086204  0.37467031  1
  V  V5  1  0.12597721  0.37508412  0.74964499  1
  V  V6  1  0.25110936  -0.00039825  0.74967472  1
  V  V7  1  0.87499256  0.50029848  0.37463665  1
  V  V8  1  0.37333316  0.00043466  0.37519495  1
  V  V9  1  0.62584105  0.00095940  0.62605855  1
  V  V10  1  0.49992139  0.50026907  0.00009832  1
  V  V11  1  0.74924937  0.12493659  0.37507616  1
  V  V12  1  0.87530536  0.62377595  0.74953587  1
  V  V13  1  0.37439630  0.25072555  0.12545954  1
  V  V14  1  0.12418594  0.62337952  0.00117624  1
  V  V15  1  0.87431932  0.12517875  0.24961426  1
  V  V16  1  0.87405191  0.24967300  0.12598348  1
  V  V17  1  0.49973663  0.25017907  0.75152706  1
  V  V18  1  0.87480824  0.49879892  0.87509372  1
  V  V19  1  0.62534625  0.62601292  -0.00098429  1
  V  V20  1  0.12506700  0.87309886  0.74798777  1
  V  V21  1  0.87516796  0.24953947  0.62505456  1
  V  V22  1  0.87491368  0.37506603  -0.00034733  1
  V  V23  1  0.37578361  0.49948584  0.37658499  1
  V  V24  1  0.24820419  0.00011431  0.24928963  1
  V  V25  1  0.12369509  0.12457184  0.49934889  1
  V  V26  1  0.00074692  0.24859987  0.74885767  1
  V  V27  1  0.25111842  0.62614246  0.37525872  1
  V  V28  1  0.75002203  0.87596988  0.62567987  1
  V  V29  1  0.62504935  0.12489679  0.50156693  1
  V  V30  1  0.12536587  0.24983344  0.87499635  1
  V  V31  1  0.12469631  0.25078686  0.37488062  1
  V  V32  1  0.87529045  0.74950875  0.62387435  1
  V  V33  1  0.50105534  0.87559112  0.87570220  1
  V  V34  1  0.49928698  0.00016023  0.00143714  1
  V  V35  1  0.62656542  0.87662239  0.75002913  1
  V  V36  1  0.25014549  0.50046529  0.75026397  1
  V  V37  1  0.37420244  0.37545546  0.00077967  1
  V  V38  1  0.74973285  0.62554632  0.87449106  1
  V  V39  1  0.12497755  0.37573497  0.24980882  1
  V  V40  1  0.24981477  0.87470597  0.62429977  1
  V  V41  1  0.74945529  0.49891458  0.74884688  1
  V  V42  1  0.87534924  0.74935350  0.12302658  1
  V  V43  1  0.62581258  0.50024035  0.12559671  1
  V  V44  1  0.49988204  0.87533037  0.37495456  1
  V  V45  1  0.75149385  0.12399553  0.87496263  1
  V  V46  1  0.37454411  0.87395569  0.00052402  1
  V  V47  1  0.37495402  0.50038618  0.87467694  1
  V  V48  1  0.24979756  0.75088994  0.49922608  1
  V  V49  1  0.49993669  0.12422457  0.12404982  1
  V  V50  1  0.75011444  0.25031572  0.50068084  1
  V  V51  1  0.62622575  0.75050091  0.87461567  1
  V  V52  1  0.25021896  0.87487502  0.12406442  1
  V  V53  1  0.25104930  0.62406964  0.87554093  1
  V  V54  1  0.49995864  0.62557146  0.12552841  1
  V  V55  1  0.49984820  0.25091777  0.25130069  1
  V  V56  1  0.49976958  0.75034420  0.74883834  1
  V  V57  1  0.62575267  0.62489838  0.50107817  1
  V  V58  1  0.37460718  0.87646883  0.49914318  1
  V  V59  1  0.25070639  0.25050848  0.50040422  1
  V  V60  1  -0.00139213  0.24973349  0.24979674  1
  V  V61  1  0.00087074  0.49990083  0.49962085  1
  V  V62  1  -0.00001829  0.87479761  0.87385776  1
  V  V63  1  0.74867904  0.87537399  0.12475159  1
  V  V64  1  0.62418863  0.75145044  0.37490107  1
  V  V65  1  0.37608883  0.75056212  0.62583136  1
  V  V66  1  0.75057950  0.62453704  0.37462136  1
  V  V67  1  0.75021248  0.75003662  0.49946811  1
  V  V68  1  -0.00016211  0.37618974  0.37530806  1
  V  V69  1  -0.00102064  0.37450182  0.87511154  1
  V  V70  1  0.62413608  0.25041516  0.87724569  1
  V  V71  1  0.37515401  -0.00008930  0.87445274  1
  V  V72  1  0.74984025  0.50040683  0.25032888  1
  V  V73  1  0.62404326  0.25002107  0.37489236  1
  V  V74  1  0.25136608  0.74901957  0.00057473  1
  V  V75  1  0.74925040  0.37560353  0.12579999  1
  V  V76  1  0.00065821  0.74960124  0.74942383  1
  V  V77  1  0.87549120  0.87510914  0.49891197  1
  V  V78  1  0.75013748  0.37424579  0.62505280  1
  V  V79  1  -0.00072497  -0.00004227  0.49941401  1
  V  V80  1  0.50029615  0.37460365  0.87577769  1
  V  V81  1  0.00067462  0.74935445  0.24843256  1
  V  V82  1  0.00020006  0.12543008  0.62428495  1
  V  V83  1  0.12553017  0.50019913  0.62526866  1
  V  V84  1  0.12440119  0.49976496  0.12576054  1
  V  V85  1  0.24859635  0.24988100  -0.00056648  1
  V  V86  1  0.24923598  0.12485638  0.37397275  1
  V  V87  1  0.74913217  0.24976836  0.00084205  1
  V  V88  1  0.37674252  0.62697125  0.24945601  1
  V  V89  1  -0.00009440  -0.00109069  -0.00138294  1
  V  V90  1  0.37443521  0.25087622  0.62494435  1
  V  V91  1  0.50008480  0.49976351  0.50111360  1
  V  V92  1  0.12458482  0.75043544  0.37387370  1
  V  V93  1  0.74904536  -0.00085830  0.24948327  1
  V  V94  1  0.12565610  0.12503689  -0.00121879  1
  V  V95  1  0.50126353  0.12565532  0.62601170  1
  Zn  Zn96  1  0.37721901  0.75111095  0.12567731  1
  Zn  Zn97  1  0.75322635  0.00070413  0.75184006  1
  Zn  Zn98  1  0.62331068  -0.00179375  0.12663331  1
  Zn  Zn99  1  0.12451225  -0.00032001  0.62307946  1
  Zn  Zn100  1  0.87694104  0.12268807  0.75071394  1
  Zn  Zn101  1  0.37602850  0.62514759  0.74918680  1
  Zn  Zn102  1  0.37510563  0.12512611  0.75179945  1
  Zn  Zn103  1  0.62484539  0.37539327  0.75093330  1
  Zn  Zn104  1  0.50222888  0.75236823  0.24840891  1
  Zn  Zn105  1  0.75135031  0.75169134  -0.00134918  1
  Zn  Zn106  1  0.24982118  0.49952471  0.25150350  1
  Zn  Zn107  1  -0.00103843  0.12363446  0.12458654  1
  Zn  Zn108  1  0.49916426  0.62517366  0.62740140  1
  Zn  Zn109  1  0.62642259  0.12231396  0.00155446  1
  Zn  Zn110  1  0.50102356  0.37465255  0.37522869  1
  Zn  Zn111  1  0.87465195  0.00073460  0.87316365  1
  Zn  Zn112  1  0.87497287  0.62434400  0.24813370  1
  Zn  Zn113  1  0.62495524  0.37619663  0.25166724  1
  Zn  Zn114  1  0.25084049  0.37679664  0.62357535  1
  Zn  Zn115  1  0.25160552  0.12583110  0.87373083  1
  Zn  Zn116  1  -0.00154428  0.49996457  0.00133226  1
  Zn  Zn117  1  0.62290359  0.87546424  0.25062785  1
  Zn  Zn118  1  0.12612885  0.74783142  0.87467694  1
  Zn  Zn119  1  0.12576682  0.62503803  0.50070808  1
  Zn  Zn120  1  -0.00205834  0.62301013  0.12344128  1
  Zn  Zn121  1  0.12442350  0.87509085  0.24811807  1
  Zn  Zn122  1  0.87376436  0.87511512  -0.00268391  1
  Zn  Zn123  1  0.87520298  0.37463946  0.49962933  1
  Zn  Zn124  1  0.37267506  0.12552656  0.25073883  1
  Zn  Zn125  1  0.37440070  0.37536392  0.49981252  1
  Zn  Zn126  1  -0.00031153  0.87497308  0.37376035  1
  Zn  Zn127  1  0.49969236  0.00127892  0.50011694  1
  Zn  Zn128  1  0.18492883  0.18599150  0.18636360  1
  Zn  Zn129  1  0.18766973  0.18569843  0.68668966  1
  Zn  Zn130  1  0.19013681  0.68688866  0.18698142  1
  Zn  Zn131  1  0.18796453  0.68653661  0.68797464  1
  Zn  Zn132  1  0.68552088  0.18662455  0.18819269  1
  Zn  Zn133  1  0.68694473  0.18883490  0.69089206  1
  Zn  Zn134  1  0.68722522  0.68831011  0.18923130  1
  Zn  Zn135  1  0.68673175  0.68754035  0.68736624  1
  Zn  Zn136  1  0.31274801  0.31327858  0.31276283  1
  Zn  Zn137  1  0.31217269  0.31381154  0.81186864  1
  Zn  Zn138  1  0.31218305  0.81412166  0.31098160  1
  Zn  Zn139  1  0.31307158  0.81152492  0.81368690  1
  Zn  Zn140  1  0.81210039  0.31422049  0.31289250  1
  Zn  Zn141  1  0.81240171  0.31030159  0.81109814  1
  Zn  Zn142  1  0.81266006  0.81238000  0.31070073  1
  Zn  Zn143  1  0.81369917  0.81224882  0.81076724  1
  Zn  Zn144  1  0.18826145  0.43712126  0.43930475  1
  Zn  Zn145  1  0.18688116  0.43742057  0.93754019  1
  Zn  Zn146  1  0.18594689  0.93685049  0.43615279  1
  Zn  Zn147  1  0.18680004  0.93597335  0.93582777  1
  Zn  Zn148  1  0.68690021  0.43520857  0.43714858  1
  Zn  Zn149  1  0.68741472  0.43764235  0.93775081  1
  Zn  Zn150  1  0.68670048  0.93807098  0.43877447  1
  Zn  Zn151  1  0.68593097  0.93933698  0.94091031  1
  Zn  Zn152  1  0.31287011  0.06291239  0.06176044  1
  Zn  Zn153  1  0.31260980  0.06403759  0.56218494  1
  Zn  Zn154  1  0.31107074  0.56102676  0.06399294  1
  Zn  Zn155  1  0.31202072  0.56627225  0.56412336  1
  Zn  Zn156  1  0.81393155  0.06183963  0.06173411  1
  Zn  Zn157  1  0.81298718  0.06290682  0.56359121  1
  Zn  Zn158  1  0.81121687  0.56334506  0.06121058  1
  Zn  Zn159  1  0.81354947  0.56081587  0.56098491  1
  Zn  Zn160  1  0.43795660  0.43812511  0.18791095  1
  Zn  Zn161  1  0.43749135  0.43637243  0.68883675  1
  Zn  Zn162  1  0.43445648  0.93792981  0.19011312  1
  Zn  Zn163  1  0.43886752  0.93708795  0.68674571  1
  Zn  Zn164  1  0.93751734  0.43808171  0.18751737  1
  Zn  Zn165  1  0.93756726  0.43539631  0.68680756  1
  Zn  Zn166  1  0.93694091  0.93529680  0.18675750  1
  Zn  Zn167  1  0.93603591  0.94044628  0.68757535  1
  Zn  Zn168  1  0.06153564  0.06281187  0.31177597  1
  Zn  Zn169  1  0.06582604  0.06237690  0.81098503  1
  Zn  Zn170  1  0.06192269  0.56430977  0.31135062  1
  Zn  Zn171  1  0.06270902  0.56096075  0.81360794  1
  Zn  Zn172  1  0.56223616  0.06155529  0.31200030  1
  Zn  Zn173  1  0.56425866  0.06399171  0.81269487  1
  Zn  Zn174  1  0.56323538  0.56435620  0.31295005  1
  Zn  Zn175  1  0.56224394  0.56347189  0.81125985  1
  Zn  Zn176  1  0.43697694  0.18481562  0.43885745  1
  Zn  Zn177  1  0.43546625  0.18637744  0.93773915  1
  Zn  Zn178  1  0.43902126  0.68823543  0.43888156  1
  Zn  Zn179  1  0.43782960  0.68799536  0.93686729  1
  Zn  Zn180  1  0.93618376  0.18758096  0.43773818  1
  Zn  Zn181  1  0.93721869  0.18736821  0.93799269  1
  Zn  Zn182  1  0.93812715  0.68531057  0.43697469  1
  Zn  Zn183  1  0.93798989  0.68774092  0.93718327  1
  Zn  Zn184  1  0.06053570  0.31239424  0.06288687  1
  Zn  Zn185  1  0.06325387  0.31384653  0.56239243  1
  Zn  Zn186  1  0.06468377  0.81164447  0.06151954  1
  Zn  Zn187  1  0.06241704  0.81299086  0.56109858  1
  Zn  Zn188  1  0.56356135  0.31266168  0.06282925  1
  Zn  Zn189  1  0.56291324  0.31403679  0.56313441  1
  Zn  Zn190  1  0.56280444  0.81099025  0.06267890  1
  Zn  Zn191  1  0.56201000  0.81431028  0.56168654  1
  O  O192  1  0.12138338  0.11782705  0.11666954  1
  O  O193  1  0.11841348  0.12391109  0.61639136  1
  O  O194  1  0.12662930  0.61898837  0.11548567  1
  O  O195  1  0.11793871  0.61839914  0.62437374  1
  O  O196  1  0.61099866  0.12407339  0.12385027  1
  O  O197  1  0.62108568  0.12121448  0.62103319  1
  O  O198  1  0.62053291  0.61985249  0.11909322  1
  O  O199  1  0.62454114  0.61803595  0.61787655  1
  O  O200  1  0.37782020  0.38810739  0.37612018  1
  O  O201  1  0.38028390  0.38044367  0.88202621  1
  O  O202  1  0.37943696  0.88022779  0.38029988  1
  O  O203  1  0.38191588  0.88010198  0.88103302  1
  O  O204  1  0.88219289  0.38183118  0.37621459  1
  O  O205  1  0.87896235  0.37902710  0.87983308  1
  O  O206  1  0.87499769  0.88111618  0.38146976  1
  O  O207  1  0.88851759  0.87560448  0.87539302  1
  O  O208  1  0.25296674  0.00519213  0.36927093  1
  O  O209  1  0.25566397  -0.00209866  0.86464606  1
  O  O210  1  0.26063050  0.50658680  0.37614462  1
  O  O211  1  0.25587662  0.50387169  0.87068680  1
  O  O212  1  0.75534548  0.00568455  0.37037230  1
  O  O213  1  0.75096391  0.01133009  0.87721324  1
  O  O214  1  0.75447810  0.50463517  0.37069232  1
  O  O215  1  0.75501330  0.50532793  0.86883682  1
  O  O216  1  0.24314400  0.49164361  0.12761490  1
  O  O217  1  0.24416417  0.49999244  0.63143615  1
  O  O218  1  0.24473595  0.99508375  0.12874460  1
  O  O219  1  0.25000364  0.99335865  0.63337884  1
  O  O220  1  0.74505593  0.49544625  0.12998752  1
  O  O221  1  0.74572224  0.49472713  0.62939278  1
  O  O222  1  0.75128936  0.99074321  0.13004458  1
  O  O223  1  0.74391256  0.99351472  0.62620979  1
  O  O224  1  0.00535759  0.36913819  0.25587378  1
  O  O225  1  0.00611203  0.36875433  0.75551677  1
  O  O226  1  0.00218221  0.86204520  0.25163906  1
  O  O227  1  0.00487712  0.87013729  0.75542296  1
  O  O228  1  0.50142491  0.36214773  0.24977622  1
  O  O229  1  0.50148292  0.36864634  0.75871471  1
  O  O230  1  0.50011648  0.87307091  0.25998345  1
  O  O231  1  0.50681472  0.87041045  0.75633587  1
  O  O232  1  0.49739288  0.13455778  0.24197785  1
  O  O233  1  0.49835109  0.13229254  0.74387934  1
  O  O234  1  0.49131811  0.62531728  0.24477154  1
  O  O235  1  0.49788581  0.63436803  0.74806437  1
  O  O236  1  0.99208806  0.13182563  0.24864946  1
  O  O237  1  1.00231624  0.13171935  0.74278807  1
  O  O238  1  0.99831773  0.63789196  0.24584686  1
  O  O239  1  0.99439491  0.62927834  0.74525509  1
  O  O240  1  0.36897861  0.25671805  0.00557955  1
  O  O241  1  0.37042550  0.25078624  0.50878623  1
  O  O242  1  0.36927523  0.75647201  0.00117130  1
  O  O243  1  0.36901539  0.75661582  0.50454479  1
  O  O244  1  0.86932682  0.25570071  0.00633125  1
  O  O245  1  0.86765331  0.25122130  0.50610070  1
  O  O246  1  0.87462041  0.75266941  0.01029156  1
  O  O247  1  0.87009143  0.75451560  0.50477660  1
  O  O248  1  0.12970769  0.24477609  0.49368620  1
  O  O249  1  0.12907913  0.24558438  0.99491046  1
  O  O250  1  0.13018295  0.74887459  0.49010995  1
  O  O251  1  0.13191665  0.73868974  0.99920358  1
  O  O252  1  0.63009811  0.24422512  0.49539220  1
  O  O253  1  0.63174965  0.24824851  0.99509363  1
  O  O254  1  0.63134879  0.74495865  0.49564136  1
  O  O255  1  0.62659896  0.74328864  0.99197498  1
  O  O256  1  0.49486008  0.24368307  0.13135170  1
  O  O257  1  0.49348570  0.24602989  0.63018401  1
  O  O258  1  0.49710494  0.74128404  0.12749009  1
  O  O259  1  0.49414962  0.75112241  0.63081050  1
  O  O260  1  0.99202951  0.24895070  0.13209079  1
  O  O261  1  0.99566237  0.24532169  0.62915470  1
  O  O262  1  0.99265124  0.75052405  0.13149133  1
  O  O263  1  0.99433838  0.74405289  0.62935325  1
  O  O264  1  0.00491139  0.25551555  0.36978046  1
  O  O265  1  0.00557636  0.25511141  0.86939144  1
  O  O266  1  0.00752394  0.74897337  0.36674696  1
  O  O267  1  0.00168511  0.75848482  0.86818746  1
  O  O268  1  0.50360891  0.24850054  0.36616514  1
  O  O269  1  0.50335300  0.25517431  0.87216438  1
  O  O270  1  0.50608679  0.75788281  0.37572217  1
  O  O271  1  0.50620776  0.75662400  0.86984886  1
  O  O272  1  0.24330961  0.13069610  0.49380409  1
  O  O273  1  0.24359802  0.13210723  0.99847109  1
  O  O274  1  0.24887572  0.63386461  0.49276315  1
  O  O275  1  0.24292290  0.62817511  0.99581581  1
  O  O276  1  0.74461207  0.13094446  0.49442142  1
  O  O277  1  0.74933807  0.13139493  0.99306643  1
  O  O278  1  0.74532072  0.63052988  0.49480923  1
  O  O279  1  0.74274333  0.62673305  0.99179649  1
  O  O280  1  0.25463810  0.36938283  0.00598594  1
  O  O281  1  0.25330671  0.36630520  0.50298864  1
  O  O282  1  0.25489349  0.86953459  0.00385540  1
  O  O283  1  0.25479079  0.86986239  0.50442758  1
  O  O284  1  0.75574775  0.37003359  0.00576169  1
  O  O285  1  0.75109491  0.36760979  0.50678285  1
  O  O286  1  0.75295502  0.87371387  0.01079296  1
  O  O287  1  0.75576609  0.86907403  0.50587443  1
  O  O288  1  0.12670042  0.49365384  0.24485386  1
  O  O289  1  0.13003364  0.49444415  0.74536158  1
  O  O290  1  0.12971106  0.99845799  0.24285092  1
  O  O291  1  0.13534480  0.99231141  0.74713898  1
  O  O292  1  0.63072908  0.49943533  0.24353399  1
  O  O293  1  0.63179229  0.49920844  0.74357253  1
  O  O294  1  0.63375776  0.99757020  0.24722733  1
  O  O295  1  0.62770797  0.99331292  0.74416956  1
  O  O296  1  0.36570187  0.00317778  0.25763322  1
  O  O297  1  0.36595827  -0.00171764  0.75508106  1
  O  O298  1  0.37608392  0.50896664  0.26027109  1
  O  O299  1  0.36891770  0.50079997  0.75716001  1
  O  O300  1  0.86983295  0.00506790  0.25482199  1
  O  O301  1  0.87142713  0.00496540  0.75494562  1
  O  O302  1  0.86865309  0.50224598  0.25611838  1
  O  O303  1  0.86955325  0.50480534  0.75482459  1
  O  O304  1  0.12002456  0.37003608  0.36931081  1
  O  O305  1  0.11898114  0.36966897  0.86993266  1
  O  O306  1  0.12360372  0.86157152  0.37189682  1
  O  O307  1  0.11492930  0.87201916  0.86811105  1
  O  O308  1  0.62133428  0.36599448  0.37205569  1
  O  O309  1  0.61768508  0.36892576  0.87582575  1
  O  O310  1  0.61775588  0.86946149  0.37635145  1
  O  O311  1  0.62035286  0.87021160  0.87042410  1
  O  O312  1  0.38397237  0.13199568  0.12604128  1
  O  O313  1  0.38128235  0.13579831  0.62578407  1
  O  O314  1  0.38039274  0.62252328  0.13497663  1
  O  O315  1  0.37772196  0.63547446  0.62791444  1
  O  O316  1  0.87561389  0.13178485  0.13195051  1
  O  O317  1  0.88229626  0.13250891  0.62551719  1
  O  O318  1  0.87534307  0.63661033  0.12533017  1
  O  O319  1  0.88002414  0.62963882  0.63033773  1
  O  O320  1  0.25426647  0.25536420  0.11979252  1
  O  O321  1  0.25944874  0.24936045  0.61995356  1
  O  O322  1  0.25350500  0.75631004  0.11834335  1
  O  O323  1  0.25496253  0.75586739  0.61962210  1
  O  O324  1  0.75436268  0.25496993  0.12113388  1
  O  O325  1  0.75447713  0.25417935  0.62041823  1
  O  O326  1  0.75883995  0.75790335  0.12562270  1
  O  O327  1  0.75577371  0.75499686  0.61909055  1
  O  O328  1  0.24432827  0.24511819  0.37963186  1
  O  O329  1  0.24330178  0.25047867  0.88155865  1
  O  O330  1  0.24316553  0.74636201  0.37863536  1
  O  O331  1  0.24842363  0.74304664  0.88222604  1
  O  O332  1  0.74466955  0.24409831  0.37966536  1
  O  O333  1  0.74490392  0.24406434  0.88152297  1
  O  O334  1  0.74541789  0.74515811  0.38096859  1
  O  O335  1  0.74456986  0.74367680  0.87476226  1
  O  O336  1  0.00625486  0.11458303  -0.00050379  1
  O  O337  1  0.00474422  0.12011242  0.50390463  1
  O  O338  1  0.01243838  0.62357251  0.00025549  1
  O  O339  1  0.00184630  0.61826863  0.50723207  1
  O  O340  1  0.49856375  0.11995181  0.01023316  1
  O  O341  1  0.50789849  0.12408529  0.50770164  1
  O  O342  1  0.50525078  0.61897698  0.00481526  1
  O  O343  1  0.50653583  0.61472585  0.50154973  1
  O  O344  1  0.49840250  0.38847491  0.49805227  1
  O  O345  1  0.49358203  0.38070603  0.99626605  1
  O  O346  1  0.49236866  0.87803378  0.49257917  1
  O  O347  1  0.49458802  0.87998117  0.99519097  1
  O  O348  1  0.99970935  0.38173932  0.49240883  1
  O  O349  1  0.99252836  0.37520744  0.99264673  1
  O  O350  1  0.99260846  0.88103439  0.49808050  1
  O  O351  1  1.00279073  0.88245994  0.99003883  1
  O  O352  1  0.49241155  0.50128946  0.38382867  1
  O  O353  1  0.49522780  0.49517995  0.88111183  1
  O  O354  1  0.49235746  0.99409132  0.37672638  1
  O  O355  1  0.49552499  0.99450890  0.88029287  1
  O  O356  1  0.99574058  0.49593270  0.37922316  1
  O  O357  1  0.99217278  0.49226277  0.87580454  1
  O  O358  1  0.99263640  0.99852321  0.38049126  1
  O  O359  1  1.00289495  0.99126541  0.88227157  1
  O  O360  1  0.00575224  -0.00203256  0.11417491  1
  O  O361  1  0.00130344  0.00698628  0.61704433  1
  O  O362  1  0.00780677  0.50260857  0.12215886  1
  O  O363  1  0.00497460  0.50457004  0.62038673  1
  O  O364  1  0.49703665  0.00976437  0.12157099  1
  O  O365  1  0.50702896  0.00712341  0.62394620  1
  O  O366  1  0.50548932  0.50507205  0.11909580  1
  O  O367  1  0.50493077  0.50075263  0.61654135  1
  O  O368  1  0.24291773  0.37591746  0.24427177  1
  O  O369  1  0.24296343  0.38245977  0.74872171  1
  O  O370  1  0.24840687  0.88184617  0.24235412  1
  O  O371  1  0.24548267  0.88099627  0.74486104  1
  O  O372  1  0.74831593  0.38184224  0.24300943  1
  O  O373  1  0.74860233  0.38140752  0.74373584  1
  O  O374  1  0.75012205  0.88109261  0.24054960  1
  O  O375  1  0.74387058  0.87518501  0.74316807  1
  O  O376  1  0.24955992  0.11921864  0.25607930  1
  O  O377  1  0.25157982  0.11174660  0.75083620  1
  O  O378  1  0.26069200  0.62215973  0.25605482  1
  O  O379  1  0.25076436  0.61830430  0.75823356  1
  O  O380  1  0.75485379  0.11998898  0.25550995  1
  O  O381  1  0.75107130  0.12568796  0.76373000  1
  O  O382  1  0.75109125  0.61805617  0.25735908  1
  O  O383  1  0.75616368  0.61948773  0.75447791  1
  O  O384  1  0.36647653  0.11884344  0.37447508  1
  O  O385  1  0.37194495  0.11608729  0.87255964  1
  O  O386  1  0.37226276  0.61815962  0.36858584  1
  O  O387  1  0.36873332  0.61725426  0.87528533  1
  O  O388  1  0.86805373  0.11960561  0.36949110  1
  O  O389  1  0.86364706  0.12576484  0.87457588  1
  O  O390  1  0.86771124  0.61856226  0.37332791  1
  O  O391  1  0.87026087  0.61968005  0.86895647  1
  O  O392  1  0.12930393  0.37930952  0.13020017  1
  O  O393  1  0.12621724  0.38200422  0.63248003  1
  O  O394  1  0.13281893  0.88133080  0.12464072  1
  O  O395  1  0.13191885  0.87585988  0.62989930  1
  O  O396  1  0.63167745  0.38254050  0.12582357  1
  O  O397  1  0.63216053  0.38210311  0.62704054  1
  O  O398  1  0.63673541  0.87409730  0.12770682  1
  O  O399  1  0.63083642  0.88049298  0.62973941  1
  O  O400  1  0.11873502  0.25543138  0.25528317  1
  O  O401  1  0.12088228  0.25509841  0.75492636  1
  O  O402  1  0.11845667  0.74977969  0.25639427  1
  O  O403  1  0.11819118  0.75531132  0.75135809  1
  O  O404  1  0.61502653  0.24999644  0.25573566  1
  O  O405  1  0.61721273  0.25302828  0.75876689  1
  O  O406  1  0.62302673  0.75233507  0.26046367  1
  O  O407  1  0.62030853  0.75662297  0.75500460  1
  O  O408  1  0.38339682  0.24904919  0.24444724  1
  O  O409  1  0.37987395  0.24890266  0.74151695  1
  O  O410  1  0.37679854  0.73674041  0.25034764  1
  O  O411  1  0.38202317  0.75117008  0.74383726  1
  O  O412  1  0.87891068  0.24498985  0.24565992  1
  O  O413  1  0.88353642  0.24788563  0.74299088  1
  O  O414  1  0.88356109  0.74882622  0.24105599  1
  O  O415  1  0.88106051  0.74340314  0.74308649  1
  O  O416  1  0.38319452  0.50251481  0.49253576  1
  O  O417  1  0.38020133  0.49441428  0.99544720  1
  O  O418  1  0.37425848  0.99395250  0.49321534  1
  O  O419  1  0.37953634  0.99350336  0.99399484  1
  O  O420  1  0.88247457  0.49774384  0.49282710  1
  O  O421  1  0.87495528  0.49328535  0.99297340  1
  O  O422  1  0.87933551  0.99492780  0.49398981  1
  O  O423  1  0.88926589  0.99748112  0.99743767  1
  O  O424  1  0.11808220  0.00440054  0.00325345  1
  O  O425  1  0.11805013  0.00644800  0.49931675  1
  O  O426  1  0.12468963  0.50834028  0.00610809  1
  O  O427  1  0.11911573  0.50251461  0.50619376  1
  O  O428  1  0.61406023  0.00231807  0.00607776  1
  O  O429  1  0.62448282  0.00783405  0.50774648  1
  O  O430  1  0.61936482  0.50624341  0.00500731  1
  O  O431  1  0.61815459  0.50498017  0.50420418  1
  O  O432  1  0.36927209  0.37081289  0.11992161  1
  O  O433  1  0.37437188  0.36206790  0.62338317  1
  O  O434  1  0.36837943  0.87441651  0.11782118  1
  O  O435  1  0.36945162  0.87035823  0.61865899  1
  O  O436  1  0.86862897  0.36961544  0.11979656  1
  O  O437  1  0.86848861  0.36779271  0.62272056  1
  O  O438  1  0.86647012  0.86581642  0.12344879  1
  O  O439  1  0.87013155  0.86856843  0.61923027  1
  O  O440  1  0.12942417  0.13183981  0.37981930  1
  O  O441  1  0.12786090  0.13224590  0.88091593  1
  O  O442  1  0.13164343  0.63563899  0.37468671  1
  O  O443  1  0.13145783  0.62351481  0.88533675  1
  O  O444  1  0.63041327  0.12999693  0.38097804  1
  O  O445  1  0.63372778  0.13176912  0.87908767  1
  O  O446  1  0.63086884  0.63060434  0.38221933  1
  O  O447  1  0.63036762  0.63054700  0.87923111  1
