# generated using pymatgen
data_V3Zn3O8
_symmetry_space_group_name_H-M   'P 1'
_cell_length_a   17.08620829
_cell_length_b   17.08557435
_cell_length_c   17.08607683
_cell_angle_alpha   90.00576324
_cell_angle_beta   90.00885074
_cell_angle_gamma   90.00066108
_symmetry_Int_Tables_number   1
_chemical_formula_structural   V3Zn3O8
_chemical_formula_sum   'V96 Zn96 O256'
_cell_volume   4987.89871958
_cell_formula_units_Z   32
loop_
 _symmetry_equiv_pos_site_id
 _symmetry_equiv_pos_as_xyz
  1  'x, y, z'
loop_
 _atom_site_type_symbol
 _atom_site_label
 _atom_site_symmetry_multiplicity
 _atom_site_fract_x
 _atom_site_fract_y
 _atom_site_fract_z
 _atom_site_occupancy
  V  V0  1  0.87533624  0.24943273  0.12472588  1
  V  V1  1  -0.00206957  0.12591506  0.62622817  1
  V  V2  1  0.49971894  0.24906724  0.24953234  1
  V  V3  1  0.50027836  0.87409785  0.87517179  1
  V  V4  1  0.87467910  0.74887699  0.62460315  1
  V  V5  1  0.25091373  0.50216031  0.75046373  1
  V  V6  1  0.50000321  -0.00098407  0.00082596  1
  V  V7  1  0.37503094  0.87530675  -0.00070254  1
  V  V8  1  0.12395501  0.12554883  -0.00024559  1
  V  V9  1  0.37743368  0.50147777  0.37500953  1
  V  V10  1  0.00022053  0.49913691  0.00054711  1
  V  V11  1  0.62510821  0.62381933  0.50024765  1
  V  V12  1  0.87505259  0.62518405  0.24993736  1
  V  V13  1  0.50088619  0.12344159  0.62456502  1
  V  V14  1  0.87495622  0.12467413  0.74897680  1
  V  V15  1  0.37502110  0.87640573  0.49910940  1
  V  V16  1  0.62602387  0.24884396  0.37553852  1
  V  V17  1  0.24982292  0.37587232  0.12560840  1
  V  V18  1  0.24828454  0.12603744  0.87516868  1
  V  V19  1  0.87484049  -0.00126381  0.87446885  1
  V  V20  1  0.12468096  0.12670677  0.50011744  1
  V  V21  1  0.24880685  0.25018131  0.00156290  1
  V  V22  1  0.50032349  0.49939428  -0.00046357  1
  V  V23  1  0.74941207  0.12356569  0.87562004  1
  V  V24  1  0.75018510  0.62425189  0.87576843  1
  V  V25  1  0.62470013  -0.00090778  0.12523251  1
  V  V26  1  0.24953357  0.87544040  0.12473181  1
  V  V27  1  0.62455939  0.49990718  0.12429153  1
  V  V28  1  0.12521176  0.62597606  0.49862176  1
  V  V29  1  0.62477917  0.87299975  0.75011374  1
  V  V30  1  0.74911827  0.24752246  -0.00022992  1
  V  V31  1  0.00107674  0.75007908  0.74947957  1
  V  V32  1  0.37543917  0.50134120  0.87421287  1
  V  V33  1  0.62488237  0.87521845  0.25046392  1
  V  V34  1  0.37274983  0.12358083  0.75197396  1
  V  V35  1  0.75015438  0.37347858  0.12427034  1
  V  V36  1  0.00130232  0.87431247  0.87359494  1
  V  V37  1  0.62595442  0.49710053  0.62578797  1
  V  V38  1  -0.00007085  0.49950554  0.49980453  1
  V  V39  1  0.49931717  0.12434973  0.12523522  1
  V  V40  1  -0.00047842  0.75039106  0.24965559  1
  V  V41  1  0.37604585  0.74932893  0.12484068  1
  V  V42  1  0.00036424  0.37446619  0.37450383  1
  V  V43  1  0.50059408  0.49988134  0.49959225  1
  V  V44  1  0.87571666  0.62396031  0.75021389  1
  V  V45  1  0.49977067  0.37444578  0.87526807  1
  V  V46  1  0.74847025  0.87394535  0.62547353  1
  V  V47  1  0.37670898  0.74976868  0.62489348  1
  V  V48  1  0.87445101  0.00014866  0.37410145  1
  V  V49  1  0.25007460  0.12608118  0.37564351  1
  V  V50  1  0.87454749  0.87435366  0.49947153  1
  V  V51  1  0.12516909  0.00001937  0.62410783  1
  V  V52  1  0.74908656  -0.00237324  0.74960919  1
  V  V53  1  0.87578839  0.87420082  -0.00012411  1
  V  V54  1  0.87577187  0.49897597  0.87613058  1
  V  V55  1  0.00002828  0.62486627  0.62496008  1
  V  V56  1  0.87262452  0.37199989  0.50287524  1
  V  V57  1  0.50145960  0.25062411  0.75233531  1
  V  V58  1  0.25036560  0.50130723  0.25026862  1
  V  V59  1  0.62558956  0.37408678  0.24971377  1
  V  V60  1  0.24997237  0.87638613  0.62340504  1
  V  V61  1  0.74949051  0.12586940  0.37636233  1
  V  V62  1  0.74994894  -0.00045023  0.24974056  1
  V  V63  1  0.00045462  0.12520272  0.12406083  1
  V  V64  1  0.12221589  0.37466856  0.75274268  1
  V  V65  1  0.37469949  0.24908587  0.12605090  1
  V  V66  1  0.00079621  0.62540316  0.12502864  1
  V  V67  1  0.50069961  0.62439003  0.12415539  1
  V  V68  1  0.24974826  0.37636018  0.62452799  1
  V  V69  1  0.12527136  0.87513326  0.24936885  1
  V  V70  1  0.75110269  0.74948846  -0.00034908  1
  V  V71  1  0.62457206  0.75104611  0.37474613  1
  V  V72  1  0.87496421  0.49956035  0.37498722  1
  V  V73  1  0.00019396  0.00056870  -0.00002346  1
  V  V74  1  0.75004673  0.62505500  0.37484266  1
  V  V75  1  0.24978820  0.00009112  0.25022063  1
  V  V76  1  0.37674241  0.62571027  0.24915295  1
  V  V77  1  0.12536517  0.74930554  0.37528865  1
  V  V78  1  0.24895050  0.25170450  0.50031531  1
  V  V79  1  0.25098054  0.62564789  0.87491505  1
  V  V80  1  0.75002638  0.49790850  0.75048509  1
  V  V81  1  0.49975274  0.87590216  0.37500989  1
  V  V82  1  0.12506236  0.87550743  0.74790939  1
  V  V83  1  0.50086388  0.37514025  0.37508089  1
  V  V84  1  0.37487412  0.00000032  0.37517772  1
  V  V85  1  0.12614923  0.62616996  0.00021018  1
  V  V86  1  0.12547293  0.50132151  0.62487063  1
  V  V87  1  0.00000221  0.00056176  0.49930294  1
  V  V88  1  0.74976778  0.74965291  0.50002022  1
  V  V89  1  0.24995026  0.75010423  -0.00122514  1
  V  V90  1  0.87461859  0.75100610  0.12429326  1
  V  V91  1  -0.00014607  0.87548913  0.37422469  1
  V  V92  1  0.62556628  0.74871895  0.87499197  1
  V  V93  1  0.37330365  0.25205155  0.62480003  1
  V  V94  1  0.00193771  0.25057367  0.25051856  1
  V  V95  1  0.75012512  0.49935362  0.24917103  1
  Zn  Zn96  1  0.12518856  0.50120485  0.12670331  1
  Zn  Zn97  1  0.74972165  0.87512703  0.12492386  1
  Zn  Zn98  1  0.62572643  0.62453427  -0.00027985  1
  Zn  Zn99  1  0.12653616  0.25275883  0.37573534  1
  Zn  Zn100  1  0.37657049  0.62682995  0.74917595  1
  Zn  Zn101  1  -0.00063314  0.37272429  0.87682976  1
  Zn  Zn102  1  0.25121040  0.62665901  0.37524612  1
  Zn  Zn103  1  0.62771986  0.37340395  0.75074877  1
  Zn  Zn104  1  0.87566378  0.37462670  -0.00096661  1
  Zn  Zn105  1  0.37392458  0.37455488  -0.00063504  1
  Zn  Zn106  1  -0.00344457  0.25104788  0.75228476  1
  Zn  Zn107  1  0.87208009  0.24817266  0.62694466  1
  Zn  Zn108  1  0.49991827  0.74776126  0.75030706  1
  Zn  Zn109  1  0.75058639  0.36941932  0.62893501  1
  Zn  Zn110  1  0.12116515  0.25168434  0.87569867  1
  Zn  Zn111  1  0.12703559  0.75098690  0.87327266  1
  Zn  Zn112  1  0.62505773  0.24798532  0.87626072  1
  Zn  Zn113  1  0.50063305  0.75019531  0.24927177  1
  Zn  Zn114  1  0.49862536  0.62436842  0.62705611  1
  Zn  Zn115  1  0.37487890  -0.00096604  0.87632832  1
  Zn  Zn116  1  0.24871530  0.00057837  0.74991389  1
  Zn  Zn117  1  0.74805441  0.24954413  0.50348731  1
  Zn  Zn118  1  0.87629076  0.12372169  0.24974379  1
  Zn  Zn119  1  0.25092823  0.74882913  0.49711679  1
  Zn  Zn120  1  0.62300768  -0.00153473  0.62354820  1
  Zn  Zn121  1  0.37397417  0.12483369  0.25139062  1
  Zn  Zn122  1  0.62510143  0.12506883  0.50287534  1
  Zn  Zn123  1  0.62353141  0.12245391  -0.00152825  1
  Zn  Zn124  1  0.12504309  -0.00007673  0.12467619  1
  Zn  Zn125  1  0.50134956  0.00226490  0.49933808  1
  Zn  Zn126  1  0.37461146  0.37707433  0.50012202  1
  Zn  Zn127  1  0.12541130  0.37776923  0.25302110  1
  Zn  Zn128  1  0.18622743  0.18646735  0.18820103  1
  Zn  Zn129  1  0.18493441  0.18995628  0.68657842  1
  Zn  Zn130  1  0.18765995  0.68794915  0.18649455  1
  Zn  Zn131  1  0.19019613  0.68926830  0.68608299  1
  Zn  Zn132  1  0.68621494  0.18465816  0.18806975  1
  Zn  Zn133  1  0.68876818  0.18715082  0.68803879  1
  Zn  Zn134  1  0.68705949  0.68812266  0.18681837  1
  Zn  Zn135  1  0.68685597  0.68500532  0.68839024  1
  Zn  Zn136  1  0.31490362  0.31333920  0.31363158  1
  Zn  Zn137  1  0.31096076  0.31309987  0.81259144  1
  Zn  Zn138  1  0.31220774  0.81186433  0.31203857  1
  Zn  Zn139  1  0.31219130  0.81372097  0.81075150  1
  Zn  Zn140  1  0.81461484  0.31136883  0.31240397  1
  Zn  Zn141  1  0.81479763  0.31235179  0.81429400  1
  Zn  Zn142  1  0.81132449  0.81340937  0.31208446  1
  Zn  Zn143  1  0.81306217  0.81139759  0.81265897  1
  Zn  Zn144  1  0.18737097  0.43802142  0.43668982  1
  Zn  Zn145  1  0.18782651  0.43968505  0.93842742  1
  Zn  Zn146  1  0.18845592  0.93729809  0.43757802  1
  Zn  Zn147  1  0.18678105  0.93935758  0.93629421  1
  Zn  Zn148  1  0.68812731  0.43653062  0.43753960  1
  Zn  Zn149  1  0.68614330  0.43594417  0.93747624  1
  Zn  Zn150  1  0.68384991  0.94098401  0.43982217  1
  Zn  Zn151  1  0.68704496  0.93544425  0.93832572  1
  Zn  Zn152  1  0.31312510  0.06194230  0.06367460  1
  Zn  Zn153  1  0.31264088  0.06283645  0.56164735  1
  Zn  Zn154  1  0.31512549  0.56223407  0.06083929  1
  Zn  Zn155  1  0.31179207  0.56461496  0.56064846  1
  Zn  Zn156  1  0.81354049  0.06246401  0.06368424  1
  Zn  Zn157  1  0.81162919  0.06038419  0.56257854  1
  Zn  Zn158  1  0.81330142  0.56323398  0.06218655  1
  Zn  Zn159  1  0.81129526  0.55997025  0.56325223  1
  Zn  Zn160  1  0.43678670  0.43679335  0.18745248  1
  Zn  Zn161  1  0.43721714  0.43869930  0.68753101  1
  Zn  Zn162  1  0.43697771  0.93688311  0.18867041  1
  Zn  Zn163  1  0.43739854  0.93665442  0.68900052  1
  Zn  Zn164  1  0.93614856  0.43625228  0.18618530  1
  Zn  Zn165  1  0.93747393  0.43802912  0.68713719  1
  Zn  Zn166  1  0.93731882  0.93838327  0.18643109  1
  Zn  Zn167  1  0.93724928  0.93780897  0.68638687  1
  Zn  Zn168  1  0.06493262  0.06377458  0.31240049  1
  Zn  Zn169  1  0.06212540  0.06195294  0.81161369  1
  Zn  Zn170  1  0.06260000  0.56242990  0.31299422  1
  Zn  Zn171  1  0.06432151  0.56270020  0.81466443  1
  Zn  Zn172  1  0.56242499  0.06248216  0.31174147  1
  Zn  Zn173  1  0.56456048  0.05947418  0.81432815  1
  Zn  Zn174  1  0.56278460  0.56314053  0.31117182  1
  Zn  Zn175  1  0.56174359  0.56487442  0.80978143  1
  Zn  Zn176  1  0.43512118  0.18921703  0.43815157  1
  Zn  Zn177  1  0.43501598  0.18706715  0.94058593  1
  Zn  Zn178  1  0.43866133  0.68765792  0.43793563  1
  Zn  Zn179  1  0.43825475  0.68706017  0.93798593  1
  Zn  Zn180  1  0.93695434  0.18780463  0.43699888  1
  Zn  Zn181  1  0.93691769  0.18865984  0.93488495  1
  Zn  Zn182  1  0.93859402  0.68734189  0.43695639  1
  Zn  Zn183  1  0.93851209  0.68735002  0.93637188  1
  Zn  Zn184  1  0.06582995  0.31305077  0.06447313  1
  Zn  Zn185  1  0.06039917  0.31079857  0.56547307  1
  Zn  Zn186  1  0.06353768  0.81231818  0.06188836  1
  Zn  Zn187  1  0.06284235  0.81235801  0.56157190  1
  Zn  Zn188  1  0.56313471  0.31164452  0.06192540  1
  Zn  Zn189  1  0.56294399  0.31198047  0.56100104  1
  Zn  Zn190  1  0.56366828  0.81199284  0.06187244  1
  Zn  Zn191  1  0.56062096  0.81322560  0.56119667  1
  O  O192  1  0.11806889  0.12328688  0.11742886  1
  O  O193  1  0.11887588  0.11939349  0.61972886  1
  O  O194  1  0.11821790  0.62466275  0.11873100  1
  O  O195  1  0.11905687  0.62055687  0.61984456  1
  O  O196  1  0.61726686  0.11652593  0.12400142  1
  O  O197  1  0.61131413  0.12418791  0.62781457  1
  O  O198  1  0.61920821  0.61741238  0.12435267  1
  O  O199  1  0.62595699  0.61363155  0.61811796  1
  O  O200  1  0.38377321  0.38323625  0.37592493  1
  O  O201  1  0.38464545  0.38054364  0.87521650  1
  O  O202  1  0.37970123  0.87975610  0.37944320  1
  O  O203  1  0.38080141  0.87648031  0.88152746  1
  O  O204  1  0.88034209  0.38106133  0.38199285  1
  O  O205  1  0.87855993  0.38464210  0.87884319  1
  O  O206  1  0.88036167  0.87950529  0.38035278  1
  O  O207  1  0.88182814  0.87938330  0.87954707  1
  O  O208  1  0.25509713  0.00552724  0.36988477  1
  O  O209  1  0.25226792  0.01417855  0.87282543  1
  O  O210  1  0.25691620  0.50083084  0.36431105  1
  O  O211  1  0.25616840  0.50584596  0.87069858  1
  O  O212  1  0.75456884  0.00711501  0.37014976  1
  O  O213  1  0.75602393  0.00265582  0.87011388  1
  O  O214  1  0.75503115  0.50558639  0.36847606  1
  O  O215  1  0.75531916  0.50469106  0.87113601  1
  O  O216  1  0.25273719  0.49241532  0.13328227  1
  O  O217  1  0.24401704  0.49608178  0.62987821  1
  O  O218  1  0.24831544  0.99303084  0.13137158  1
  O  O219  1  0.24288212  0.99504738  0.62589272  1
  O  O220  1  0.74574896  0.49463851  0.13006522  1
  O  O221  1  0.74112088  0.49785631  0.63133023  1
  O  O222  1  0.74416397  0.99901326  0.13176714  1
  O  O223  1  0.74910085  0.99115970  0.63185064  1
  O  O224  1  0.00009564  0.36705274  0.25451485  1
  O  O225  1  0.01191492  0.37825940  0.75105204  1
  O  O226  1  0.00464363  0.86970352  0.25496565  1
  O  O227  1  0.00446309  0.86958870  0.75342477  1
  O  O228  1  0.50660123  0.36980305  0.25480422  1
  O  O229  1  0.49837768  0.36540850  0.75827904  1
  O  O230  1  0.50690947  0.87308558  0.25695674  1
  O  O231  1  0.50665686  0.87326159  0.75763228  1
  O  O232  1  0.49810291  0.13200126  0.24362985  1
  O  O233  1  0.49151941  0.13273908  0.74706545  1
  O  O234  1  0.49412993  0.62580200  0.24226460  1
  O  O235  1  0.49495296  0.62989628  0.74513385  1
  O  O236  1  1.00009410  0.13431805  0.24448383  1
  O  O237  1  0.99235709  0.12267439  0.74314188  1
  O  O238  1  0.99395536  0.63033479  0.24531970  1
  O  O239  1  0.99537631  0.62925335  0.74431509  1
  O  O240  1  0.36645310  0.25246857  0.00843679  1
  O  O241  1  0.36693755  0.25353480  0.50774114  1
  O  O242  1  0.36910044  0.75573545  0.00561552  1
  O  O243  1  0.37376566  0.75722152  0.50771232  1
  O  O244  1  0.86415680  0.25060985  0.00563668  1
  O  O245  1  0.87442820  0.26196555  0.50004128  1
  O  O246  1  0.87143746  0.75452072  0.00467461  1
  O  O247  1  0.86995222  0.75445877  0.50462703  1
  O  O248  1  0.13087820  0.24401847  0.50025212  1
  O  O249  1  0.13193379  0.24340369  0.99919225  1
  O  O250  1  0.12406966  0.74366794  0.49300902  1
  O  O251  1  0.13205200  0.74412194  0.99797552  1
  O  O252  1  0.62751103  0.24655004  0.49073300  1
  O  O253  1  0.63762669  0.24646374  1.00033365  1
  O  O254  1  0.63142289  0.74425856  0.49477239  1
  O  O255  1  0.63333217  0.74823409  0.99325061  1
  O  O256  1  0.49507827  0.24530676  0.12984304  1
  O  O257  1  0.49425518  0.24479946  0.63477543  1
  O  O258  1  0.49371767  0.74288072  0.12513276  1
  O  O259  1  0.48861343  0.74955305  0.62514624  1
  O  O260  1  0.99565491  0.24643330  0.13159005  1
  O  O261  1  0.99565185  0.23995619  0.62900815  1
  O  O262  1  0.99427161  0.74506216  0.13041751  1
  O  O263  1  0.99362655  0.74439440  0.62926426  1
  O  O264  1  -0.00003047  0.25507250  0.36534206  1
  O  O265  1  0.00361881  0.25502868  0.87159564  1
  O  O266  1  0.00363918  0.75608646  0.36851503  1
  O  O267  1  0.00181767  0.75610283  0.86707523  1
  O  O268  1  0.50515737  0.25508064  0.36962053  1
  O  O269  1  0.49754935  0.25687236  0.86845569  1
  O  O270  1  0.50780218  0.75687081  0.37334998  1
  O  O271  1  0.50737024  0.75658745  0.87586315  1
  O  O272  1  0.24416245  0.13184594  0.49607050  1
  O  O273  1  0.24497592  0.12945829  0.99341735  1
  O  O274  1  0.23987389  0.62671390  0.49577685  1
  O  O275  1  0.24585943  0.63020740  0.99555173  1
  O  O276  1  0.75005209  0.12485355  0.48671161  1
  O  O277  1  0.75017706  0.13279901  0.99480444  1
  O  O278  1  0.74576110  0.62959665  0.49400516  1
  O  O279  1  0.75031289  0.63115989  0.99308209  1
  O  O280  1  0.25034922  0.37056061  0.00980209  1
  O  O281  1  0.25031911  0.37064461  0.50725888  1
  O  O282  1  0.25457529  0.87067700  0.00429552  1
  O  O283  1  0.25673876  0.87394813  0.50600062  1
  O  O284  1  0.75013086  0.36441988  0.00596511  1
  O  O285  1  0.76250988  0.37493616  0.49963646  1
  O  O286  1  0.75881852  0.86777978  0.00087477  1
  O  O287  1  0.75524164  0.86890985  0.50454741  1
  O  O288  1  0.13719713  0.50013207  0.24807071  1
  O  O289  1  0.13061234  0.49436223  0.74434303  1
  O  O290  1  0.13140142  0.99223415  0.24888057  1
  O  O291  1  0.12528439  0.99350802  0.74120043  1
  O  O292  1  0.63131239  0.49370476  0.24448797  1
  O  O293  1  0.63085657  0.49947476  0.74066668  1
  O  O294  1  0.63049243  0.99395963  0.24501353  1
  O  O295  1  0.63221641  0.99062661  0.74869715  1
  O  O296  1  0.36677316  0.00043632  0.25709472  1
  O  O297  1  0.37311443  0.01399903  0.75185851  1
  O  O298  1  0.36854879  0.50545472  0.25429496  1
  O  O299  1  0.36742646  0.50118636  0.75607177  1
  O  O300  1  0.86936202  0.00066127  0.25710684  1
  O  O301  1  0.86867232  0.00292066  0.75587085  1
  O  O302  1  0.86970329  0.50554945  0.25511195  1
  O  O303  1  0.87049946  0.50575671  0.75525334  1
  O  O304  1  0.11584376  0.37359322  0.37310170  1
  O  O305  1  0.12519928  0.37661017  0.86392093  1
  O  O306  1  0.11827306  0.86998724  0.36968416  1
  O  O307  1  0.11864584  0.87466183  0.86678194  1
  O  O308  1  0.62093423  0.36977967  0.36825711  1
  O  O309  1  0.61084759  0.37226564  0.87257452  1
  O  O310  1  0.62020574  0.87035701  0.37063243  1
  O  O311  1  0.62050390  0.86797810  0.86962095  1
  O  O312  1  0.38111443  0.13154668  0.12783057  1
  O  O313  1  0.37985177  0.13156739  0.63440652  1
  O  O314  1  0.38127074  0.62999079  0.12909327  1
  O  O315  1  0.37498610  0.63702567  0.62454681  1
  O  O316  1  0.88268697  0.13179063  0.12696455  1
  O  O317  1  0.88111618  0.12168243  0.63127098  1
  O  O318  1  0.88049515  0.63115216  0.13144369  1
  O  O319  1  0.88022194  0.62919305  0.62979666  1
  O  O320  1  0.25423216  0.25752725  0.12269831  1
  O  O321  1  0.25418035  0.25644454  0.62024536  1
  O  O322  1  0.25612720  0.75554654  0.11870625  1
  O  O323  1  0.25920219  0.75792659  0.62132969  1
  O  O324  1  0.75431018  0.25261182  0.11919556  1
  O  O325  1  0.75317135  0.25218660  0.62097723  1
  O  O326  1  0.75751236  0.75086308  0.11858422  1
  O  O327  1  0.75588286  0.75320563  0.61930885  1
  O  O328  1  0.24932598  0.24534643  0.38142159  1
  O  O329  1  0.24889998  0.24032517  0.88142077  1
  O  O330  1  0.24072031  0.74736728  0.37534705  1
  O  O331  1  0.24968423  0.74426880  0.88168165  1
  O  O332  1  0.74563900  0.24026446  0.37346684  1
  O  O333  1  0.74987813  0.24368820  0.88492930  1
  O  O334  1  0.74555600  0.74449504  0.38083317  1
  O  O335  1  0.74670335  0.74361162  0.88000434  1
  O  O336  1  0.00412688  0.12024774  0.00418648  1
  O  O337  1  0.00421678  0.11893737  0.50467058  1
  O  O338  1  0.00483710  0.61828810  0.00533462  1
  O  O339  1  0.00386357  0.61888852  0.50569719  1
  O  O340  1  0.50040784  0.11802381  0.00677759  1
  O  O341  1  0.49785191  0.12724745  0.51441806  1
  O  O342  1  0.50222464  0.61705730  0.00669486  1
  O  O343  1  0.50885576  0.61743688  0.50112866  1
  O  O344  1  0.49906299  0.38199466  0.49252253  1
  O  O345  1  0.49805393  0.37891256  0.99078286  1
  O  O346  1  0.49298636  0.87793032  0.49238597  1
  O  O347  1  0.49407960  0.87941740  0.99517562  1
  O  O348  1  0.99263424  0.38056618  0.49566877  1
  O  O349  1  1.00046207  0.38847923  1.00226537  1
  O  O350  1  0.99403974  0.88024503  0.49394239  1
  O  O351  1  0.99556114  0.87957407  0.99370122  1
  O  O352  1  0.49734323  0.49448964  0.37917860  1
  O  O353  1  0.49596453  0.49209851  0.87837020  1
  O  O354  1  0.49237348  0.99446292  0.37479971  1
  O  O355  1  0.49830338  0.99266553  0.88259158  1
  O  O356  1  0.99356831  0.49518552  0.37981561  1
  O  O357  1  0.99512705  0.50198233  0.88665316  1
  O  O358  1  0.99496459  0.99491636  0.37980518  1
  O  O359  1  0.99403036  0.99403416  0.88008809  1
  O  O360  1  0.00088993  0.00659994  0.11769949  1
  O  O361  1  0.00498061  0.00448122  0.61752027  1
  O  O362  1  0.00018196  0.50680178  0.11725069  1
  O  O363  1  0.00558571  0.50656678  0.61942704  1
  O  O364  1  0.50444366  0.00427226  0.12053295  1
  O  O365  1  0.49820874  0.01322003  0.62646350  1
  O  O366  1  0.50491858  0.50333941  0.11989167  1
  O  O367  1  0.50964716  0.49970645  0.61901088  1
  O  O368  1  0.25137117  0.38467412  0.24293359  1
  O  O369  1  0.24198275  0.38144079  0.74487792  1
  O  O370  1  0.24426690  0.87964005  0.24413905  1
  O  O371  1  0.24317070  0.87857041  0.74262810  1
  O  O372  1  0.74541777  0.37979548  0.24478422  1
  O  O373  1  0.74739656  0.38265333  0.75022198  1
  O  O374  1  0.74320990  0.88194647  0.24945726  1
  O  O375  1  0.74590635  0.87818184  0.74477661  1
  O  O376  1  0.25007696  0.11873579  0.25707893  1
  O  O377  1  0.25724389  0.12820479  0.75728553  1
  O  O378  1  0.25695387  0.61511544  0.24848217  1
  O  O379  1  0.25034491  0.61890620  0.75660365  1
  O  O380  1  0.75197300  0.11877055  0.26026322  1
  O  O381  1  0.75478867  0.11694624  0.75585712  1
  O  O382  1  0.75569836  0.61944934  0.25528341  1
  O  O383  1  0.75722013  0.61846963  0.75583918  1
  O  O384  1  0.36750341  0.11886801  0.37438759  1
  O  O385  1  0.36619633  0.12610297  0.86744105  1
  O  O386  1  0.37510560  0.61939186  0.36770424  1
  O  O387  1  0.36813116  0.61888402  0.87422126  1
  O  O388  1  0.86633225  0.11832325  0.37388567  1
  O  O389  1  0.86914626  0.11670287  0.86947003  1
  O  O390  1  0.86994060  0.61973669  0.36968311  1
  O  O391  1  0.87028122  0.61958743  0.86857422  1
  O  O392  1  0.13931303  0.37781250  0.12908407  1
  O  O393  1  0.12930130  0.38223060  0.63262885  1
  O  O394  1  0.13142735  0.87548733  0.13167232  1
  O  O395  1  0.12929921  0.88062971  0.62812199  1
  O  O396  1  0.63039197  0.37991517  0.13108725  1
  O  O397  1  0.62617157  0.38658609  0.62636412  1
  O  O398  1  0.62635179  0.88090454  0.13223095  1
  O  O399  1  0.63169266  0.87308466  0.63161853  1
  O  O400  1  0.11227680  0.25305462  0.25110555  1
  O  O401  1  0.12378322  0.26379081  0.75064762  1
  O  O402  1  0.11821453  0.75502510  0.25457979  1
  O  O403  1  0.11812903  0.75721981  0.74877694  1
  O  O404  1  0.61963803  0.25575980  0.25477911  1
  O  O405  1  0.61114423  0.25094860  0.75249111  1
  O  O406  1  0.62520377  0.75661374  0.25733133  1
  O  O407  1  0.62582333  0.75562461  0.75719850  1
  O  O408  1  0.38257313  0.24926111  0.24366185  1
  O  O409  1  0.38205153  0.24223158  0.74635248  1
  O  O410  1  0.37606668  0.74331181  0.24230549  1
  O  O411  1  0.37577249  0.75108667  0.73700881  1
  O  O412  1  0.88675957  0.24878292  0.24432537  1
  O  O413  1  0.87559917  0.23956034  0.74907184  1
  O  O414  1  0.88017481  0.74493921  0.24560512  1
  O  O415  1  0.88066041  0.74373884  0.74367964  1
  O  O416  1  0.38230416  0.50001586  0.49317009  1
  O  O417  1  0.38246000  0.49673516  0.99241712  1
  O  O418  1  0.37660673  0.99409543  0.49287714  1
  O  O419  1  0.38171649  0.99250999  0.99985169  1
  O  O420  1  0.88053965  0.49327852  0.49460593  1
  O  O421  1  0.88524079  0.50097380  0.99589384  1
  O  O422  1  0.88028340  0.99283807  0.49360002  1
  O  O423  1  0.88058200  0.99412052  0.99384414  1
  O  O424  1  0.11711861  0.00697945  0.00104112  1
  O  O425  1  0.11882067  0.00568973  0.50446387  1
  O  O426  1  0.11606011  0.50725567  0.00302789  1
  O  O427  1  0.11859085  0.50527107  0.50532619  1
  O  O428  1  0.61816571  -0.00123187  0.00739397  1
  O  O429  1  0.61925031  0.00643131  0.50580629  1
  O  O430  1  0.61873036  0.50050033  0.00720922  1
  O  O431  1  0.62184269  0.50393292  0.50676748  1
  O  O432  1  0.36425020  0.36917147  0.12426432  1
  O  O433  1  0.36740895  0.36965230  0.62485330  1
  O  O434  1  0.36929494  0.86906867  0.11926683  1
  O  O435  1  0.37037071  0.86996508  0.61951694  1
  O  O436  1  0.86692883  0.36775542  0.12284480  1
  O  O437  1  0.87459855  0.37536508  0.61366363  1
  O  O438  1  0.87493524  0.86792395  0.11795035  1
  O  O439  1  0.86958088  0.86815104  0.61883354  1
  O  O440  1  0.13202826  0.12726140  0.38320264  1
  O  O441  1  0.13402197  0.12624269  0.87942183  1
  O  O442  1  0.12371762  0.63183631  0.38121025  1
  O  O443  1  0.13305413  0.62745377  0.88211901  1
  O  O444  1  0.63463500  0.13044413  0.37393093  1
  O  O445  1  0.63351353  0.12686115  0.87789593  1
  O  O446  1  0.63158321  0.62977346  0.37978912  1
  O  O447  1  0.63310038  0.63036444  0.87610849  1
