# generated using pymatgen
data_V3Zn3O8
_symmetry_space_group_name_H-M   'P 1'
_cell_length_a   17.09270281
_cell_length_b   17.09126643
_cell_length_c   17.09179756
_cell_angle_alpha   90.00584487
_cell_angle_beta   89.99908402
_cell_angle_gamma   89.97965307
_symmetry_Int_Tables_number   1
_chemical_formula_structural   V3Zn3O8
_chemical_formula_sum   'V96 Zn96 O256'
_cell_volume   4993.12796398
_cell_formula_units_Z   32
loop_
 _symmetry_equiv_pos_site_id
 _symmetry_equiv_pos_as_xyz
  1  'x, y, z'
loop_
 _atom_site_type_symbol
 _atom_site_label
 _atom_site_symmetry_multiplicity
 _atom_site_fract_x
 _atom_site_fract_y
 _atom_site_fract_z
 _atom_site_occupancy
  V  V0  1  0.49922003  0.62483557  0.62590323  1
  V  V1  1  0.12485802  0.87369787  0.75001069  1
  V  V2  1  0.24964509  0.74961026  0.00003042  1
  V  V3  1  0.74970463  0.62244515  0.87301548  1
  V  V4  1  0.75027779  -0.00029590  0.25001957  1
  V  V5  1  0.25077459  0.62529678  0.37495789  1
  V  V6  1  0.25048143  -0.00028126  0.24943512  1
  V  V7  1  0.12315079  0.62436911  0.49993691  1
  V  V8  1  0.25201560  0.12497321  0.37455519  1
  V  V9  1  -0.00020711  0.87401412  0.87475235  1
  V  V10  1  0.49890564  0.49987332  0.50034969  1
  V  V11  1  0.62649058  0.62707694  0.49808680  1
  V  V12  1  0.25038195  0.75025448  0.49972084  1
  V  V13  1  0.00174926  0.87614703  0.37433476  1
  V  V14  1  0.12637840  -0.00009430  0.62474709  1
  V  V15  1  0.75015327  0.75058914  0.00031522  1
  V  V16  1  0.37358075  0.37629419  0.00048106  1
  V  V17  1  0.75099142  0.25085178  0.50091342  1
  V  V18  1  0.37559788  0.87518975  -0.00060128  1
  V  V19  1  0.37436182  0.50068681  0.37466986  1
  V  V20  1  0.24952413  0.12540356  0.87577368  1
  V  V21  1  0.62628624  0.12589332  0.50112614  1
  V  V22  1  0.50216836  0.75210782  0.25217083  1
  V  V23  1  0.25066656  -0.00043187  0.75043441  1
  V  V24  1  0.12541217  0.74906832  0.87571743  1
  V  V25  1  0.12522694  0.25091577  0.37416674  1
  V  V26  1  0.37575234  0.00012800  0.87597068  1
  V  V27  1  0.62540254  0.37594424  0.25027578  1
  V  V28  1  0.00214677  -0.00002823  0.49811158  1
  V  V29  1  0.87391300  0.49935650  0.37399015  1
  V  V30  1  0.37422419  0.37484859  0.50020901  1
  V  V31  1  0.00041593  0.75061548  0.24795060  1
  V  V32  1  0.49951067  -0.00044189  0.00043096  1
  V  V33  1  0.00160091  0.12517689  0.62443215  1
  V  V34  1  0.49999584  0.12504669  0.12589530  1
  V  V35  1  0.00005734  0.50147528  0.49992324  1
  V  V36  1  0.50057859  0.00007112  0.50038160  1
  V  V37  1  0.24921085  0.37479025  0.12543282  1
  V  V38  1  0.50039214  0.75035037  0.75055977  1
  V  V39  1  0.37611522  0.12597105  0.24996110  1
  V  V40  1  0.12472577  0.37511398  0.24968535  1
  V  V41  1  0.12474218  0.37564646  0.74870648  1
  V  V42  1  0.37547688  0.12514610  0.75087694  1
  V  V43  1  0.87555514  -0.00098676  0.87387214  1
  V  V44  1  0.25110670  0.25046795  0.50014783  1
  V  V45  1  0.37510980  0.25049693  0.12613444  1
  V  V46  1  0.49935580  0.25007662  0.75153740  1
  V  V47  1  0.12660961  0.12540692  0.49946383  1
  V  V48  1  0.37714888  0.87646198  0.50026381  1
  V  V49  1  0.74953981  0.50031835  0.25001973  1
  V  V50  1  0.00025124  0.37441129  0.37403818  1
  V  V51  1  0.87597131  0.12399515  0.74970521  1
  V  V52  1  0.62361496  0.62473745  0.00020982  1
  V  V53  1  -0.00100064  0.74856036  0.74861349  1
  V  V54  1  0.87516187  0.62412382  0.74847227  1
  V  V55  1  0.62325845  0.37466724  0.75092591  1
  V  V56  1  0.12437819  0.12473289  -0.00042007  1
  V  V57  1  0.62430497  0.75027033  0.87358239  1
  V  V58  1  0.25043449  0.87469220  0.62521548  1
  V  V59  1  0.62558575  0.25173684  0.37506868  1
  V  V60  1  0.24882632  0.50001314  0.74988384  1
  V  V61  1  0.87456820  0.87365812  -0.00019471  1
  V  V62  1  0.37449380  0.62591952  0.25048008  1
  V  V63  1  0.00016859  0.12416476  0.12426532  1
  V  V64  1  0.62335148  0.50034304  0.12425200  1
  V  V65  1  0.37504002  0.74939894  0.12528991  1
  V  V66  1  0.25004281  0.87597028  0.12535864  1
  V  V67  1  0.87524219  0.25018549  0.62436715  1
  V  V68  1  0.62532255  -0.00092328  0.12617201  1
  V  V69  1  -0.00159559  0.37457716  0.87531588  1
  V  V70  1  0.12464217  0.62497106  0.00028914  1
  V  V71  1  0.74938831  0.87474146  0.12561406  1
  V  V72  1  0.74938627  0.12444731  0.87622485  1
  V  V73  1  0.12611634  0.75080967  0.37430417  1
  V  V74  1  0.00039315  -0.00058366  -0.00017781  1
  V  V75  1  -0.00274683  0.49861964  -0.00055678  1
  V  V76  1  0.87275045  0.25077243  0.12265897  1
  V  V77  1  0.12436392  0.49873101  0.12495326  1
  V  V78  1  0.87428468  0.37524012  0.50009930  1
  V  V79  1  0.49828085  0.37580663  0.87654770  1
  V  V80  1  0.62745696  0.00036986  0.62579335  1
  V  V81  1  0.37318480  0.62459181  0.75085736  1
  V  V82  1  0.62618444  0.12508084  -0.00032071  1
  V  V83  1  0.87475178  0.87407397  0.50008832  1
  V  V84  1  0.37473450  0.74970852  0.62545097  1
  V  V85  1  0.12468163  0.24891139  0.87450227  1
  V  V86  1  0.00002443  0.25024434  0.74966196  1
  V  V87  1  0.37463777  0.25101698  0.62505342  1
  V  V88  1  0.62562871  0.49834716  0.62726880  1
  V  V89  1  0.75161971  0.12540895  0.37452683  1
  V  V90  1  0.50041827  0.37487661  0.37469429  1
  V  V91  1  0.62644698  0.87469584  0.74912864  1
  V  V92  1  0.50134305  0.12564854  0.62640137  1
  V  V93  1  0.87451096  0.62523633  0.24952506  1
  V  V94  1  0.87578444  0.12464010  0.24967860  1
  V  V95  1  0.75111946  -0.00146135  0.74866754  1
  Zn  Zn96  1  0.49787529  0.50301860  0.00061042  1
  Zn  Zn97  1  0.62729354  0.75391579  0.37629217  1
  Zn  Zn98  1  0.62636723  0.24984184  0.87709990  1
  Zn  Zn99  1  0.75088751  0.75083191  0.49878779  1
  Zn  Zn100  1  -0.00042040  0.62469937  0.12396108  1
  Zn  Zn101  1  0.87406965  0.74877945  0.62224868  1
  Zn  Zn102  1  0.50092466  0.87549555  0.87510952  1
  Zn  Zn103  1  0.75017567  0.37367247  0.62815921  1
  Zn  Zn104  1  0.49872977  0.62609800  0.12377070  1
  Zn  Zn105  1  0.12456703  -0.00032760  0.12411067  1
  Zn  Zn106  1  0.37813993  0.00028318  0.37623571  1
  Zn  Zn107  1  0.24953207  0.50097986  0.24978146  1
  Zn  Zn108  1  0.24813660  0.24948091  0.00006593  1
  Zn  Zn109  1  0.50185247  0.87738961  0.37600694  1
  Zn  Zn110  1  0.75134028  0.49647297  0.75119067  1
  Zn  Zn111  1  -0.00004868  0.24902041  0.24912890  1
  Zn  Zn112  1  0.75215596  0.87251974  0.62356217  1
  Zn  Zn113  1  0.12523261  0.87575813  0.24789413  1
  Zn  Zn114  1  0.74945202  0.37382902  0.12166715  1
  Zn  Zn115  1  0.87327150  0.49647425  0.87511793  1
  Zn  Zn116  1  0.87462960  0.74978378  0.12443754  1
  Zn  Zn117  1  0.24777447  0.37576563  0.62386643  1
  Zn  Zn118  1  -0.00066631  0.62484706  0.62367400  1
  Zn  Zn119  1  0.62608316  0.87469917  0.25444952  1
  Zn  Zn120  1  0.74797798  0.25232115  -0.00181502  1
  Zn  Zn121  1  0.25054229  0.62468508  0.87566239  1
  Zn  Zn122  1  0.37319033  0.50242073  0.87670156  1
  Zn  Zn123  1  0.74814198  0.62784166  0.37522228  1
  Zn  Zn124  1  0.87084207  0.37431645  -0.00187019  1
  Zn  Zn125  1  0.12240866  0.50024851  0.62459998  1
  Zn  Zn126  1  0.50130975  0.24984231  0.25025929  1
  Zn  Zn127  1  0.87655268  0.00106513  0.37403907  1
  Zn  Zn128  1  0.18754289  0.18805978  0.18653927  1
  Zn  Zn129  1  0.18874805  0.18850174  0.68753913  1
  Zn  Zn130  1  0.18721538  0.68600769  0.18627453  1
  Zn  Zn131  1  0.18605910  0.68529788  0.68572829  1
  Zn  Zn132  1  0.68786618  0.18687514  0.18777324  1
  Zn  Zn133  1  0.68845159  0.18876084  0.69024912  1
  Zn  Zn134  1  0.68727878  0.68736490  0.18653015  1
  Zn  Zn135  1  0.69056771  0.69016765  0.68339742  1
  Zn  Zn136  1  0.31205807  0.31318792  0.31135517  1
  Zn  Zn137  1  0.31092584  0.31330220  0.81278596  1
  Zn  Zn138  1  0.31602946  0.81456145  0.31405725  1
  Zn  Zn139  1  0.31282527  0.81219944  0.81439828  1
  Zn  Zn140  1  0.81184479  0.31229233  0.30971348  1
  Zn  Zn141  1  0.81077461  0.31162580  0.81328855  1
  Zn  Zn142  1  0.81122815  0.81222503  0.31669133  1
  Zn  Zn143  1  0.81199186  0.81050488  0.81165271  1
  Zn  Zn144  1  0.18750637  0.43841221  0.43642777  1
  Zn  Zn145  1  0.18586406  0.43733444  0.93617805  1
  Zn  Zn146  1  0.18900931  0.93697297  0.43556654  1
  Zn  Zn147  1  0.18739128  0.93723706  0.93790507  1
  Zn  Zn148  1  0.68907153  0.43896775  0.43757687  1
  Zn  Zn149  1  0.68614910  0.43583517  0.93992363  1
  Zn  Zn150  1  0.68770504  0.93772265  0.43481541  1
  Zn  Zn151  1  0.68714608  0.93785338  0.93697230  1
  Zn  Zn152  1  0.31247777  0.06348018  0.06308322  1
  Zn  Zn153  1  0.31421060  0.06289511  0.56336361  1
  Zn  Zn154  1  0.31031313  0.56283481  0.06477655  1
  Zn  Zn155  1  0.30996073  0.56246093  0.56375498  1
  Zn  Zn156  1  0.81267400  0.06222471  0.06266460  1
  Zn  Zn157  1  0.81422708  0.06064390  0.56133475  1
  Zn  Zn158  1  0.81079677  0.56292367  0.06379843  1
  Zn  Zn159  1  0.81079066  0.56107267  0.56329348  1
  Zn  Zn160  1  0.43850267  0.43804571  0.18892457  1
  Zn  Zn161  1  0.43565161  0.43787466  0.68812052  1
  Zn  Zn162  1  0.43700715  0.93665673  0.18735683  1
  Zn  Zn163  1  0.43976367  0.93716110  0.68732718  1
  Zn  Zn164  1  0.93795905  0.43558643  0.18646788  1
  Zn  Zn165  1  0.93758581  0.43903963  0.68647322  1
  Zn  Zn166  1  0.93529207  0.93755851  0.18632049  1
  Zn  Zn167  1  0.93914950  0.93672316  0.68501518  1
  Zn  Zn168  1  0.06399173  0.06353699  0.31096961  1
  Zn  Zn169  1  0.06284410  0.06174228  0.81302072  1
  Zn  Zn170  1  0.06214534  0.56240236  0.31311649  1
  Zn  Zn171  1  0.06245715  0.56238560  0.81420629  1
  Zn  Zn172  1  0.56394421  0.06256968  0.31357212  1
  Zn  Zn173  1  0.56369606  0.06136885  0.81387474  1
  Zn  Zn174  1  0.56010890  0.56399406  0.31179086  1
  Zn  Zn175  1  0.56025518  0.56179790  0.81311228  1
  Zn  Zn176  1  0.43869474  0.18760711  0.43725324  1
  Zn  Zn177  1  0.43767840  0.18888282  0.93970259  1
  Zn  Zn178  1  0.43944442  0.68817139  0.43681243  1
  Zn  Zn179  1  0.43737970  0.68712001  0.93640065  1
  Zn  Zn180  1  0.93840744  0.18855333  0.43670899  1
  Zn  Zn181  1  0.93690900  0.18702481  0.93786579  1
  Zn  Zn182  1  0.93815960  0.68849890  0.43383297  1
  Zn  Zn183  1  0.93710830  0.68621578  0.93575857  1
  Zn  Zn184  1  0.06037257  0.31134743  0.06234871  1
  Zn  Zn185  1  0.06273325  0.31456793  0.56208672  1
  Zn  Zn186  1  0.06388312  0.81371219  0.06411341  1
  Zn  Zn187  1  0.06040069  0.81042271  0.56317928  1
  Zn  Zn188  1  0.56222052  0.31157386  0.06292277  1
  Zn  Zn189  1  0.56136513  0.31250954  0.56237180  1
  Zn  Zn190  1  0.56259326  0.81250378  0.06417447  1
  Zn  Zn191  1  0.56260862  0.81363663  0.56489961  1
  O  O192  1  0.11844258  0.12446086  0.11744688  1
  O  O193  1  0.12125754  0.11980330  0.61960812  1
  O  O194  1  0.12254800  0.61744168  0.11813916  1
  O  O195  1  0.12166942  0.62272449  0.61466892  1
  O  O196  1  0.61967420  0.11845691  0.12014603  1
  O  O197  1  0.62049761  0.12107773  0.62110671  1
  O  O198  1  0.62469223  0.61574758  0.11874421  1
  O  O199  1  0.61892707  0.61588901  0.61962830  1
  O  O200  1  0.38014935  0.38013233  0.38062045  1
  O  O201  1  0.38137018  0.37484916  0.88400185  1
  O  O202  1  0.37865080  0.87872279  0.38603886  1
  O  O203  1  0.37631677  0.88237666  0.88144915  1
  O  O204  1  0.88000500  0.37946666  0.37979895  1
  O  O205  1  0.88308322  0.37649303  0.87635895  1
  O  O206  1  0.88404832  0.87824105  0.38350709  1
  O  O207  1  0.88050158  0.87947279  0.87944666  1
  O  O208  1  0.25256351  0.00649676  0.36622099  1
  O  O209  1  0.25552744  0.00508212  0.86909721  1
  O  O210  1  0.25713931  0.50732281  0.37357780  1
  O  O211  1  0.25075838  0.50138171  0.86246451  1
  O  O212  1  0.75218182  0.00901337  0.36809018  1
  O  O213  1  0.75695231  0.00429702  0.86840781  1
  O  O214  1  0.75684011  0.50281592  0.36784678  1
  O  O215  1  0.74856107  0.51302905  0.87460277  1
  O  O216  1  0.24188921  0.49241573  0.12704008  1
  O  O217  1  0.24692738  0.49777481  0.63706476  1
  O  O218  1  0.25025449  0.99536888  0.13412771  1
  O  O219  1  0.24535507  0.99504560  0.63117674  1
  O  O220  1  0.73848251  0.49965799  0.13091832  1
  O  O221  1  0.73591421  0.49694712  0.62768985  1
  O  O222  1  0.74487634  0.99485657  0.13019072  1
  O  O223  1  0.74465242  1.00004959  0.63192276  1
  O  O224  1  0.00670337  0.37318028  0.25712302  1
  O  O225  1  0.00439388  0.36925596  0.75512659  1
  O  O226  1  -0.00017230  0.86611468  0.25443843  1
  O  O227  1  0.00582094  0.87011318  0.75534568  1
  O  O228  1  0.50707127  0.37383023  0.25799106  1
  O  O229  1  0.50162396  0.36997053  0.75856204  1
  O  O230  1  0.49997609  0.86427504  0.25090715  1
  O  O231  1  0.50748909  0.86818261  0.75106541  1
  O  O232  1  0.49375810  0.12542632  0.24357482  1
  O  O233  1  0.49468146  0.12966666  0.74610527  1
  O  O234  1  0.49231952  0.63491730  0.24872019  1
  O  O235  1  0.49401848  0.63027468  0.74476220  1
  O  O236  1  0.99425601  0.12539589  0.24270400  1
  O  O237  1  0.99587257  0.12973575  0.74429630  1
  O  O238  1  0.99208202  0.63376099  0.24991156  1
  O  O239  1  0.98992149  0.62977991  0.75223416  1
  O  O240  1  0.37292704  0.26108152  0.00637401  1
  O  O241  1  0.37057273  0.25495360  0.50517070  1
  O  O242  1  0.36954280  0.75528266  0.00488138  1
  O  O243  1  0.37017863  0.75454098  0.50686372  1
  O  O244  1  0.87366545  0.24906986  0.01100835  1
  O  O245  1  0.87077859  0.25522533  0.50527749  1
  O  O246  1  0.86867176  0.75550429  0.00000033  1
  O  O247  1  0.87821994  0.76237306  0.49888831  1
  O  O248  1  0.13093642  0.24458912  0.49468297  1
  O  O249  1  0.12471789  0.24303525  0.99179262  1
  O  O250  1  0.13075782  0.74566471  0.49390276  1
  O  O251  1  0.12962569  0.74549248  0.99556260  1
  O  O252  1  0.63083063  0.24530752  0.49593109  1
  O  O253  1  0.62584938  0.23973772  0.99872630  1
  O  O254  1  0.62158999  0.73597662  0.50257640  1
  O  O255  1  0.63066689  0.74499474  0.99406574  1
  O  O256  1  0.49311942  0.24277191  0.12734509  1
  O  O257  1  0.49420245  0.24444817  0.63076840  1
  O  O258  1  0.49293771  0.74901457  0.13382611  1
  O  O259  1  0.49366337  0.74389478  0.63155178  1
  O  O260  1  0.99042428  0.24259206  0.12599959  1
  O  O261  1  0.99536575  0.24398916  0.62956734  1
  O  O262  1  0.99823285  0.74863435  0.13641338  1
  O  O263  1  0.99632479  0.74611269  0.63378774  1
  O  O264  1  0.00774589  0.25659352  0.37386626  1
  O  O265  1  0.00485707  0.25352305  0.86814017  1
  O  O266  1  0.00638129  0.75572915  0.36495764  1
  O  O267  1  0.00572650  0.75571099  0.86934696  1
  O  O268  1  0.50811370  0.25700594  0.37505534  1
  O  O269  1  0.49935899  0.26048984  0.87013997  1
  O  O270  1  0.50117267  0.75169240  0.36366402  1
  O  O271  1  0.50693221  0.75165714  0.86769130  1
  O  O272  1  0.24583222  0.13008052  0.49507974  1
  O  O273  1  0.24366660  0.12580591  0.99279583  1
  O  O274  1  0.24495661  0.63149228  0.49448251  1
  O  O275  1  0.24308742  0.63177997  0.99883032  1
  O  O276  1  0.74589610  0.13092277  0.49521067  1
  O  O277  1  0.74323920  0.12215222  0.99262285  1
  O  O278  1  0.73731599  0.62321004  0.49932504  1
  O  O279  1  0.74521415  0.63009236  0.99137075  1
  O  O280  1  0.25837776  0.37378573  0.00488211  1
  O  O281  1  0.25650409  0.36834040  0.50024476  1
  O  O282  1  0.25578619  0.87019539  0.00520748  1
  O  O283  1  0.25545845  0.86989624  0.50654117  1
  O  O284  1  0.75329150  0.37096106  0.00325212  1
  O  O285  1  0.75651361  0.36859120  0.50217725  1
  O  O286  1  0.75533614  0.87009987  0.00399242  1
  O  O287  1  0.76434784  0.87850747  0.49977289  1
  O  O288  1  0.12497515  0.49347295  0.24355426  1
  O  O289  1  0.13238171  0.49475136  0.74981837  1
  O  O290  1  0.13958898  1.00019348  0.24790660  1
  O  O291  1  0.13068820  0.99397814  0.74496370  1
  O  O292  1  0.62911614  0.49727402  0.24328277  1
  O  O293  1  0.62244091  0.49449259  0.74044757  1
  O  O294  1  0.63226759  1.00009555  0.24283816  1
  O  O295  1  0.63118334  0.99523457  0.74518478  1
  O  O296  1  0.36503182  0.00639905  0.25037843  1
  O  O297  1  0.37022235  0.00539915  0.75468865  1
  O  O298  1  0.37433494  0.50717583  0.25723570  1
  O  O299  1  0.36548022  0.50575740  0.75025933  1
  O  O300  1  0.86838617  0.00728388  0.25106296  1
  O  O301  1  0.87226272  0.00469081  0.75435416  1
  O  O302  1  0.87111344  0.50700518  0.25324960  1
  O  O303  1  0.87253904  0.51038649  0.75364850  1
  O  O304  1  0.12008990  0.36998966  0.36985356  1
  O  O305  1  0.11843338  0.36803818  0.86866861  1
  O  O306  1  0.12002475  0.86798775  0.37219709  1
  O  O307  1  0.11936299  0.86958368  0.86933726  1
  O  O308  1  0.61995057  0.37164588  0.37103476  1
  O  O309  1  0.61329645  0.37381508  0.87067639  1
  O  O310  1  0.61970407  0.87200517  0.37255335  1
  O  O311  1  0.62459402  0.86803783  0.86777684  1
  O  O312  1  0.38035642  0.13075139  0.12962580  1
  O  O313  1  0.38127334  0.13067657  0.63184507  1
  O  O314  1  0.37512999  0.63180902  0.13185361  1
  O  O315  1  0.37975751  0.63072513  0.62991210  1
  O  O316  1  0.88041689  0.13109417  0.12950548  1
  O  O317  1  0.88251508  0.12952289  0.62976567  1
  O  O318  1  0.87721981  0.62634727  0.13798106  1
  O  O319  1  0.87450507  0.62502186  0.63758497  1
  O  O320  1  0.25705026  0.25687985  0.12237322  1
  O  O321  1  0.25737414  0.25048927  0.61825089  1
  O  O322  1  0.25524016  0.75580015  0.11957728  1
  O  O323  1  0.25496494  0.75560422  0.61962362  1
  O  O324  1  0.76118820  0.24888030  0.12308540  1
  O  O325  1  0.75737650  0.25017725  0.61908421  1
  O  O326  1  0.75125411  0.75617030  0.11760371  1
  O  O327  1  0.75569791  0.75480978  0.61709980  1
  O  O328  1  0.24513761  0.24466051  0.38078053  1
  O  O329  1  0.24276907  0.24247710  0.87500127  1
  O  O330  1  0.24626748  0.74559914  0.38095764  1
  O  O331  1  0.24273137  0.75014735  0.88244052  1
  O  O332  1  0.74498269  0.24553887  0.38123010  1
  O  O333  1  0.74738814  0.23885531  0.87634741  1
  O  O334  1  0.74531544  0.74478577  0.38104716  1
  O  O335  1  0.74413503  0.74051198  0.87969065  1
  O  O336  1  0.00480386  0.11782819  0.00347577  1
  O  O337  1  0.00726834  0.12060322  0.50495169  1
  O  O338  1  0.00503847  0.61562633  0.00017049  1
  O  O339  1  0.00533008  0.61886311  0.49708692  1
  O  O340  1  0.50460692  0.11863705  0.00580695  1
  O  O341  1  0.50664157  0.12153936  0.50753942  1
  O  O342  1  0.50759913  0.62283782  0.00177184  1
  O  O343  1  0.50567829  0.61871826  0.50674818  1
  O  O344  1  0.49420474  0.38059134  0.49441564  1
  O  O345  1  0.49068887  0.37546548  0.99252613  1
  O  O346  1  0.49368257  0.88277598  0.50376654  1
  O  O347  1  0.49326410  0.88169579  0.99930683  1
  O  O348  1  0.99384899  0.38040205  0.49334427  1
  O  O349  1  0.99980197  0.38445192  0.99376014  1
  O  O350  1  0.99592928  0.88078261  0.49441505  1
  O  O351  1  0.99500724  0.87897270  0.99387139  1
  O  O352  1  0.49387359  0.49460564  0.38116647  1
  O  O353  1  0.49613966  0.48680273  0.87637850  1
  O  O354  1  0.49836237  1.00090569  0.38543676  1
  O  O355  1  0.49285930  0.99896163  0.88188661  1
  O  O356  1  0.99333612  0.49373180  0.37990494  1
  O  O357  1  1.00018693  0.49364291  0.88530688  1
  O  O358  1  1.00201244  0.99454859  0.38073759  1
  O  O359  1  0.99470185  0.99341449  0.87904860  1
  O  O360  1  0.00063836  0.00569007  0.11723195  1
  O  O361  1  0.00826269  0.00609299  0.61949066  1
  O  O362  1  0.00578880  0.49951037  0.11470860  1
  O  O363  1  0.00113090  0.50323920  0.61485002  1
  O  O364  1  0.50459343  0.00547408  0.11973622  1
  O  O365  1  0.50715540  0.00751795  0.62157710  1
  O  O366  1  0.51234089  0.50282090  0.12515877  1
  O  O367  1  0.50676825  0.50487215  0.62056897  1
  O  O368  1  0.24311370  0.37753179  0.24350796  1
  O  O369  1  0.24407508  0.38330644  0.74882691  1
  O  O370  1  0.25166823  0.88442279  0.24515878  1
  O  O371  1  0.24484213  0.88006269  0.74490052  1
  O  O372  1  0.74280700  0.38304905  0.24751939  1
  O  O373  1  0.73994587  0.37699149  0.74883541  1
  O  O374  1  0.75067010  0.88137199  0.24364912  1
  O  O375  1  0.74504543  0.88153123  0.74887122  1
  O  O376  1  0.25578664  0.11812299  0.25409374  1
  O  O377  1  0.25563535  0.11877225  0.75516754  1
  O  O378  1  0.25655126  0.62510223  0.25753830  1
  O  O379  1  0.25449519  0.61686430  0.75059151  1
  O  O380  1  0.75568435  0.11950945  0.25544276  1
  O  O381  1  0.75691582  0.11850965  0.75534080  1
  O  O382  1  0.75964816  0.61984821  0.25067916  1
  O  O383  1  0.75639903  0.62530132  0.75884490  1
  O  O384  1  0.36881570  0.12488241  0.36881152  1
  O  O385  1  0.36999860  0.12017737  0.87024647  1
  O  O386  1  0.36972661  0.62011598  0.37130566  1
  O  O387  1  0.37170689  0.62236371  0.86701725  1
  O  O388  1  0.86936608  0.12567838  0.36850902  1
  O  O389  1  0.87134446  0.11801834  0.86846922  1
  O  O390  1  0.87531335  0.61798970  0.36320548  1
  O  O391  1  0.86465099  0.62402638  0.86675724  1
  O  O392  1  0.12941742  0.37842176  0.12955148  1
  O  O393  1  0.12687655  0.37743755  0.63314259  1
  O  O394  1  0.13380859  0.87914381  0.12818570  1
  O  O395  1  0.13084257  0.88012886  0.63017324  1
  O  O396  1  0.62435053  0.38440470  0.13107980  1
  O  O397  1  0.62202454  0.38426203  0.63085735  1
  O  O398  1  0.63234827  0.88229215  0.12648602  1
  O  O399  1  0.62748506  0.88322626  0.63148114  1
  O  O400  1  0.12405979  0.25620600  0.25692442  1
  O  O401  1  0.11892998  0.25419435  0.75453806  1
  O  O402  1  0.11558828  0.74960825  0.25532568  1
  O  O403  1  0.12026861  0.75513638  0.75500746  1
  O  O404  1  0.62490094  0.25701336  0.25725166  1
  O  O405  1  0.61617142  0.25625577  0.75184453  1
  O  O406  1  0.61326897  0.74953780  0.24967919  1
  O  O407  1  0.62002950  0.75411408  0.75355297  1
  O  O408  1  0.37678961  0.24391713  0.24391917  1
  O  O409  1  0.37974451  0.24440360  0.74550934  1
  O  O410  1  0.38152139  0.74569022  0.24498811  1
  O  O411  1  0.37920195  0.74540941  0.74447226  1
  O  O412  1  0.87634157  0.24303187  0.24037035  1
  O  O413  1  0.88102413  0.24332426  0.74408054  1
  O  O414  1  0.88415844  0.74175355  0.25099285  1
  O  O415  1  0.88081467  0.73980820  0.75093437  1
  O  O416  1  0.37969460  0.49555170  0.49550590  1
  O  O417  1  0.37564740  0.48792710  1.00021808  1
  O  O418  1  0.38236829  0.99463776  0.50219393  1
  O  O419  1  0.37973716  0.99533052  0.99532027  1
  O  O420  1  0.87893457  0.49495836  0.49402199  1
  O  O421  1  0.88648424  0.50049345  0.99974296  1
  O  O422  1  0.88486904  0.99312563  0.49756802  1
  O  O423  1  0.88064316  0.99375849  0.99288986  1
  O  O424  1  0.11778922  0.00640464  -0.00064192  1
  O  O425  1  0.12271633  0.00566652  0.50552419  1
  O  O426  1  0.11660810  0.50420297  0.00421973  1
  O  O427  1  0.11802989  0.50655087  0.49831103  1
  O  O428  1  0.61907635  0.00481478  0.00591515  1
  O  O429  1  0.62144857  0.00774669  0.50674795  1
  O  O430  1  0.62341229  0.50568485  0.00968821  1
  O  O431  1  0.61870994  0.50536778  0.50888368  1
  O  O432  1  0.37103028  0.37142621  0.11842215  1
  O  O433  1  0.37447933  0.36821162  0.61775306  1
  O  O434  1  0.36899901  0.86937549  0.11813385  1
  O  O435  1  0.36920248  0.86926271  0.62149250  1
  O  O436  1  0.87383516  0.36294958  0.12391691  1
  O  O437  1  0.87408016  0.36791506  0.61852353  1
  O  O438  1  0.86743003  0.87345030  0.11661752  1
  O  O439  1  0.87662092  0.87495563  0.61227318  1
  O  O440  1  0.13188904  0.13091487  0.38054672  1
  O  O441  1  0.12975899  0.12939809  0.87903782  1
  O  O442  1  0.13092651  0.63138618  0.37991155  1
  O  O443  1  0.12624607  0.63270162  0.88223772  1
  O  O444  1  0.63152864  0.13209887  0.38174496  1
  O  O445  1  0.63126183  0.12434324  0.88163644  1
  O  O446  1  0.62337753  0.62349679  0.38836299  1
  O  O447  1  0.63186346  0.62978252  0.87829560  1
