# generated using pymatgen
data_V3Zn3O8
_symmetry_space_group_name_H-M   'P 1'
_cell_length_a   17.08177748
_cell_length_b   17.08277744
_cell_length_c   17.08169750
_cell_angle_alpha   89.99477544
_cell_angle_beta   89.99398624
_cell_angle_gamma   90.01532351
_symmetry_Int_Tables_number   1
_chemical_formula_structural   V3Zn3O8
_chemical_formula_sum   'V96 Zn96 O256'
_cell_volume   4984.51089977
_cell_formula_units_Z   32
loop_
 _symmetry_equiv_pos_site_id
 _symmetry_equiv_pos_as_xyz
  1  'x, y, z'
loop_
 _atom_site_type_symbol
 _atom_site_label
 _atom_site_symmetry_multiplicity
 _atom_site_fract_x
 _atom_site_fract_y
 _atom_site_fract_z
 _atom_site_occupancy
  V  V0  1  0.00020674  0.87410889  0.87541992  1
  V  V1  1  0.37443957  0.12601479  0.25095265  1
  V  V2  1  0.37461640  0.25012892  0.62473097  1
  V  V3  1  0.24910412  0.62464470  0.37268145  1
  V  V4  1  0.37479552  0.37629647  0.49928566  1
  V  V5  1  0.00176305  0.62195822  0.12294213  1
  V  V6  1  0.49953388  0.12557880  0.62433230  1
  V  V7  1  0.87579323  0.49760961  0.87974762  1
  V  V8  1  0.00032639  -0.00193809  -0.00031001  1
  V  V9  1  0.25118795  0.49943825  0.74914980  1
  V  V10  1  0.25122847  0.87279809  0.12439944  1
  V  V11  1  0.74914952  0.50018794  0.75009806  1
  V  V12  1  0.24975332  0.75035742  0.49910961  1
  V  V13  1  -0.00002414  0.12371794  0.12562403  1
  V  V14  1  0.74991513  0.75278137  0.50181757  1
  V  V15  1  0.37672578  0.49910907  0.87374987  1
  V  V16  1  0.75013518  0.12575314  0.87521475  1
  V  V17  1  0.12466039  0.87502592  0.74876792  1
  V  V18  1  0.37537669  -0.00099925  0.87425522  1
  V  V19  1  -0.00020571  0.24890681  0.24942747  1
  V  V20  1  0.62625954  0.50078127  0.62495052  1
  V  V21  1  0.74993207  -0.00043328  0.74935484  1
  V  V22  1  0.25150633  0.24834074  0.00095235  1
  V  V23  1  0.87426711  0.75083329  0.62555836  1
  V  V24  1  0.37546129  0.75106651  0.62277266  1
  V  V25  1  0.62522366  0.25161178  0.37443785  1
  V  V26  1  0.49927912  0.75013450  0.24886706  1
  V  V27  1  0.12536354  0.25041999  0.87585956  1
  V  V28  1  0.25072938  0.12359138  0.87579552  1
  V  V29  1  0.24972170  0.37531347  0.62510074  1
  V  V30  1  0.49809462  0.87696647  0.37423765  1
  V  V31  1  0.24917150  0.12472108  0.37558874  1
  V  V32  1  0.87468185  0.12648604  0.75028900  1
  V  V33  1  0.50029801  0.75085407  0.74896889  1
  V  V34  1  0.87413411  0.75002348  0.12459596  1
  V  V35  1  0.62366289  0.87615020  0.24954896  1
  V  V36  1  0.12346312  0.25001911  0.37467916  1
  V  V37  1  0.50051626  0.37507037  0.87455833  1
  V  V38  1  0.37503989  0.12407506  0.74964401  1
  V  V39  1  0.24974751  0.49910787  0.24881119  1
  V  V40  1  0.49880086  0.00041744  0.49926761  1
  V  V41  1  0.87657503  0.37587401  0.49941020  1
  V  V42  1  0.74912855  0.75048520  0.00002494  1
  V  V43  1  0.25050106  0.37445898  0.12531746  1
  V  V44  1  0.87502211  -0.00139725  0.37581983  1
  V  V45  1  0.37399103  0.00142651  0.37564415  1
  V  V46  1  0.37574878  0.62429901  0.24803344  1
  V  V47  1  0.12318162  0.12480598  0.50130880  1
  V  V48  1  0.62418474  0.50189265  0.12521611  1
  V  V49  1  0.74852695  0.62582747  0.87633699  1
  V  V50  1  0.12648866  0.74737783  0.87460093  1
  V  V51  1  0.87588785  0.87412762  0.00007204  1
  V  V52  1  0.12529424  -0.00191408  0.12580008  1
  V  V53  1  0.50079328  0.00011325  -0.00061421  1
  V  V54  1  0.87520882  0.25021562  0.62588185  1
  V  V55  1  0.37625491  0.24886466  0.12589210  1
  V  V56  1  0.12499102  0.37345795  0.75253157  1
  V  V57  1  0.37581117  0.62524138  0.74850256  1
  V  V58  1  0.50040082  0.25035685  0.74979728  1
  V  V59  1  0.75128572  0.62465963  0.37495482  1
  V  V60  1  -0.00017689  0.74968945  0.74987636  1
  V  V61  1  0.00036615  0.49913284  0.50046861  1
  V  V62  1  0.62559440  0.12435305  -0.00068632  1
  V  V63  1  0.74848151  -0.00072487  0.24961234  1
  V  V64  1  0.75235230  0.37322785  0.12371851  1
  V  V65  1  0.12589874  0.12347358  0.00083375  1
  V  V66  1  0.12356316  0.00070047  0.62581704  1
  V  V67  1  0.62478829  0.12601633  0.49950244  1
  V  V68  1  -0.00018594  0.74971277  0.25055484  1
  V  V69  1  0.37682247  0.37430433  -0.00089046  1
  V  V70  1  0.62477693  0.00049238  0.12434104  1
  V  V71  1  0.87523258  0.12473250  0.24911773  1
  V  V72  1  0.62561599  0.37460802  0.25079073  1
  V  V73  1  0.12491338  0.74991440  0.37513655  1
  V  V74  1  0.62450800  0.75030254  0.87482337  1
  V  V75  1  0.00062381  0.62418804  0.62527023  1
  V  V76  1  0.74994985  0.12483762  0.37440445  1
  V  V77  1  0.12530400  0.87500741  0.24979219  1
  V  V78  1  0.24908988  -0.00110504  0.74923341  1
  V  V79  1  0.25007746  0.62520900  0.87417864  1
  V  V80  1  -0.00122382  0.87557985  0.37582208  1
  V  V81  1  0.12498048  0.37403605  0.24891391  1
  V  V82  1  0.62522309  0.00047669  0.62498172  1
  V  V83  1  0.24878785  0.25075441  0.50037127  1
  V  V84  1  0.50042227  0.87420514  0.87371943  1
  V  V85  1  -0.00064194  0.12604749  0.62637484  1
  V  V86  1  0.75040510  0.25073268  0.49998596  1
  V  V87  1  0.87463879  0.62504125  0.75139814  1
  V  V88  1  0.62532957  0.62578120  0.49996606  1
  V  V89  1  0.62470812  0.25008622  0.87536405  1
  V  V90  1  0.87429199  0.62534638  0.25154972  1
  V  V91  1  0.50008279  0.25027013  0.25050600  1
  V  V92  1  0.12513912  0.49988558  0.62536232  1
  V  V93  1  0.49953640  0.50095479  0.49875435  1
  V  V94  1  0.37440248  0.87391577  -0.00017567  1
  V  V95  1  0.75003345  0.37604184  0.62516564  1
  Zn  Zn96  1  0.87750276  0.49925928  0.37496457  1
  Zn  Zn97  1  0.87827483  0.37148390  0.00114385  1
  Zn  Zn98  1  0.50070013  0.62442787  0.12367811  1
  Zn  Zn99  1  0.62459768  0.37564788  0.75040044  1
  Zn  Zn100  1  -0.00223224  -0.00116346  0.50126799  1
  Zn  Zn101  1  0.62385328  0.75187673  0.37600862  1
  Zn  Zn102  1  -0.00084649  0.25136075  0.75393638  1
  Zn  Zn103  1  0.75049669  0.87664265  0.62496169  1
  Zn  Zn104  1  0.12853959  0.62316694  0.00019513  1
  Zn  Zn105  1  0.25148499  0.74739398  -0.00180645  1
  Zn  Zn106  1  0.87593208  0.00095987  0.87534414  1
  Zn  Zn107  1  0.49946718  0.37563672  0.37469678  1
  Zn  Zn108  1  0.25008127  -0.00013480  0.25198594  1
  Zn  Zn109  1  0.74973979  0.87444710  0.12483126  1
  Zn  Zn110  1  0.50170544  0.62711908  0.62348560  1
  Zn  Zn111  1  0.75150228  0.49906969  0.25154624  1
  Zn  Zn112  1  0.37517314  0.74769537  0.12142382  1
  Zn  Zn113  1  0.00465177  0.49764400  -0.00093736  1
  Zn  Zn114  1  -0.00115596  0.37629154  0.37329550  1
  Zn  Zn115  1  0.62584902  0.87427051  0.74781496  1
  Zn  Zn116  1  0.37427774  0.87636035  0.49897723  1
  Zn  Zn117  1  0.12439858  0.62368569  0.49918787  1
  Zn  Zn118  1  0.75258871  0.24935272  -0.00044307  1
  Zn  Zn119  1  0.87523915  0.24929490  0.12234106  1
  Zn  Zn120  1  0.24838872  0.87591052  0.62327193  1
  Zn  Zn121  1  0.50006299  0.12522379  0.12466657  1
  Zn  Zn122  1  0.12543912  0.49906065  0.12183913  1
  Zn  Zn123  1  0.50077217  0.50300764  -0.00049384  1
  Zn  Zn124  1  0.62151061  0.62629767  0.00168167  1
  Zn  Zn125  1  0.87607574  0.87682412  0.50215564  1
  Zn  Zn126  1  0.00032509  0.37373172  0.87873949  1
  Zn  Zn127  1  0.37514092  0.49824717  0.37409738  1
  Zn  Zn128  1  0.18776745  0.18710206  0.18829148  1
  Zn  Zn129  1  0.18681788  0.18713898  0.68891135  1
  Zn  Zn130  1  0.18648794  0.68807563  0.18752409  1
  Zn  Zn131  1  0.18733019  0.68668552  0.68719492  1
  Zn  Zn132  1  0.68712872  0.18757504  0.18612078  1
  Zn  Zn133  1  0.68692379  0.18779798  0.68802374  1
  Zn  Zn134  1  0.68709576  0.68905386  0.18848280  1
  Zn  Zn135  1  0.68687195  0.68680697  0.68788843  1
  Zn  Zn136  1  0.31260655  0.31322062  0.31407015  1
  Zn  Zn137  1  0.31253529  0.31187903  0.81306646  1
  Zn  Zn138  1  0.31374318  0.81276256  0.31158794  1
  Zn  Zn139  1  0.31203181  0.81273590  0.81075823  1
  Zn  Zn140  1  0.81390289  0.31296010  0.31149082  1
  Zn  Zn141  1  0.81051901  0.31324732  0.81250622  1
  Zn  Zn142  1  0.81204980  0.81273714  0.31319561  1
  Zn  Zn143  1  0.81261299  0.81385707  0.81378976  1
  Zn  Zn144  1  0.18643742  0.43762816  0.43545542  1
  Zn  Zn145  1  0.18800975  0.43879107  0.93934557  1
  Zn  Zn146  1  0.18590584  0.93764655  0.43884797  1
  Zn  Zn147  1  0.18707494  0.93517931  0.93745945  1
  Zn  Zn148  1  0.68829108  0.43805114  0.43811858  1
  Zn  Zn149  1  0.68673765  0.43731887  0.94029345  1
  Zn  Zn150  1  0.68572525  0.93752129  0.43620988  1
  Zn  Zn151  1  0.68804171  0.93630991  0.93618217  1
  Zn  Zn152  1  0.31391426  0.05998670  0.06427025  1
  Zn  Zn153  1  0.31076270  0.06276321  0.56230220  1
  Zn  Zn154  1  0.31293835  0.56051380  0.06051827  1
  Zn  Zn155  1  0.31251516  0.56438517  0.56183038  1
  Zn  Zn156  1  0.81232165  0.06069319  0.06247908  1
  Zn  Zn157  1  0.81335878  0.06322070  0.56221856  1
  Zn  Zn158  1  0.80999300  0.56321220  0.06327782  1
  Zn  Zn159  1  0.81425590  0.56306111  0.56257528  1
  Zn  Zn160  1  0.43896594  0.43622608  0.18734762  1
  Zn  Zn161  1  0.43887155  0.43711110  0.68573276  1
  Zn  Zn162  1  0.43663954  0.93980562  0.18730846  1
  Zn  Zn163  1  0.43725705  0.93569796  0.68606086  1
  Zn  Zn164  1  0.93587886  0.43856670  0.19040251  1
  Zn  Zn165  1  0.93838095  0.43615636  0.69043915  1
  Zn  Zn166  1  0.93656977  0.93686476  0.18792469  1
  Zn  Zn167  1  0.93658652  0.93775328  0.68679302  1
  Zn  Zn168  1  0.06220453  0.06093064  0.31302989  1
  Zn  Zn169  1  0.06153363  0.06328056  0.81282468  1
  Zn  Zn170  1  0.06336373  0.56108325  0.31174975  1
  Zn  Zn171  1  0.06223239  0.56120528  0.81216439  1
  Zn  Zn172  1  0.56129193  0.06395662  0.31171417  1
  Zn  Zn173  1  0.56359942  0.06288598  0.81228213  1
  Zn  Zn174  1  0.56511628  0.56289031  0.31263469  1
  Zn  Zn175  1  0.56214765  0.56438489  0.81144200  1
  Zn  Zn176  1  0.43741161  0.18918986  0.43663209  1
  Zn  Zn177  1  0.43926075  0.18691621  0.93732280  1
  Zn  Zn178  1  0.43661711  0.68656100  0.43427721  1
  Zn  Zn179  1  0.43777782  0.68652573  0.93845042  1
  Zn  Zn180  1  0.93777957  0.18707202  0.43741225  1
  Zn  Zn181  1  0.93693338  0.18865398  0.93837460  1
  Zn  Zn182  1  0.93697076  0.68754858  0.43953015  1
  Zn  Zn183  1  0.93738780  0.68638303  0.93874210  1
  Zn  Zn184  1  0.06098725  0.31318759  0.06192395  1
  Zn  Zn185  1  0.06110284  0.31277553  0.56422623  1
  Zn  Zn186  1  0.06408548  0.80825840  0.06060702  1
  Zn  Zn187  1  0.06183368  0.81303964  0.56175317  1
  Zn  Zn188  1  0.56352202  0.31286830  0.06214063  1
  Zn  Zn189  1  0.56291716  0.31510617  0.56236628  1
  Zn  Zn190  1  0.56263873  0.81377063  0.06289564  1
  Zn  Zn191  1  0.56336653  0.81568656  0.56209271  1
  O  O192  1  0.12120532  0.11799102  0.12014782  1
  O  O193  1  0.11963160  0.12067002  0.62137699  1
  O  O194  1  0.11339336  0.62467757  0.12570611  1
  O  O195  1  0.11853119  0.61735762  0.62478910  1
  O  O196  1  0.62344587  0.11783621  0.11791512  1
  O  O197  1  0.61851839  0.12110873  0.61858840  1
  O  O198  1  0.62503330  0.61359805  0.12705635  1
  O  O199  1  0.62422960  0.61842308  0.61747994  1
  O  O200  1  0.37694528  0.37746580  0.38402473  1
  O  O201  1  0.38014249  0.37912182  0.87925733  1
  O  O202  1  0.38067761  0.88294450  0.37541843  1
  O  O203  1  0.37984549  0.88049400  0.87907860  1
  O  O204  1  0.87672736  0.37715516  0.38383271  1
  O  O205  1  0.87384871  0.38711867  0.87495494  1
  O  O206  1  0.88129859  0.88103726  0.37520393  1
  O  O207  1  0.88344021  0.87625937  0.88176771  1
  O  O208  1  0.25537231  0.00698203  0.37569170  1
  O  O209  1  0.25547762  0.00442212  0.86956824  1
  O  O210  1  0.25115453  0.50713297  0.36755813  1
  O  O211  1  0.25758185  0.50428517  0.86712904  1
  O  O212  1  0.75361258  0.00607432  0.36930334  1
  O  O213  1  0.75052366  0.00628013  0.86440334  1
  O  O214  1  0.75198725  0.51467919  0.37680640  1
  O  O215  1  0.75550200  0.50559273  0.86989769  1
  O  O216  1  0.25089230  0.49160650  0.13176061  1
  O  O217  1  0.24592132  0.49494269  0.62959020  1
  O  O218  1  0.24411574  0.98878976  0.12653596  1
  O  O219  1  0.24300598  0.99934011  0.63147291  1
  O  O220  1  0.74113189  0.49239321  0.12813167  1
  O  O221  1  0.74589522  0.49605094  0.62972170  1
  O  O222  1  0.74305586  0.99757999  0.13227045  1
  O  O223  1  0.74423176  1.00245764  0.63387024  1
  O  O224  1  0.00642056  0.36736844  0.25021294  1
  O  O225  1  0.00981391  0.37236376  0.75437557  1
  O  O226  1  0.00549817  0.86867146  0.25521017  1
  O  O227  1  0.00474753  0.86910488  0.75525738  1
  O  O228  1  0.50723662  0.36804696  0.25269062  1
  O  O229  1  0.50047395  0.36759894  0.75538613  1
  O  O230  1  0.50280467  0.86891053  0.25461633  1
  O  O231  1  0.50039620  0.86886444  0.75637425  1
  O  O232  1  0.49250858  0.13266777  0.24907190  1
  O  O233  1  0.49398138  0.12975384  0.74380266  1
  O  O234  1  0.49224619  0.63292290  0.25148831  1
  O  O235  1  0.49283966  0.63265176  0.74650353  1
  O  O236  1  0.99523670  0.12832575  0.24470167  1
  O  O237  1  0.99277307  0.12687978  0.74449218  1
  O  O238  1  0.99483534  0.63124276  0.24393216  1
  O  O239  1  0.99416934  0.63058422  0.74457090  1
  O  O240  1  0.37038577  0.25351594  0.00500407  1
  O  O241  1  0.36898862  0.25508574  0.50593971  1
  O  O242  1  0.37319797  0.75913628  0.00201915  1
  O  O243  1  0.36710209  0.74990185  0.50585950  1
  O  O244  1  0.87031086  0.25242814  0.00459302  1
  O  O245  1  0.86890028  0.25468721  0.50556443  1
  O  O246  1  0.86953778  0.75498818  0.00486650  1
  O  O247  1  0.86477830  0.74987591  0.50708813  1
  O  O248  1  0.13011800  0.24515378  0.49585818  1
  O  O249  1  0.13295465  0.24242721  0.99638928  1
  O  O250  1  0.13434294  0.74778009  0.49472142  1
  O  O251  1  0.12888100  0.74550269  0.98945215  1
  O  O252  1  0.63061402  0.24540913  0.49535622  1
  O  O253  1  0.62578876  0.24215377  0.99267373  1
  O  O254  1  0.63345392  0.74480899  0.49985332  1
  O  O255  1  0.63112348  0.75068524  0.99350916  1
  O  O256  1  0.49364987  0.24865729  0.13196626  1
  O  O257  1  0.49420062  0.24517532  0.62879802  1
  O  O258  1  0.49785886  0.75009562  0.13854122  1
  O  O259  1  0.49069960  0.75002138  0.62794983  1
  O  O260  1  1.00046599  0.24029503  0.13202995  1
  O  O261  1  0.99282835  0.24395942  0.62841775  1
  O  O262  1  0.99481039  0.74221164  0.13102240  1
  O  O263  1  0.99514500  0.74422754  0.63069830  1
  O  O264  1  0.00680838  0.24984348  0.36777383  1
  O  O265  1  0.01079955  0.25076903  0.87411891  1
  O  O266  1  0.00524687  0.75419260  0.37004462  1
  O  O267  1  0.00544812  0.75374832  0.86854742  1
  O  O268  1  0.50790433  0.25181779  0.36963306  1
  O  O269  1  0.50420222  0.25459936  0.86832175  1
  O  O270  1  0.49965232  0.75651733  0.36434215  1
  O  O271  1  0.50432564  0.75539101  0.86842233  1
  O  O272  1  0.24345179  0.13204143  0.49587073  1
  O  O273  1  0.24600024  0.12796208  0.99550486  1
  O  O274  1  0.24916996  0.63515931  0.49275664  1
  O  O275  1  0.25140094  0.62716866  0.98984417  1
  O  O276  1  0.74397300  0.13117124  0.49431841  1
  O  O277  1  0.74306379  0.12312283  0.99252823  1
  O  O278  1  0.74635119  0.63347497  0.49425650  1
  O  O279  1  0.74783536  0.63360891  0.99353954  1
  O  O280  1  0.25736276  0.36729049  0.00508069  1
  O  O281  1  0.25439535  0.37018502  0.50608724  1
  O  O282  1  0.25542345  0.87413329  0.00830483  1
  O  O283  1  0.25168671  0.86212958  0.50043653  1
  O  O284  1  0.75094798  0.37330056  0.01258393  1
  O  O285  1  0.75593873  0.37007320  0.50576085  1
  O  O286  1  0.75749257  0.86856174  0.00046237  1
  O  O287  1  0.75005356  0.86307769  0.49972559  1
  O  O288  1  0.13206151  0.49207464  0.24698794  1
  O  O289  1  0.13214520  0.49379334  0.74467378  1
  O  O290  1  0.12639855  0.99250574  0.24368780  1
  O  O291  1  0.12999091  0.99535316  0.74548888  1
  O  O292  1  0.62751195  0.49343934  0.24298363  1
  O  O293  1  0.63129491  0.50015535  0.74270950  1
  O  O294  1  0.62886041  0.99641032  0.24491936  1
  O  O295  1  0.63447032  1.00191642  0.74348829  1
  O  O296  1  0.37334296  0.00798191  0.25771563  1
  O  O297  1  0.36990278  0.00500193  0.75427854  1
  O  O298  1  0.37060190  0.50850453  0.25118354  1
  O  O299  1  0.37038664  0.50491018  0.75255217  1
  O  O300  1  0.86873607  0.00498055  0.25557933  1
  O  O301  1  0.86500914  0.00719182  0.74994898  1
  O  O302  1  0.87118154  0.51021104  0.25496787  1
  O  O303  1  0.86869746  0.50594213  0.75768480  1
  O  O304  1  0.12432007  0.36670939  0.36731435  1
  O  O305  1  0.12850091  0.36766828  0.86933969  1
  O  O306  1  0.11987843  0.86960969  0.36922509  1
  O  O307  1  0.11966969  0.86853854  0.86826143  1
  O  O308  1  0.62638417  0.36859384  0.36907266  1
  O  O309  1  0.61855690  0.36863909  0.87354172  1
  O  O310  1  0.61571885  0.87496776  0.36736348  1
  O  O311  1  0.61759725  0.86859584  0.87191252  1
  O  O312  1  0.37557344  0.13107797  0.13195038  1
  O  O313  1  0.37989598  0.13063776  0.62995726  1
  O  O314  1  0.37556071  0.62604311  0.13760254  1
  O  O315  1  0.37595922  0.63642873  0.62934969  1
  O  O316  1  0.88229183  0.12264615  0.13233933  1
  O  O317  1  0.87935529  0.13150175  0.63008113  1
  O  O318  1  0.88106489  0.63087752  0.13116238  1
  O  O319  1  0.88047483  0.63069951  0.63209388  1
  O  O320  1  0.25641034  0.25406643  0.11983965  1
  O  O321  1  0.25522098  0.25505291  0.61998689  1
  O  O322  1  0.25088094  0.76249190  0.12358112  1
  O  O323  1  0.25728848  0.74989689  0.61603342  1
  O  O324  1  0.75039509  0.26078550  0.12415952  1
  O  O325  1  0.75461544  0.25497442  0.61880288  1
  O  O326  1  0.75627641  0.75172471  0.11900263  1
  O  O327  1  0.75504064  0.74969390  0.61658306  1
  O  O328  1  0.24373989  0.24445419  0.38175868  1
  O  O329  1  0.24694624  0.24229774  0.88160954  1
  O  O330  1  0.24582264  0.74552310  0.38105652  1
  O  O331  1  0.24405205  0.74290952  0.87196535  1
  O  O332  1  0.74498724  0.24401663  0.38057077  1
  O  O333  1  0.74204235  0.24287100  0.87447433  1
  O  O334  1  0.74861721  0.74200627  0.38488549  1
  O  O335  1  0.74481035  0.74541157  0.87955917  1
  O  O336  1  0.00725211  0.11780209  0.00569444  1
  O  O337  1  0.00637002  0.12430425  0.50792191  1
  O  O338  1  0.00027927  0.62411352  0.01287653  1
  O  O339  1  0.00168059  0.61856498  0.50796839  1
  O  O340  1  0.50681496  0.11697893  -0.00032479  1
  O  O341  1  0.50515534  0.12096223  0.50512230  1
  O  O342  1  0.50251553  0.62191226  0.00594989  1
  O  O343  1  0.50534546  0.61740132  0.49965875  1
  O  O344  1  0.49423967  0.38455670  0.49969855  1
  O  O345  1  0.49322968  0.37528300  0.99220319  1
  O  O346  1  0.49828227  0.88299232  0.49237364  1
  O  O347  1  0.49426188  0.88070991  0.99373405  1
  O  O348  1  0.99406656  0.38162428  0.50009140  1
  O  O349  1  0.99602738  0.38031724  0.99737501  1
  O  O350  1  0.99783420  0.87661968  0.49098639  1
  O  O351  1  0.99621249  0.87826935  0.99487210  1
  O  O352  1  0.49991752  0.49838049  0.38791549  1
  O  O353  1  0.49353212  0.49314059  0.87342186  1
  O  O354  1  0.49370008  0.99738588  0.38046158  1
  O  O355  1  0.49436849  0.99452886  0.87872874  1
  O  O356  1  0.99954792  0.49824227  0.38520734  1
  O  O357  1  0.98706165  0.50046739  0.87501554  1
  O  O358  1  0.99299397  0.99337753  0.37581489  1
  O  O359  1  1.00025112  0.99257899  0.88190606  1
  O  O360  1  0.00659181  0.00338898  0.11990970  1
  O  O361  1  0.00587362  0.00781960  0.62485350  1
  O  O362  1  -0.00049439  0.51285047  0.12657793  1
  O  O363  1  0.00547184  0.50470793  0.62103257  1
  O  O364  1  0.50613188  0.00167849  0.11718676  1
  O  O365  1  0.50389294  0.00660433  0.61971074  1
  O  O366  1  0.51250483  0.49928409  0.12466549  1
  O  O367  1  0.50535390  0.50240232  0.61409529  1
  O  O368  1  0.24588524  0.37882872  0.24452328  1
  O  O369  1  0.24658250  0.37998794  0.74372574  1
  O  O370  1  0.24412988  0.87578174  0.24133173  1
  O  O371  1  0.24263467  0.88183425  0.74796382  1
  O  O372  1  0.74354518  0.37595805  0.24207167  1
  O  O373  1  0.74763474  0.38239304  0.74208367  1
  O  O374  1  0.74224821  0.88143520  0.24999244  1
  O  O375  1  0.74933863  0.88786785  0.74920077  1
  O  O376  1  0.25595277  0.12420024  0.25801897  1
  O  O377  1  0.25588956  0.11890534  0.75593135  1
  O  O378  1  0.25739025  0.62098695  0.25290663  1
  O  O379  1  0.25658032  0.61833744  0.75337947  1
  O  O380  1  0.75420712  0.11925369  0.25563047  1
  O  O381  1  0.75418241  0.11760430  0.75424503  1
  O  O382  1  0.75520433  0.62815941  0.26125360  1
  O  O383  1  0.75593471  0.62008593  0.75618158  1
  O  O384  1  0.36859076  0.12147035  0.37106508  1
  O  O385  1  0.37026436  0.11875255  0.86910785  1
  O  O386  1  0.36827260  0.62372713  0.36276012  1
  O  O387  1  0.37036184  0.61936855  0.86685869  1
  O  O388  1  0.86877974  0.11937825  0.36920634  1
  O  O389  1  0.86853444  0.12325325  0.86823561  1
  O  O390  1  0.86599496  0.62673498  0.37053387  1
  O  O391  1  0.86873428  0.61859771  0.86996340  1
  O  O392  1  0.13359292  0.37364083  0.13177185  1
  O  O393  1  0.13157539  0.37974581  0.63124867  1
  O  O394  1  0.13190394  0.87816623  0.12921428  1
  O  O395  1  0.12493897  0.88166534  0.63182882  1
  O  O396  1  0.63235616  0.38150670  0.13080009  1
  O  O397  1  0.63259153  0.38246425  0.62553478  1
  O  O398  1  0.62601090  0.88282234  0.13221547  1
  O  O399  1  0.62819040  0.88534144  0.62754037  1
  O  O400  1  0.11978000  0.25366770  0.25537230  1
  O  O401  1  0.12696992  0.25578776  0.75817926  1
  O  O402  1  0.11937213  0.75589059  0.25609676  1
  O  O403  1  0.11884340  0.75524979  0.75374529  1
  O  O404  1  0.61985407  0.25428167  0.25552540  1
  O  O405  1  0.61720561  0.25055171  0.75595612  1
  O  O406  1  0.61476233  0.75632395  0.25186814  1
  O  O407  1  0.61835265  0.75145700  0.75535003  1
  O  O408  1  0.37993183  0.24563669  0.24576616  1
  O  O409  1  0.37953668  0.24350846  0.74410850  1
  O  O410  1  0.38257534  0.74158008  0.24856419  1
  O  O411  1  0.37917103  0.74561341  0.74073218  1
  O  O412  1  0.88177325  0.24139820  0.24849318  1
  O  O413  1  0.87401066  0.24385362  0.74310530  1
  O  O414  1  0.88057803  0.74519537  0.24476350  1
  O  O415  1  0.88006814  0.74448033  0.74596142  1
  O  O416  1  0.38358787  0.49606101  0.49992875  1
  O  O417  1  0.37648781  0.49124237  0.99161557  1
  O  O418  1  0.38094381  1.00029097  0.49450566  1
  O  O419  1  0.38049517  0.99478052  0.99309659  1
  O  O420  1  0.88304154  0.49386962  0.50076596  1
  O  O421  1  0.87362958  0.50078299  0.98766273  1
  O  O422  1  0.87550359  0.99808503  0.49143528  1
  O  O423  1  0.88287057  0.99261082  0.99893286  1
  O  O424  1  0.12014269  0.00401413  0.00550542  1
  O  O425  1  0.12362772  0.00753402  0.50771090  1
  O  O426  1  0.12330543  0.50573452  0.00418291  1
  O  O427  1  0.11950714  0.50080810  0.50781532  1
  O  O428  1  0.61987936  0.00402569  0.00378272  1
  O  O429  1  0.61928360  0.00747423  0.50427173  1
  O  O430  1  0.62337344  0.50234404  0.01213915  1
  O  O431  1  0.61824528  0.50525403  0.50517753  1
  O  O432  1  0.37030313  0.36796190  0.11972903  1
  O  O433  1  0.36887260  0.36906805  0.61994371  1
  O  O434  1  0.36555608  0.87608433  0.11972420  1
  O  O435  1  0.37174566  0.86285331  0.62241021  1
  O  O436  1  0.86277907  0.37532746  0.12663232  1
  O  O437  1  0.86936135  0.36983077  0.62021307  1
  O  O438  1  0.87490712  0.86736744  0.11837759  1
  O  O439  1  0.87160988  0.86655611  0.62306725  1
  O  O440  1  0.12968361  0.12997360  0.38091647  1
  O  O441  1  0.13210058  0.12857858  0.88147429  1
  O  O442  1  0.13173529  0.63296318  0.37465291  1
  O  O443  1  0.13287731  0.63068432  0.87140437  1
  O  O444  1  0.63066208  0.13096200  0.38028049  1
  O  O445  1  0.62997770  0.13021767  0.87976044  1
  O  O446  1  0.63495470  0.62827326  0.38112071  1
  O  O447  1  0.63159099  0.63248508  0.87556033  1
