# generated using pymatgen
data_V3Zn3O8
_symmetry_space_group_name_H-M   'P 1'
_cell_length_a   17.08763364
_cell_length_b   17.08846293
_cell_length_c   17.08644181
_cell_angle_alpha   90.00281981
_cell_angle_beta   89.99774084
_cell_angle_gamma   90.00921279
_symmetry_Int_Tables_number   1
_chemical_formula_structural   V3Zn3O8
_chemical_formula_sum   'V96 Zn96 O256'
_cell_volume   4989.26475250
_cell_formula_units_Z   32
loop_
 _symmetry_equiv_pos_site_id
 _symmetry_equiv_pos_as_xyz
  1  'x, y, z'
loop_
 _atom_site_type_symbol
 _atom_site_label
 _atom_site_symmetry_multiplicity
 _atom_site_fract_x
 _atom_site_fract_y
 _atom_site_fract_z
 _atom_site_occupancy
  V  V0  1  0.37432854  0.49982849  0.87510970  1
  V  V1  1  0.24959577  0.00024191  0.74901216  1
  V  V2  1  0.62539572  0.87570800  0.24905630  1
  V  V3  1  0.87585602  0.12579310  0.75024403  1
  V  V4  1  0.12588822  0.62480344  0.49909764  1
  V  V5  1  0.24953059  0.37592214  0.62462035  1
  V  V6  1  0.62555115  0.50015832  0.62545936  1
  V  V7  1  0.50058092  0.00004747  0.50016309  1
  V  V8  1  0.75031925  0.37473116  0.12514417  1
  V  V9  1  0.37427246  0.87380815  0.49977332  1
  V  V10  1  0.74980294  0.74995026  0.50075367  1
  V  V11  1  0.87364939  0.50108944  0.87582880  1
  V  V12  1  0.00079165  0.12531644  0.62527694  1
  V  V13  1  0.87413098  0.37523206  0.00089357  1
  V  V14  1  0.50002966  0.87458155  0.37441305  1
  V  V15  1  0.37491483  0.37588517  -0.00050704  1
  V  V16  1  0.12453834  0.12459624  0.00071708  1
  V  V17  1  0.12550878  0.24974785  0.37354776  1
  V  V18  1  0.87445413  0.00074989  0.87408652  1
  V  V19  1  0.12537833  0.12426285  0.50008319  1
  V  V20  1  0.12445218  0.50018705  0.12605619  1
  V  V21  1  0.37574420  0.50058831  0.37323400  1
  V  V22  1  0.37522388  -0.00020853  0.87400514  1
  V  V23  1  -0.00016268  0.62408376  0.62521774  1
  V  V24  1  0.25027773  0.12575521  0.87500274  1
  V  V25  1  0.87451142  0.87390735  0.50020305  1
  V  V26  1  0.62498598  0.37449967  0.75041550  1
  V  V27  1  0.49970985  0.74946056  0.24830161  1
  V  V28  1  0.00118226  0.87468240  0.37525775  1
  V  V29  1  0.12518854  0.87571161  0.74852162  1
  V  V30  1  0.12421932  0.74992088  0.87393536  1
  V  V31  1  0.24959101  -0.00149375  0.24847693  1
  V  V32  1  0.62519667  0.74982824  0.37467236  1
  V  V33  1  -0.00018791  0.49932014  0.50074923  1
  V  V34  1  0.25026754  0.37531320  0.12453004  1
  V  V35  1  0.12512947  0.37452640  0.25041100  1
  V  V36  1  0.25025451  0.74946561  0.49926666  1
  V  V37  1  0.74971981  0.00012640  0.25031681  1
  V  V38  1  0.87278232  0.75159790  0.12344764  1
  V  V39  1  0.62487603  0.75057552  0.87583392  1
  V  V40  1  0.87626343  0.24920052  0.62552808  1
  V  V41  1  0.12417459  0.62539474  -0.00015768  1
  V  V42  1  0.49926992  0.49894244  0.49741457  1
  V  V43  1  0.62495429  0.62481178  0.50010300  1
  V  V44  1  0.74792437  0.62699274  0.87725457  1
  V  V45  1  -0.00100129  0.50014977  0.00146212  1
  V  V46  1  0.00045165  0.24904366  0.24936309  1
  V  V47  1  0.62539226  0.87559382  0.74978246  1
  V  V48  1  0.37533248  0.74989221  0.12435540  1
  V  V49  1  0.37520097  0.62541080  0.24814717  1
  V  V50  1  0.87611579  0.37419245  0.50190402  1
  V  V51  1  0.62435362  0.37335139  0.25223826  1
  V  V52  1  -0.00119825  0.87533358  0.87478887  1
  V  V53  1  0.37511054  0.75023069  0.62447532  1
  V  V54  1  0.25145609  0.25032242  0.49923732  1
  V  V55  1  0.37530391  0.12547011  0.74907356  1
  V  V56  1  0.37582332  0.24994611  0.12567076  1
  V  V57  1  0.49820623  0.37568983  0.87501627  1
  V  V58  1  0.87416590  0.75023281  0.62486411  1
  V  V59  1  0.50014176  0.12588576  0.12481855  1
  V  V60  1  0.62669711  0.24969818  0.37631808  1
  V  V61  1  0.37546219  -0.00014572  0.37479894  1
  V  V62  1  0.49856578  0.25002771  0.74894826  1
  V  V63  1  0.24976621  0.24966944  -0.00049316  1
  V  V64  1  -0.00012691  0.74969863  0.74997053  1
  V  V65  1  0.62589160  0.00007558  0.62464592  1
  V  V66  1  0.74979940  0.12502346  0.87493664  1
  V  V67  1  0.49898358  0.74985470  0.74955299  1
  V  V68  1  0.24953866  0.75072777  -0.00081705  1
  V  V69  1  0.00088545  0.37289211  0.87438389  1
  V  V70  1  0.74933970  0.24986632  -0.00008396  1
  V  V71  1  0.12518875  0.00082726  0.62464692  1
  V  V72  1  0.24906383  0.87580327  0.12501817  1
  V  V73  1  0.87602339  0.24918834  0.12686896  1
  V  V74  1  0.87483713  0.62499979  0.75129252  1
  V  V75  1  0.24915932  0.62488045  0.87392199  1
  V  V76  1  0.62485957  0.00112369  0.12540259  1
  V  V77  1  0.37445261  0.87567446  -0.00183035  1
  V  V78  1  0.75084110  0.62386642  0.37588928  1
  V  V79  1  0.49926172  0.87579918  0.87469351  1
  V  V80  1  0.37570658  0.12544174  0.24915831  1
  V  V81  1  0.24934555  0.49916764  0.74876975  1
  V  V82  1  0.75143698  0.24911618  0.50120727  1
  V  V83  1  0.37513020  0.24961592  0.62381616  1
  V  V84  1  0.62453561  0.12583341  -0.00005534  1
  V  V85  1  0.25087867  0.12484304  0.37413780  1
  V  V86  1  -0.00100864  0.62505379  0.12607073  1
  V  V87  1  0.75130225  0.49969331  0.25205650  1
  V  V88  1  0.87512973  0.49888190  0.37696569  1
  V  V89  1  0.00062036  0.74966581  0.25118527  1
  V  V90  1  0.87414713  -0.00056139  0.37473783  1
  V  V91  1  -0.00088269  -0.00039532  0.00113519  1
  V  V92  1  0.37437117  0.62603044  0.74949409  1
  V  V93  1  0.25077627  0.50118197  0.25006458  1
  V  V94  1  0.75128656  0.12438989  0.37584748  1
  V  V95  1  0.62378721  0.50174383  0.12287868  1
  Zn  Zn96  1  0.24967165  0.62651546  0.37323516  1
  Zn  Zn97  1  0.12724384  0.75062592  0.37452892  1
  Zn  Zn98  1  0.75110710  0.87502096  0.62655962  1
  Zn  Zn99  1  0.00091475  0.37438470  0.37624229  1
  Zn  Zn100  1  0.00291792  0.25052008  0.75025464  1
  Zn  Zn101  1  0.74921189  0.87591468  0.12303107  1
  Zn  Zn102  1  -0.00119444  0.12309212  0.12666814  1
  Zn  Zn103  1  0.62410822  0.24960956  0.87477740  1
  Zn  Zn104  1  0.49921645  0.62547492  0.62526320  1
  Zn  Zn105  1  0.49873398  0.37195466  0.37529549  1
  Zn  Zn106  1  0.75204620  0.37348666  0.62762027  1
  Zn  Zn107  1  0.50007242  0.24955241  0.25271633  1
  Zn  Zn108  1  0.12604450  0.87571160  0.24941241  1
  Zn  Zn109  1  0.49927879  0.50206019  -0.00026719  1
  Zn  Zn110  1  0.62444718  0.12585904  0.50109554  1
  Zn  Zn111  1  0.87121429  0.87545630  -0.00081900  1
  Zn  Zn112  1  0.12321443  -0.00239904  0.12720696  1
  Zn  Zn113  1  0.87705223  0.12379330  0.24910626  1
  Zn  Zn114  1  0.75064301  -0.00068034  0.74926545  1
  Zn  Zn115  1  0.37518540  0.37461273  0.49641199  1
  Zn  Zn116  1  0.50066051  0.12589300  0.62356948  1
  Zn  Zn117  1  0.12419012  0.49831037  0.62637078  1
  Zn  Zn118  1  0.74679272  0.75356941  0.00214491  1
  Zn  Zn119  1  0.50003535  0.00137259  -0.00060311  1
  Zn  Zn120  1  0.74982673  0.49924537  0.75105676  1
  Zn  Zn121  1  0.87487830  0.62345617  0.25121071  1
  Zn  Zn122  1  0.24937121  0.87561069  0.62384985  1
  Zn  Zn123  1  -0.00012491  0.00002437  0.49957352  1
  Zn  Zn124  1  0.62202951  0.62738559  0.00049192  1
  Zn  Zn125  1  0.12488728  0.37414055  0.75116226  1
  Zn  Zn126  1  0.12534425  0.25114772  0.87363332  1
  Zn  Zn127  1  0.50031802  0.62563238  0.12149918  1
  Zn  Zn128  1  0.18783229  0.18617049  0.18626826  1
  Zn  Zn129  1  0.18599347  0.19020371  0.68914082  1
  Zn  Zn130  1  0.18746940  0.68828864  0.18691016  1
  Zn  Zn131  1  0.18808868  0.68798634  0.68467705  1
  Zn  Zn132  1  0.68941546  0.18616209  0.18840139  1
  Zn  Zn133  1  0.68887137  0.18607501  0.68742494  1
  Zn  Zn134  1  0.68855518  0.68595850  0.18981147  1
  Zn  Zn135  1  0.68745433  0.68724333  0.68897742  1
  Zn  Zn136  1  0.31334030  0.31389988  0.31223387  1
  Zn  Zn137  1  0.31231918  0.31196768  0.81147260  1
  Zn  Zn138  1  0.31207072  0.81168195  0.31254517  1
  Zn  Zn139  1  0.31161618  0.81321657  0.81105142  1
  Zn  Zn140  1  0.81374470  0.31223676  0.31440125  1
  Zn  Zn141  1  0.81277173  0.31077722  0.81229467  1
  Zn  Zn142  1  0.81258717  0.81288349  0.31131066  1
  Zn  Zn143  1  0.81121800  0.81387920  0.81231690  1
  Zn  Zn144  1  0.18845016  0.43844785  0.43683910  1
  Zn  Zn145  1  0.18707376  0.43859055  0.93816306  1
  Zn  Zn146  1  0.18758056  0.93738584  0.43733678  1
  Zn  Zn147  1  0.18666949  0.93828742  0.93624292  1
  Zn  Zn148  1  0.68990375  0.43504479  0.43966344  1
  Zn  Zn149  1  0.68739374  0.43779034  0.93715876  1
  Zn  Zn150  1  0.68800639  0.93667932  0.43810292  1
  Zn  Zn151  1  0.68830844  0.93828059  0.93958583  1
  Zn  Zn152  1  0.31268233  0.06157510  0.06243267  1
  Zn  Zn153  1  0.31260485  0.06262005  0.56280125  1
  Zn  Zn154  1  0.31221240  0.56319203  0.06221189  1
  Zn  Zn155  1  0.31295476  0.56314772  0.56224515  1
  Zn  Zn156  1  0.81198071  0.06384149  0.06374466  1
  Zn  Zn157  1  0.81277793  0.06213629  0.56183016  1
  Zn  Zn158  1  0.81119151  0.56446450  0.06312997  1
  Zn  Zn159  1  0.81196578  0.56190118  0.56313677  1
  Zn  Zn160  1  0.43908021  0.43746408  0.18725662  1
  Zn  Zn161  1  0.43667110  0.43748177  0.68619119  1
  Zn  Zn162  1  0.43764705  0.93782941  0.18596938  1
  Zn  Zn163  1  0.43835405  0.93686604  0.68641599  1
  Zn  Zn164  1  0.93771820  0.43551192  0.18998946  1
  Zn  Zn165  1  0.93692770  0.43816192  0.68864370  1
  Zn  Zn166  1  0.93593948  0.93622530  0.18803966  1
  Zn  Zn167  1  0.93837342  0.93913524  0.68702441  1
  Zn  Zn168  1  0.06301152  0.06202295  0.31145034  1
  Zn  Zn169  1  0.06203857  0.06308435  0.81276886  1
  Zn  Zn170  1  0.06143908  0.56219830  0.31430671  1
  Zn  Zn171  1  0.06277545  0.55971358  0.81176696  1
  Zn  Zn172  1  0.56351875  0.06436998  0.31281659  1
  Zn  Zn173  1  0.56237233  0.06300837  0.81168988  1
  Zn  Zn174  1  0.56213363  0.56335869  0.31100177  1
  Zn  Zn175  1  0.56046944  0.56313989  0.81279034  1
  Zn  Zn176  1  0.44029697  0.18711833  0.43777895  1
  Zn  Zn177  1  0.43817019  0.18878953  0.93698845  1
  Zn  Zn178  1  0.43738113  0.68551261  0.43587833  1
  Zn  Zn179  1  0.43920147  0.68649563  0.93788888  1
  Zn  Zn180  1  0.93856519  0.18657372  0.43701570  1
  Zn  Zn181  1  0.93572567  0.18740107  0.93891935  1
  Zn  Zn182  1  0.93692437  0.68620119  0.43837186  1
  Zn  Zn183  1  0.93636673  0.68802498  0.93869534  1
  Zn  Zn184  1  0.06211045  0.31116884  0.06255317  1
  Zn  Zn185  1  0.06323024  0.31107608  0.56192415  1
  Zn  Zn186  1  0.06200761  0.81386366  0.06337318  1
  Zn  Zn187  1  0.06253485  0.81178620  0.56266080  1
  Zn  Zn188  1  0.56143723  0.31245479  0.06241835  1
  Zn  Zn189  1  0.56321858  0.31291525  0.56230202  1
  Zn  Zn190  1  0.56213702  0.81396506  0.06095209  1
  Zn  Zn191  1  0.56163384  0.81378865  0.56346625  1
  O  O192  1  0.12453810  0.12164529  0.11091632  1
  O  O193  1  0.12114521  0.12060086  0.61975745  1
  O  O194  1  0.11917772  0.62007861  0.11907928  1
  O  O195  1  0.11863302  0.62412067  0.61490058  1
  O  O196  1  0.61993700  0.12101973  0.12037513  1
  O  O197  1  0.62275847  0.11309206  0.62415912  1
  O  O198  1  0.62621503  0.61270434  0.12538490  1
  O  O199  1  0.62293116  0.61583608  0.61992118  1
  O  O200  1  0.37827332  0.38417539  0.37569244  1
  O  O201  1  0.37843850  0.38049955  0.87966421  1
  O  O202  1  0.38104505  0.88039400  0.37970012  1
  O  O203  1  0.37916073  0.87994055  0.87858397  1
  O  O204  1  0.87668270  0.38133870  0.38392523  1
  O  O205  1  0.88101764  0.38091523  0.88146406  1
  O  O206  1  0.88288477  0.87840930  0.37980680  1
  O  O207  1  0.88249346  0.88139234  0.87542229  1
  O  O208  1  0.25647317  0.00528060  0.36960961  1
  O  O209  1  0.25531621  0.00580019  0.86862815  1
  O  O210  1  0.25708226  0.50228460  0.36712806  1
  O  O211  1  0.25463960  0.50563918  0.86971513  1
  O  O212  1  0.75461651  0.00408862  0.37031608  1
  O  O213  1  0.75718849  0.00780276  0.87440673  1
  O  O214  1  0.75501920  0.50464449  0.37216163  1
  O  O215  1  0.75508593  0.50963666  0.87446551  1
  O  O216  1  0.24372858  0.49485223  0.12976860  1
  O  O217  1  0.25093143  0.49074744  0.62956481  1
  O  O218  1  0.25046014  0.99297562  0.13097409  1
  O  O219  1  0.24342303  0.99887427  0.63166974  1
  O  O220  1  0.74363930  0.49425762  0.13095314  1
  O  O221  1  0.73647412  0.49845270  0.62684618  1
  O  O222  1  0.74290024  1.00046586  0.13271672  1
  O  O223  1  0.73880586  0.99710395  0.62562640  1
  O  O224  1  0.00855189  0.36785932  0.25200360  1
  O  O225  1  0.00006826  0.37572960  0.76348006  1
  O  O226  1  -0.00002587  0.86626919  0.25897632  1
  O  O227  1  0.00574329  0.86916581  0.75528722  1
  O  O228  1  0.51424034  0.37371994  0.25121591  1
  O  O229  1  0.50608838  0.37054384  0.75435223  1
  O  O230  1  0.50468004  0.86959038  0.25574902  1
  O  O231  1  0.50461552  0.86898933  0.75585806  1
  O  O232  1  0.49303017  0.12649937  0.24359954  1
  O  O233  1  0.49267346  0.13235618  0.74866974  1
  O  O234  1  0.49404383  0.63240219  0.24676652  1
  O  O235  1  0.49179665  0.63222454  0.74972526  1
  O  O236  1  0.99924188  0.13316890  0.24686371  1
  O  O237  1  0.99386143  0.12658713  0.74408944  1
  O  O238  1  0.99847248  0.63327956  0.24518944  1
  O  O239  1  0.99494915  0.63028305  0.74602160  1
  O  O240  1  0.36886389  0.25581777  0.00590812  1
  O  O241  1  0.36875321  0.25123430  0.50493351  1
  O  O242  1  0.36818796  0.75557358  0.00348348  1
  O  O243  1  0.37079027  0.75365886  0.50401145  1
  O  O244  1  0.86888403  0.25623689  0.00662465  1
  O  O245  1  0.87121311  0.25453385  0.50564129  1
  O  O246  1  0.87584308  0.75167144  0.01232969  1
  O  O247  1  0.86939702  0.75349272  0.50568544  1
  O  O248  1  0.13219600  0.24381915  0.49360678  1
  O  O249  1  0.13074475  0.24047781  0.99880980  1
  O  O250  1  0.13016099  0.74014118  0.50024634  1
  O  O251  1  0.12904622  0.74466545  0.99384490  1
  O  O252  1  0.63271311  0.25008798  0.49469457  1
  O  O253  1  0.63189991  0.24495234  0.99900970  1
  O  O254  1  0.62871809  0.74499563  0.49434546  1
  O  O255  1  0.62629099  0.74806706  0.99130075  1
  O  O256  1  0.49303519  0.24438502  0.12788770  1
  O  O257  1  0.49296680  0.25019439  0.63053677  1
  O  O258  1  0.49290967  0.75042332  0.13123730  1
  O  O259  1  0.49354672  0.74814285  0.63143037  1
  O  O260  1  0.99381551  0.24933712  0.13126267  1
  O  O261  1  0.99393673  0.24281253  0.62557706  1
  O  O262  1  0.99363190  0.74582244  0.13277640  1
  O  O263  1  0.99401511  0.74378580  0.63093777  1
  O  O264  1  0.00832706  0.25095664  0.36817161  1
  O  O265  1  -0.00108691  0.26324062  0.87763563  1
  O  O266  1  -0.00253440  0.75755781  0.36680704  1
  O  O267  1  0.00508479  0.75435923  0.86960494  1
  O  O268  1  0.50960259  0.25264130  0.37282152  1
  O  O269  1  0.50051571  0.25809568  0.86715208  1
  O  O270  1  0.50566252  0.75504254  0.36910626  1
  O  O271  1  0.50428184  0.75620882  0.86850654  1
  O  O272  1  0.24558637  0.13040505  0.49337140  1
  O  O273  1  0.24309307  0.12901384  0.99497615  1
  O  O274  1  0.24084560  0.62972947  0.49926892  1
  O  O275  1  0.24353382  0.63087553  0.99395577  1
  O  O276  1  0.74893988  0.13148262  0.49330085  1
  O  O277  1  0.74427142  0.13111210  0.99491689  1
  O  O278  1  0.74390957  0.63010901  0.49513015  1
  O  O279  1  0.74813741  0.62779571  0.98723696  1
  O  O280  1  0.25467667  0.37011603  0.00552112  1
  O  O281  1  0.25166143  0.36949021  0.50814658  1
  O  O282  1  0.25462117  0.86929162  0.00286628  1
  O  O283  1  0.25682061  0.86831102  0.50043496  1
  O  O284  1  0.75534043  0.37007536  0.00498866  1
  O  O285  1  0.75801124  0.36744992  0.50398486  1
  O  O286  1  0.75392499  0.87167504  0.00475799  1
  O  O287  1  0.75690557  0.86631678  0.50046258  1
  O  O288  1  0.12971807  0.49548300  0.24485771  1
  O  O289  1  0.13350922  0.49662859  0.74680586  1
  O  O290  1  0.13384229  0.99755074  0.24750210  1
  O  O291  1  0.13008597  0.99549046  0.74519609  1
  O  O292  1  0.63105377  0.49192077  0.24398354  1
  O  O293  1  0.62245437  0.49176840  0.74139409  1
  O  O294  1  0.62971794  0.99482890  0.24571491  1
  O  O295  1  0.62447494  0.99419329  0.74042298  1
  O  O296  1  0.36991398  0.00528794  0.25579467  1
  O  O297  1  0.36968093  0.00498911  0.75425189  1
  O  O298  1  0.37030791  0.50516505  0.25263931  1
  O  O299  1  0.36924734  0.50583841  0.75504625  1
  O  O300  1  0.86810538  -0.00010571  0.25697399  1
  O  O301  1  0.87462803  0.00727735  0.75649558  1
  O  O302  1  0.86872679  0.49946737  0.25746729  1
  O  O303  1  0.87274157  0.50750441  0.75739715  1
  O  O304  1  0.12578919  0.36777866  0.36798557  1
  O  O305  1  0.11232111  0.37529124  0.87781018  1
  O  O306  1  0.11248468  0.87238309  0.37421932  1
  O  O307  1  0.11921128  0.86915644  0.86868250  1
  O  O308  1  0.62732100  0.37001805  0.36554600  1
  O  O309  1  0.61858353  0.37577098  0.86477695  1
  O  O310  1  0.61910446  0.86902103  0.36959453  1
  O  O311  1  0.61883989  0.87110907  0.86939502  1
  O  O312  1  0.37953288  0.13036563  0.12942703  1
  O  O313  1  0.37556092  0.13151601  0.63194407  1
  O  O314  1  0.37505686  0.63231529  0.13032888  1
  O  O315  1  0.37641451  0.63164521  0.63194734  1
  O  O316  1  0.87727651  0.13439610  0.12742307  1
  O  O317  1  0.88118700  0.12905945  0.62999850  1
  O  O318  1  0.88139090  0.63305009  0.12742491  1
  O  O319  1  0.87983660  0.63013134  0.63075071  1
  O  O320  1  0.25570658  0.25579155  0.11924805  1
  O  O321  1  0.25543574  0.25717629  0.61944590  1
  O  O322  1  0.25520347  0.75525000  0.11811136  1
  O  O323  1  0.25710687  0.75263176  0.61776260  1
  O  O324  1  0.75535253  0.25607734  0.11997401  1
  O  O325  1  0.75800388  0.24997152  0.61892807  1
  O  O326  1  0.76142302  0.74921143  0.12645675  1
  O  O327  1  0.75631138  0.74991039  0.61859255  1
  O  O328  1  0.24561814  0.24409251  0.37893702  1
  O  O329  1  0.25031605  0.24358526  0.88247776  1
  O  O330  1  0.24726686  0.74690128  0.38254812  1
  O  O331  1  0.24359086  0.74457732  0.87930986  1
  O  O332  1  0.74669730  0.24433003  0.38135343  1
  O  O333  1  0.74871528  0.24383318  0.88260532  1
  O  O334  1  0.74460733  0.74439798  0.38009510  1
  O  O335  1  0.74442916  0.74107320  0.87469173  1
  O  O336  1  0.00823091  0.11628701  -0.00110885  1
  O  O337  1  0.00823830  0.12318563  0.50605751  1
  O  O338  1  0.00523968  0.61952174  0.00526453  1
  O  O339  1  0.00685375  0.62044313  0.50575439  1
  O  O340  1  0.50601419  0.12519641  0.00637659  1
  O  O341  1  0.50329107  0.11529552  0.50269001  1
  O  O342  1  0.50373829  0.61966016  0.00332467  1
  O  O343  1  0.50677755  0.61460736  0.50035456  1
  O  O344  1  0.49938720  0.38843042  0.49840229  1
  O  O345  1  0.49230604  0.37669833  0.99343305  1
  O  O346  1  0.49401200  0.87936491  0.49269853  1
  O  O347  1  0.49170555  0.87716846  0.99205153  1
  O  O348  1  0.99471351  0.38144764  0.49946228  1
  O  O349  1  0.99382784  0.38124972  0.99461828  1
  O  O350  1  0.99375615  0.87337623  0.48974791  1
  O  O351  1  1.00023002  0.88503572  0.99322367  1
  O  O352  1  0.49626614  0.49896082  0.38321880  1
  O  O353  1  0.49151751  0.49312442  0.87507758  1
  O  O354  1  0.49480614  0.99419044  0.37933546  1
  O  O355  1  0.49244405  0.99357711  0.87505042  1
  O  O356  1  0.99325894  0.49807631  0.38267471  1
  O  O357  1  0.99379836  0.49375131  0.88226696  1
  O  O358  1  0.99426978  0.98910702  0.37468615  1
  O  O359  1  0.99518466  0.99524989  0.88259691  1
  O  O360  1  0.00081621  0.00030678  0.11350799  1
  O  O361  1  0.00760958  0.00717568  0.62264224  1
  O  O362  1  0.00468052  0.50471564  0.12107413  1
  O  O363  1  0.00117160  0.50689064  0.61911739  1
  O  O364  1  0.50616361  0.00786311  0.12348635  1
  O  O365  1  0.50931720  -0.00030575  0.61868814  1
  O  O366  1  0.51249796  0.50075982  0.12451824  1
  O  O367  1  0.50866085  0.50144789  0.61616210  1
  O  O368  1  0.24476198  0.38094803  0.24293797  1
  O  O369  1  0.25098750  0.38067201  0.74046028  1
  O  O370  1  0.25008235  0.88033094  0.24359360  1
  O  O371  1  0.24248506  0.88201666  0.74883305  1
  O  O372  1  0.74213387  0.37977329  0.24532214  1
  O  O373  1  0.73782363  0.37730777  0.74976391  1
  O  O374  1  0.74218411  0.88162098  0.24934095  1
  O  O375  1  0.74116179  0.87793317  0.74729878  1
  O  O376  1  0.25608641  0.11942086  0.25470963  1
  O  O377  1  0.25531099  0.12003765  0.75558309  1
  O  O378  1  0.25588212  0.61865200  0.24960723  1
  O  O379  1  0.25429764  0.62040984  0.75501802  1
  O  O380  1  0.75205303  0.11770252  0.25818303  1
  O  O381  1  0.75750220  0.12367287  0.75734618  1
  O  O382  1  0.75174344  0.61724022  0.25910383  1
  O  O383  1  0.75579822  0.62393955  0.76097810  1
  O  O384  1  0.36995530  0.11928634  0.36930503  1
  O  O385  1  0.36951278  0.11995741  0.86945150  1
  O  O386  1  0.37386520  0.61822936  0.36591836  1
  O  O387  1  0.36751278  0.62057827  0.86942549  1
  O  O388  1  0.86928798  0.11716590  0.37380990  1
  O  O389  1  0.87015344  0.12038497  0.87038478  1
  O  O390  1  0.86811266  0.61725771  0.37556712  1
  O  O391  1  0.86796380  0.62147630  0.87115330  1
  O  O392  1  0.13068999  0.38092992  0.12941564  1
  O  O393  1  0.13865044  0.37531535  0.62525177  1
  O  O394  1  0.13385261  0.87646977  0.12684226  1
  O  O395  1  0.12500684  0.88162065  0.63126658  1
  O  O396  1  0.63078211  0.38130939  0.13316299  1
  O  O397  1  0.62511763  0.38366721  0.63439923  1
  O  O398  1  0.62429135  0.88246052  0.13238087  1
  O  O399  1  0.62547826  0.88362405  0.63084287  1
  O  O400  1  0.12177317  0.25492914  0.25379252  1
  O  O401  1  0.12095369  0.25536342  0.75640896  1
  O  O402  1  0.11183054  0.75091064  0.25144551  1
  O  O403  1  0.11947512  0.75438140  0.75452004  1
  O  O404  1  0.62760513  0.26015908  0.25566348  1
  O  O405  1  0.61878151  0.26045668  0.74901935  1
  O  O406  1  0.62000637  0.75511001  0.25564674  1
  O  O407  1  0.61850950  0.75538070  0.75487982  1
  O  O408  1  0.37519697  0.24354235  0.24321657  1
  O  O409  1  0.37917470  0.24483691  0.74368895  1
  O  O410  1  0.38025960  0.74554133  0.24383510  1
  O  O411  1  0.37896472  0.74556249  0.74501040  1
  O  O412  1  0.88224004  0.25077367  0.24446670  1
  O  O413  1  0.87809144  0.24371550  0.74356492  1
  O  O414  1  0.88506466  0.74808776  0.24269195  1
  O  O415  1  0.88120414  0.74473313  0.74528303  1
  O  O416  1  0.38500911  0.50137935  0.49374484  1
  O  O417  1  0.37302097  0.49294579  0.99294943  1
  O  O418  1  0.37963736  0.99422161  0.49407014  1
  O  O419  1  0.37517734  0.99358643  0.99165448  1
  O  O420  1  0.87996929  0.49470344  0.49683565  1
  O  O421  1  0.87971924  0.49510080  0.99624019  1
  O  O422  1  0.87698129  0.99172066  0.49301669  1
  O  O423  1  0.88563554  1.00163318  0.99404387  1
  O  O424  1  0.11587991  0.00788038  -0.00117913  1
  O  O425  1  0.12458154  0.00688147  0.50589940  1
  O  O426  1  0.11951330  0.50629131  0.00675491  1
  O  O427  1  0.11989472  0.50928442  0.50165264  1
  O  O428  1  0.62283517  0.00835490  0.00719834  1
  O  O429  1  0.61911097  -0.00175464  0.50874327  1
  O  O430  1  0.62512537  0.49895879  0.01283185  1
  O  O431  1  0.61888577  0.50366899  0.50653995  1
  O  O432  1  0.36937403  0.37060603  0.12029401  1
  O  O433  1  0.36470011  0.36941477  0.62264234  1
  O  O434  1  0.36941559  0.86932464  0.11817968  1
  O  O435  1  0.37390192  0.86841664  0.61724410  1
  O  O436  1  0.86927153  0.37060229  0.11986153  1
  O  O437  1  0.87422756  0.36828561  0.62032323  1
  O  O438  1  0.87380326  0.86310500  0.12376773  1
  O  O439  1  0.87563875  0.86782278  0.61893964  1
  O  O440  1  0.13214818  0.12988729  0.37978906  1
  O  O441  1  0.13101025  0.12507486  0.88591367  1
  O  O442  1  0.12508201  0.62722395  0.38794177  1
  O  O443  1  0.12913375  0.63009408  0.88022110  1
  O  O444  1  0.63309479  0.13167732  0.37682784  1
  O  O445  1  0.63093693  0.12705323  0.88088105  1
  O  O446  1  0.63068391  0.63020987  0.38030615  1
  O  O447  1  0.63358299  0.63034329  0.87324982  1
