# generated using pymatgen
data_V3Zn3O8
_symmetry_space_group_name_H-M   'P 1'
_cell_length_a   17.08893793
_cell_length_b   17.08877565
_cell_length_c   17.09066528
_cell_angle_alpha   89.99978961
_cell_angle_beta   89.99639525
_cell_angle_gamma   89.98953969
_symmetry_Int_Tables_number   1
_chemical_formula_structural   V3Zn3O8
_chemical_formula_sum   'V96 Zn96 O256'
_cell_volume   4990.97024920
_cell_formula_units_Z   32
loop_
 _symmetry_equiv_pos_site_id
 _symmetry_equiv_pos_as_xyz
  1  'x, y, z'
loop_
 _atom_site_type_symbol
 _atom_site_label
 _atom_site_symmetry_multiplicity
 _atom_site_fract_x
 _atom_site_fract_y
 _atom_site_fract_z
 _atom_site_occupancy
  V  V0  1  0.37580805  0.49967270  0.37668702  1
  V  V1  1  0.87485359  0.75005390  0.12343367  1
  V  V2  1  0.37067578  0.75100272  0.62422629  1
  V  V3  1  0.00252581  0.25017864  0.75029356  1
  V  V4  1  0.25017672  0.62367140  0.87584169  1
  V  V5  1  0.87447367  0.87463791  -0.00017765  1
  V  V6  1  0.75078767  0.50019620  0.75075066  1
  V  V7  1  0.74964766  0.12485418  0.37375237  1
  V  V8  1  0.37675623  0.37628622  0.00060389  1
  V  V9  1  -0.00043407  0.62469855  0.62489328  1
  V  V10  1  0.62588695  0.37530142  0.75041548  1
  V  V11  1  0.62605034  0.74850304  0.87633584  1
  V  V12  1  -0.00044201  0.49878984  0.50020363  1
  V  V13  1  0.87575265  -0.00039314  0.87398277  1
  V  V14  1  0.62569402  0.12563790  -0.00106900  1
  V  V15  1  0.00096933  0.37458471  0.87489764  1
  V  V16  1  0.12591572  0.24899232  0.37489251  1
  V  V17  1  -0.00095776  0.75036185  0.75018304  1
  V  V18  1  0.87543924  0.50029530  0.87478319  1
  V  V19  1  0.50118484  0.50083740  -0.00054028  1
  V  V20  1  0.74830076  0.87439695  0.62400501  1
  V  V21  1  0.12606102  -0.00079685  0.12531503  1
  V  V22  1  0.25051413  0.24976171  -0.00018594  1
  V  V23  1  0.87347184  0.87426627  0.49783389  1
  V  V24  1  0.00106072  0.00069170  -0.00087894  1
  V  V25  1  0.24848636  0.00022940  0.74928145  1
  V  V26  1  0.49982561  0.00119946  -0.00119467  1
  V  V27  1  0.12399593  0.62572793  0.50028611  1
  V  V28  1  0.24969348  0.37448131  0.62659228  1
  V  V29  1  0.87553433  0.12404758  0.24867297  1
  V  V30  1  0.50109998  0.24956095  0.25011281  1
  V  V31  1  0.12498741  0.50157619  0.12599888  1
  V  V32  1  0.87594145  0.12501042  0.74911147  1
  V  V33  1  0.87546574  0.37472261  0.00089386  1
  V  V34  1  0.62647905  0.25010137  0.87486319  1
  V  V35  1  0.74959329  -0.00020577  0.24841204  1
  V  V36  1  0.62278191  0.75038289  0.37443543  1
  V  V37  1  0.62363715  0.87551261  0.74884224  1
  V  V38  1  0.37451011  0.87612455  0.49940190  1
  V  V39  1  0.49958604  0.75085304  0.24997663  1
  V  V40  1  0.00083976  0.49993027  0.00087485  1
  V  V41  1  0.87622388  0.37451162  0.49936381  1
  V  V42  1  0.49997575  0.25087611  0.75006627  1
  V  V43  1  0.49904300  0.62392710  0.62492397  1
  V  V44  1  0.75022874  0.87429711  0.12304228  1
  V  V45  1  0.37438679  0.87542402  0.00059118  1
  V  V46  1  0.12464257  0.87448840  0.24998903  1
  V  V47  1  0.62561217  0.25056782  0.37501470  1
  V  V48  1  0.49838088  0.75053631  0.74981370  1
  V  V49  1  0.74967913  0.62418264  0.37489191  1
  V  V50  1  0.25072103  0.37638198  0.12579118  1
  V  V51  1  0.37555871  0.12410326  0.25030687  1
  V  V52  1  0.00093832  0.24967931  0.25011312  1
  V  V53  1  0.87389336  0.74898579  0.62449951  1
  V  V54  1  0.12541955  0.37515937  0.25090168  1
  V  V55  1  0.49900621  0.12611859  0.62493229  1
  V  V56  1  0.37322294  0.62427885  0.75060958  1
  V  V57  1  0.75081256  0.37507950  0.12503476  1
  V  V58  1  0.37424364  0.00205304  0.87399308  1
  V  V59  1  0.87587663  0.24908392  0.62511556  1
  V  V60  1  0.49904272  0.87623158  0.87421825  1
  V  V61  1  0.00055527  0.00011674  0.50018053  1
  V  V62  1  0.62376951  0.87455602  0.24962670  1
  V  V63  1  0.62370117  0.62469765  0.50075589  1
  V  V64  1  0.75037527  -0.00013202  0.74895196  1
  V  V65  1  0.12560952  0.49948281  0.62643394  1
  V  V66  1  0.87572731  0.25031204  0.12406232  1
  V  V67  1  0.25108896  0.12312320  0.37517463  1
  V  V68  1  0.00110619  0.12483871  0.12502561  1
  V  V69  1  0.12716118  0.12651980  0.00059646  1
  V  V70  1  0.75122534  0.24990994  0.49965987  1
  V  V71  1  0.00024705  0.87484932  0.87401696  1
  V  V72  1  0.62526010  -0.00002272  0.12393771  1
  V  V73  1  0.50011569  0.37585685  0.37569438  1
  V  V74  1  0.62544190  0.12494822  0.49986492  1
  V  V75  1  0.25026434  0.49993072  0.25155034  1
  V  V76  1  0.87397567  0.62442934  0.25019923  1
  V  V77  1  0.00023989  0.37464318  0.37606250  1
  V  V78  1  0.50073367  0.12569597  0.12529432  1
  V  V79  1  -0.00015538  0.62484846  0.12481954  1
  V  V80  1  0.75000476  0.12477961  0.87474341  1
  V  V81  1  0.62450486  0.00049298  0.62402177  1
  V  V82  1  0.24888571  0.62374228  0.37627050  1
  V  V83  1  0.74831422  0.74936563  0.49991126  1
  V  V84  1  0.12513472  0.75016054  0.87580978  1
  V  V85  1  0.62423869  0.50068358  0.62532381  1
  V  V86  1  0.50005196  0.62586478  0.12567454  1
  V  V87  1  0.24997762  0.87462177  0.12407267  1
  V  V88  1  0.37505257  0.75081636  0.12554282  1
  V  V89  1  0.87430901  0.62407055  0.75044381  1
  V  V90  1  0.87408432  -0.00187119  0.37365850  1
  V  V91  1  0.75042187  0.37503284  0.62459438  1
  V  V92  1  0.25107567  0.24979141  0.50132953  1
  V  V93  1  0.62566411  0.49985391  0.12569396  1
  V  V94  1  0.12378552  0.75010144  0.37522062  1
  V  V95  1  0.62610271  0.37535382  0.24957251  1
  Zn  Zn96  1  -0.00180459  0.87384248  0.37332714  1
  Zn  Zn97  1  0.00196002  0.12400044  0.62381314  1
  Zn  Zn98  1  0.25004605  0.74951183  0.00091761  1
  Zn  Zn99  1  0.37436593  0.25142750  0.62655606  1
  Zn  Zn100  1  0.50102497  0.37667398  0.87470605  1
  Zn  Zn101  1  0.12620040  0.62518796  0.00187612  1
  Zn  Zn102  1  0.37524556  0.50059402  0.87370958  1
  Zn  Zn103  1  -0.00058820  0.75013039  0.24887380  1
  Zn  Zn104  1  0.12656407  0.25082380  0.87466467  1
  Zn  Zn105  1  0.12460745  0.12177167  0.50156279  1
  Zn  Zn106  1  0.49890046  0.87725270  0.37520209  1
  Zn  Zn107  1  0.12656766  0.37569791  0.75301673  1
  Zn  Zn108  1  0.24515371  0.87674512  0.62449630  1
  Zn  Zn109  1  0.87398177  0.49947095  0.37495616  1
  Zn  Zn110  1  0.37745370  -0.00177747  0.37646297  1
  Zn  Zn111  1  0.37239566  0.12701266  0.75095254  1
  Zn  Zn112  1  0.75006734  0.49894107  0.25133668  1
  Zn  Zn113  1  0.49981375  0.49827632  0.50102135  1
  Zn  Zn114  1  0.37441805  0.62672889  0.25079878  1
  Zn  Zn115  1  0.12431637  0.87668342  0.74710280  1
  Zn  Zn116  1  0.24752500  0.75167186  0.50133425  1
  Zn  Zn117  1  0.25039531  0.12665773  0.87328906  1
  Zn  Zn118  1  0.37674642  0.25058644  0.12566288  1
  Zn  Zn119  1  0.74999263  0.62470171  0.87688294  1
  Zn  Zn120  1  0.25135510  -0.00047250  0.25087199  1
  Zn  Zn121  1  0.49975384  -0.00053935  0.49809908  1
  Zn  Zn122  1  0.24983649  0.49728510  0.75206024  1
  Zn  Zn123  1  0.37797285  0.37464264  0.50209082  1
  Zn  Zn124  1  0.62772877  0.62572914  0.00077352  1
  Zn  Zn125  1  0.12399906  -0.00091967  0.62572706  1
  Zn  Zn126  1  0.75102610  0.24969966  -0.00062894  1
  Zn  Zn127  1  0.75014697  0.74747201  -0.00106026  1
  Zn  Zn128  1  0.18907245  0.18873364  0.18635660  1
  Zn  Zn129  1  0.18424483  0.18179843  0.68490572  1
  Zn  Zn130  1  0.18890842  0.68743735  0.18905651  1
  Zn  Zn131  1  0.18639238  0.68599978  0.69061555  1
  Zn  Zn132  1  0.68834256  0.18877327  0.18623196  1
  Zn  Zn133  1  0.68750640  0.18763609  0.68737732  1
  Zn  Zn134  1  0.68757640  0.68722085  0.18652297  1
  Zn  Zn135  1  0.68703439  0.68661556  0.68906326  1
  Zn  Zn136  1  0.31425589  0.31209627  0.31350979  1
  Zn  Zn137  1  0.31504329  0.31361980  0.81414769  1
  Zn  Zn138  1  0.31104567  0.81147334  0.31300679  1
  Zn  Zn139  1  0.31064161  0.81441942  0.81213297  1
  Zn  Zn140  1  0.81339178  0.31247076  0.31160446  1
  Zn  Zn141  1  0.81401600  0.31252514  0.81309965  1
  Zn  Zn142  1  0.80993919  0.81077274  0.31093602  1
  Zn  Zn143  1  0.81179395  0.81298654  0.81174957  1
  Zn  Zn144  1  0.18717576  0.43694682  0.43988478  1
  Zn  Zn145  1  0.18609047  0.43737032  0.93817586  1
  Zn  Zn146  1  0.18908510  0.93597922  0.43806168  1
  Zn  Zn147  1  0.18862103  0.93778323  0.93577508  1
  Zn  Zn148  1  0.68796058  0.43930836  0.43751139  1
  Zn  Zn149  1  0.68884135  0.43632135  0.93780292  1
  Zn  Zn150  1  0.68606311  0.93754776  0.43642760  1
  Zn  Zn151  1  0.68768368  0.93675266  0.93671529  1
  Zn  Zn152  1  0.31295123  0.06185129  0.06385443  1
  Zn  Zn153  1  0.31370163  0.06183507  0.56466527  1
  Zn  Zn154  1  0.31319140  0.56458476  0.06256490  1
  Zn  Zn155  1  0.31072762  0.56230417  0.56156508  1
  Zn  Zn156  1  0.81286011  0.06227173  0.06101409  1
  Zn  Zn157  1  0.81408045  0.06229815  0.56208644  1
  Zn  Zn158  1  0.81035427  0.56302715  0.06107472  1
  Zn  Zn159  1  0.81204490  0.56148573  0.56179723  1
  Zn  Zn160  1  0.43830940  0.43872659  0.18845238  1
  Zn  Zn161  1  0.43526377  0.43800821  0.68806215  1
  Zn  Zn162  1  0.43785947  0.93828833  0.18736985  1
  Zn  Zn163  1  0.43466859  0.93896782  0.68689845  1
  Zn  Zn164  1  0.93738077  0.43863865  0.18817127  1
  Zn  Zn165  1  0.93807745  0.43629143  0.68736504  1
  Zn  Zn166  1  0.93888317  0.93659333  0.18620475  1
  Zn  Zn167  1  0.93695327  0.93560276  0.68565629  1
  Zn  Zn168  1  0.06304352  0.06060347  0.31432041  1
  Zn  Zn169  1  0.06581847  0.06590504  0.81437371  1
  Zn  Zn170  1  0.06061201  0.56225196  0.31255806  1
  Zn  Zn171  1  0.06358530  0.56208472  0.81186920  1
  Zn  Zn172  1  0.56107994  0.06034507  0.31403783  1
  Zn  Zn173  1  0.56290440  0.06349095  0.81155713  1
  Zn  Zn174  1  0.56186039  0.56333200  0.31132602  1
  Zn  Zn175  1  0.56131401  0.56318878  0.81239150  1
  Zn  Zn176  1  0.43708301  0.18867043  0.43794612  1
  Zn  Zn177  1  0.43709285  0.18806299  0.93602329  1
  Zn  Zn178  1  0.43752607  0.68760663  0.43803247  1
  Zn  Zn179  1  0.43738891  0.68814519  0.93878316  1
  Zn  Zn180  1  0.93706148  0.18579779  0.43627299  1
  Zn  Zn181  1  0.93812797  0.18741013  0.93672599  1
  Zn  Zn182  1  0.93778359  0.68731058  0.43677773  1
  Zn  Zn183  1  0.93774842  0.68622466  0.93867450  1
  Zn  Zn184  1  0.06365308  0.31399213  0.06322319  1
  Zn  Zn185  1  0.06504713  0.31115157  0.56357847  1
  Zn  Zn186  1  0.06126342  0.81158931  0.06147349  1
  Zn  Zn187  1  0.06141471  0.81586954  0.56266789  1
  Zn  Zn188  1  0.56403170  0.31198824  0.06313433  1
  Zn  Zn189  1  0.56359537  0.31337087  0.56185407  1
  Zn  Zn190  1  0.56102688  0.81318647  0.06197437  1
  Zn  Zn191  1  0.55898963  0.81164161  0.56166227  1
  O  O192  1  0.11998797  0.11955444  0.12140587  1
  O  O193  1  0.11877282  0.11717603  0.61825433  1
  O  O194  1  0.11904163  0.61910280  0.12546649  1
  O  O195  1  0.11876181  0.62097797  0.62016003  1
  O  O196  1  0.62086603  0.11928711  0.11966406  1
  O  O197  1  0.61887621  0.12090307  0.61982696  1
  O  O198  1  0.61798075  0.61869289  0.12343144  1
  O  O199  1  0.61918071  0.62057071  0.62114774  1
  O  O200  1  0.38062546  0.38391978  0.37559593  1
  O  O201  1  0.37799886  0.37841565  0.88883711  1
  O  O202  1  0.37432820  0.87443957  0.38613742  1
  O  O203  1  0.38104053  0.88052709  0.88045391  1
  O  O204  1  0.88229975  0.37457837  0.38127772  1
  O  O205  1  0.88088601  0.38083868  0.88079780  1
  O  O206  1  0.87346663  0.87981415  0.37938498  1
  O  O207  1  0.88010518  0.88056676  0.87934939  1
  O  O208  1  0.25253690  0.01276562  0.37353804  1
  O  O209  1  0.25679979  0.00157818  0.86756862  1
  O  O210  1  0.25636906  0.50295415  0.37135797  1
  O  O211  1  0.25076812  0.51144775  0.87507996  1
  O  O212  1  0.75390567  0.00573787  0.36788257  1
  O  O213  1  0.75541044  0.00427443  0.86813381  1
  O  O214  1  0.75297429  0.50835601  0.37273759  1
  O  O215  1  0.75729539  0.49961144  0.86771579  1
  O  O216  1  0.24543189  0.49584516  0.13121322  1
  O  O217  1  0.24429664  0.49009480  0.62427898  1
  O  O218  1  0.24314459  0.99335497  0.12736779  1
  O  O219  1  0.25033034  0.99945774  0.63728531  1
  O  O220  1  0.74338947  0.49265242  0.12655935  1
  O  O221  1  0.74471114  0.49432401  0.63074244  1
  O  O222  1  0.74490739  0.99509520  0.12937497  1
  O  O223  1  0.74485068  0.99435271  0.62960618  1
  O  O224  1  0.00555525  0.36931683  0.25531041  1
  O  O225  1  -0.00091383  0.36487512  0.75550615  1
  O  O226  1  0.01209323  0.87289586  0.25080882  1
  O  O227  1  -0.00145950  0.86786047  0.75714792  1
  O  O228  1  0.50614012  0.36902143  0.25516426  1
  O  O229  1  0.50638475  0.36610307  0.74977751  1
  O  O230  1  0.50696373  0.86896438  0.24974924  1
  O  O231  1  0.50444158  0.87049551  0.75442522  1
  O  O232  1  0.49394380  0.12981656  0.24578284  1
  O  O233  1  0.50366118  0.13502607  0.74064104  1
  O  O234  1  0.49808054  0.63263269  0.24310493  1
  O  O235  1  0.49334296  0.63105568  0.74456811  1
  O  O236  1  0.99543069  0.12944908  0.24493238  1
  O  O237  1  0.99321729  0.13433425  0.75094391  1
  O  O238  1  0.99006198  0.62593143  0.24432126  1
  O  O239  1  0.99379808  0.63031115  0.74385593  1
  O  O240  1  0.36943013  0.25920708  0.00266728  1
  O  O241  1  0.36206709  0.25224317  0.50109318  1
  O  O242  1  0.37558807  0.75865336  0.00724444  1
  O  O243  1  0.37344209  0.75590879  0.50946824  1
  O  O244  1  0.87558315  0.25615430  0.00675549  1
  O  O245  1  0.87014586  0.25464783  0.50447461  1
  O  O246  1  0.87442007  0.75769995  0.00504004  1
  O  O247  1  0.86836435  0.75376501  0.50494178  1
  O  O248  1  0.13565941  0.24783078  0.49335593  1
  O  O249  1  0.13560418  0.24611070  1.00272657  1
  O  O250  1  0.12427533  0.74502050  0.49125572  1
  O  O251  1  0.12540317  0.74787807  0.98730298  1
  O  O252  1  0.63240941  0.24489240  0.49437968  1
  O  O253  1  0.62637804  0.24329155  0.99324787  1
  O  O254  1  0.62951027  0.74465986  0.49570969  1
  O  O255  1  0.62386481  0.75128155  0.98725903  1
  O  O256  1  0.50024405  0.24311023  0.13220314  1
  O  O257  1  0.50275319  0.24306529  0.63378918  1
  O  O258  1  0.49515330  0.74584429  0.13005876  1
  O  O259  1  0.49048699  0.74414456  0.63076655  1
  O  O260  1  0.99603181  0.24456468  0.13108549  1
  O  O261  1  0.99378678  0.25010064  0.63392688  1
  O  O262  1  0.99308885  0.74316108  0.12576482  1
  O  O263  1  0.99307969  0.74422579  0.62952462  1
  O  O264  1  0.00566192  0.25418530  0.36935768  1
  O  O265  1  -0.00132926  0.25584492  0.86544480  1
  O  O266  1  0.01212712  0.75105501  0.37260503  1
  O  O267  1  0.00656102  0.75386517  0.87023604  1
  O  O268  1  0.50663174  0.25476085  0.36980021  1
  O  O269  1  0.50737031  0.25062719  0.86497572  1
  O  O270  1  0.50619502  0.75113085  0.36814067  1
  O  O271  1  0.50638080  0.75638042  0.86925349  1
  O  O272  1  0.25134303  0.13270796  0.49112935  1
  O  O273  1  0.24663769  0.13570888  1.00300925  1
  O  O274  1  0.24096907  0.62717270  0.49399996  1
  O  O275  1  0.24837530  0.62822812  0.98945521  1
  O  O276  1  0.74593593  0.13046598  0.49370680  1
  O  O277  1  0.74388272  0.12525579  0.99275852  1
  O  O278  1  0.74408209  0.63091957  0.49598677  1
  O  O279  1  0.74540795  0.62894882  0.99461740  1
  O  O280  1  0.25792710  0.36985847  0.00572408  1
  O  O281  1  0.24978487  0.36549302  0.50839919  1
  O  O282  1  0.25687624  0.87382159  0.00602950  1
  O  O283  1  0.26047373  0.87164998  0.50370873  1
  O  O284  1  0.75796216  0.37273705  0.00679824  1
  O  O285  1  0.75526707  0.36905630  0.50497669  1
  O  O286  1  0.75704756  0.87515146  0.00580255  1
  O  O287  1  0.75332098  0.86892147  0.50505730  1
  O  O288  1  0.13026985  0.49386174  0.24625976  1
  O  O289  1  0.12747677  0.49715171  0.74140426  1
  O  O290  1  0.12608718  0.99055079  0.24467800  1
  O  O291  1  0.13547508  0.99901066  0.75232320  1
  O  O292  1  0.62545735  0.49267257  0.24340652  1
  O  O293  1  0.63007050  0.49508954  0.74504730  1
  O  O294  1  0.63044491  0.99564052  0.24330166  1
  O  O295  1  0.63075484  0.99475894  0.74424854  1
  O  O296  1  0.37375368  0.01288662  0.25149777  1
  O  O297  1  0.36719135  0.00185802  0.75644559  1
  O  O298  1  0.36936402  0.50072262  0.26100329  1
  O  O299  1  0.37170696  0.50815599  0.75382450  1
  O  O300  1  0.86957364  0.00461105  0.25297300  1
  O  O301  1  0.86975278  0.00419841  0.75471044  1
  O  O302  1  0.87328755  0.51221194  0.25179300  1
  O  O303  1  0.87069488  0.50440726  0.75444481  1
  O  O304  1  0.12028553  0.36901181  0.36998955  1
  O  O305  1  0.11717573  0.37131380  0.87334827  1
  O  O306  1  0.12601669  0.86648062  0.36643193  1
  O  O307  1  0.11860584  0.86535085  0.87418678  1
  O  O308  1  0.62098691  0.36956976  0.36987192  1
  O  O309  1  0.62421688  0.36863534  0.86787032  1
  O  O310  1  0.62517978  0.86772198  0.36756749  1
  O  O311  1  0.61884543  0.86909106  0.86841835  1
  O  O312  1  0.38167882  0.12634515  0.13438557  1
  O  O313  1  0.38844933  0.12911651  0.62710958  1
  O  O314  1  0.38156046  0.63217760  0.12722835  1
  O  O315  1  0.37845884  0.63237889  0.62902436  1
  O  O316  1  0.88139508  0.12905808  0.12960665  1
  O  O317  1  0.87573884  0.13179128  0.63168459  1
  O  O318  1  0.87896798  0.62943664  0.13239598  1
  O  O319  1  0.87983448  0.62990435  0.62977175  1
  O  O320  1  0.25277130  0.25758152  0.11602706  1
  O  O321  1  0.24902851  0.25621885  0.61715072  1
  O  O322  1  0.25609254  0.75639127  0.12358696  1
  O  O323  1  0.26162254  0.74924307  0.62650660  1
  O  O324  1  0.75794983  0.25587037  0.12315030  1
  O  O325  1  0.75508268  0.25539855  0.61956921  1
  O  O326  1  0.75609383  0.75751455  0.12296076  1
  O  O327  1  0.75378198  0.75475534  0.61986736  1
  O  O328  1  0.24608216  0.24325277  0.38189873  1
  O  O329  1  0.25034601  0.25093462  0.88918303  1
  O  O330  1  0.23793192  0.74298424  0.37566359  1
  O  O331  1  0.24132446  0.74246739  0.87485082  1
  O  O332  1  0.74555820  0.24436140  0.37965218  1
  O  O333  1  0.74483778  0.24260031  0.87510447  1
  O  O334  1  0.74286586  0.74412950  0.38084110  1
  O  O335  1  0.73749717  0.75104445  0.87408761  1
  O  O336  1  0.00563652  0.12011273  0.00590837  1
  O  O337  1  -0.00086605  0.11291819  0.49863593  1
  O  O338  1  0.00114289  0.61692676  0.00710708  1
  O  O339  1  0.00412118  0.61940754  0.50602472  1
  O  O340  1  0.50576456  0.12031960  0.00506217  1
  O  O341  1  0.50685775  0.12813801  0.51023683  1
  O  O342  1  0.50084131  0.61500183  0.00585975  1
  O  O343  1  0.50663618  0.62363320  0.50745551  1
  O  O344  1  0.49849679  0.37681803  0.49213346  1
  O  O345  1  0.49256124  0.38302864  1.00182073  1
  O  O346  1  0.48817222  0.87568810  0.49915409  1
  O  O347  1  0.49461285  0.88282642  0.99437473  1
  O  O348  1  0.99588899  0.37825636  0.49556982  1
  O  O349  1  0.99472301  0.38022253  0.99591143  1
  O  O350  1  0.99059791  0.88258935  0.49631518  1
  O  O351  1  0.99438536  0.88180458  0.99421483  1
  O  O352  1  0.49124599  0.49530740  0.37510158  1
  O  O353  1  0.49873233  0.49874834  0.88695631  1
  O  O354  1  0.49603211  0.99634490  0.38014091  1
  O  O355  1  0.49580817  0.99544127  0.87903620  1
  O  O356  1  0.99928206  0.49240468  0.38256139  1
  O  O357  1  0.99497550  0.49474581  0.88015812  1
  O  O358  1  0.99174428  0.99755853  0.38188426  1
  O  O359  1  0.99490618  0.99543172  0.87988407  1
  O  O360  1  0.00574174  0.00555530  0.11877204  1
  O  O361  1  -0.00444636  0.00042029  0.61128020  1
  O  O362  1  0.00561188  0.50461841  0.12073137  1
  O  O363  1  0.00489656  0.50503836  0.61977621  1
  O  O364  1  0.50628985  0.00598109  0.11876411  1
  O  O365  1  0.50635085  0.01117887  0.62589201  1
  O  O366  1  0.50498923  0.50470460  0.11784767  1
  O  O367  1  0.50630616  0.50602636  0.62459273  1
  O  O368  1  0.24498366  0.37925363  0.24592739  1
  O  O369  1  0.24889487  0.37345427  0.73950650  1
  O  O370  1  0.23951079  0.87651356  0.24441946  1
  O  O371  1  0.24829385  0.88677120  0.74887634  1
  O  O372  1  0.74416202  0.37528119  0.24371513  1
  O  O373  1  0.74619187  0.37995600  0.74363253  1
  O  O374  1  0.74405230  0.88084955  0.24287082  1
  O  O375  1  0.74423677  0.88068497  0.74311957  1
  O  O376  1  0.25882657  0.12745087  0.25801407  1
  O  O377  1  0.25252962  0.11658914  0.75254472  1
  O  O378  1  0.25117927  0.61697650  0.25813915  1
  O  O379  1  0.25512214  0.62377802  0.76046325  1
  O  O380  1  0.75542134  0.11951856  0.25368877  1
  O  O381  1  0.75512852  0.11906454  0.75465838  1
  O  O382  1  0.75911313  0.62478366  0.25520626  1
  O  O383  1  0.75670950  0.61789785  0.75121353  1
  O  O384  1  0.36726681  0.12640610  0.36679359  1
  O  O385  1  0.37327527  0.11701614  0.87300878  1
  O  O386  1  0.36868727  0.61616255  0.37480747  1
  O  O387  1  0.36550010  0.62734817  0.87002483  1
  O  O388  1  0.86837360  0.11945116  0.36731646  1
  O  O389  1  0.86995519  0.11846729  0.86957181  1
  O  O390  1  0.86938962  0.62583993  0.36603252  1
  O  O391  1  0.87540614  0.61814486  0.86758075  1
  O  O392  1  0.13061699  0.38150527  0.13200874  1
  O  O393  1  0.13483049  0.38021253  0.62595878  1
  O  O394  1  0.12907422  0.87858070  0.13148097  1
  O  O395  1  0.12723520  0.87940559  0.62928046  1
  O  O396  1  0.63068064  0.37923855  0.13057367  1
  O  O397  1  0.63167297  0.38023436  0.63044408  1
  O  O398  1  0.62980435  0.88113717  0.12917173  1
  O  O399  1  0.62878799  0.87940799  0.62944544  1
  O  O400  1  0.12022580  0.25567956  0.25446725  1
  O  O401  1  0.11234263  0.25024164  0.75070435  1
  O  O402  1  0.12394878  0.75793476  0.25776523  1
  O  O403  1  0.11766135  0.74999740  0.76089211  1
  O  O404  1  0.62066483  0.25471791  0.25590059  1
  O  O405  1  0.61868224  0.25532785  0.75424493  1
  O  O406  1  0.61994310  0.75562713  0.25435421  1
  O  O407  1  0.61853061  0.75603376  0.75606639  1
  O  O408  1  0.38155089  0.24026336  0.24936243  1
  O  O409  1  0.38840249  0.24926973  0.74961496  1
  O  O410  1  0.38110766  0.74979608  0.24352951  1
  O  O411  1  0.37944649  0.74608131  0.74253363  1
  O  O412  1  0.88160961  0.24353985  0.24444857  1
  O  O413  1  0.88266839  0.24516757  0.74499310  1
  O  O414  1  0.87597603  0.74057621  0.24370129  1
  O  O415  1  0.87907965  0.74470345  0.74404678  1
  O  O416  1  0.37567291  0.49815002  0.48757526  1
  O  O417  1  0.38436074  0.49202631  1.00144379  1
  O  O418  1  0.37696730  0.98873151  0.50117091  1
  O  O419  1  0.38121466  0.99532720  0.99515251  1
  O  O420  1  0.88179828  0.49249875  0.49965484  1
  O  O421  1  0.88133835  0.49399558  0.99514198  1
  O  O422  1  0.87893262  0.99397935  0.49278138  1
  O  O423  1  0.88160801  0.99529590  0.99382538  1
  O  O424  1  0.12003836  0.00523828  0.00534915  1
  O  O425  1  0.11127882  -0.00159855  0.49658318  1
  O  O426  1  0.11839825  0.50067354  0.00872142  1
  O  O427  1  0.11862049  0.50565944  0.50601317  1
  O  O428  1  0.61927535  0.00534608  0.00399493  1
  O  O429  1  0.62496189  0.00716317  0.50670764  1
  O  O430  1  0.61474733  0.49822823  0.00587081  1
  O  O431  1  0.62442127  0.50696595  0.50785235  1
  O  O432  1  0.37000270  0.37480934  0.11636801  1
  O  O433  1  0.36354235  0.37305903  0.62229127  1
  O  O434  1  0.36988841  0.87132133  0.12029586  1
  O  O435  1  0.37523670  0.86469663  0.61838685  1
  O  O436  1  0.87157185  0.36973695  0.12094897  1
  O  O437  1  0.86940561  0.36904552  0.61906185  1
  O  O438  1  0.87025939  0.87073739  0.11961752  1
  O  O439  1  0.86715104  0.86793071  0.61870556  1
  O  O440  1  0.13614172  0.13066595  0.37417184  1
  O  O441  1  0.12900197  0.13079884  0.88626518  1
  O  O442  1  0.12801559  0.63155593  0.37971972  1
  O  O443  1  0.13242270  0.63328413  0.87557933  1
  O  O444  1  0.63085060  0.13096727  0.37917243  1
  O  O445  1  0.63085050  0.12940250  0.87940812  1
  O  O446  1  0.62943686  0.63075839  0.38037695  1
  O  O447  1  0.62458055  0.63806354  0.87425188  1
