# generated using pymatgen
data_V3Zn3O8
_symmetry_space_group_name_H-M   'P 1'
_cell_length_a   17.09102134
_cell_length_b   17.08985293
_cell_length_c   17.08957513
_cell_angle_alpha   90.00045390
_cell_angle_beta   89.98275388
_cell_angle_gamma   90.01198161
_symmetry_Int_Tables_number   1
_chemical_formula_structural   V3Zn3O8
_chemical_formula_sum   'V96 Zn96 O256'
_cell_volume   4991.57473888
_cell_formula_units_Z   32
loop_
 _symmetry_equiv_pos_site_id
 _symmetry_equiv_pos_as_xyz
  1  'x, y, z'
loop_
 _atom_site_type_symbol
 _atom_site_label
 _atom_site_symmetry_multiplicity
 _atom_site_fract_x
 _atom_site_fract_y
 _atom_site_fract_z
 _atom_site_occupancy
  V  V0  1  0.12527492  0.75070779  0.37479251  1
  V  V1  1  0.12534581  0.62430454  0.49989378  1
  V  V2  1  0.62480643  0.50036304  0.62592870  1
  V  V3  1  0.12683310  0.00029997  0.62404302  1
  V  V4  1  0.75085403  0.37452605  0.12667547  1
  V  V5  1  0.50043152  0.37479001  0.37634583  1
  V  V6  1  0.62485035  -0.00114089  0.62496242  1
  V  V7  1  0.37582686  -0.00035821  0.87469493  1
  V  V8  1  0.87373926  0.50114721  0.87530185  1
  V  V9  1  0.25042974  0.25196638  0.50005827  1
  V  V10  1  0.24863358  0.87586426  0.12498738  1
  V  V11  1  0.12387928  0.37426807  0.75065491  1
  V  V12  1  0.74943577  0.12475398  0.37478096  1
  V  V13  1  0.12565717  0.75066161  0.87314204  1
  V  V14  1  0.00051738  0.24927809  0.24993568  1
  V  V15  1  0.87473172  -0.00144114  0.37460029  1
  V  V16  1  0.50027221  0.00060437  -0.00048629  1
  V  V17  1  0.24981065  0.12618117  0.37349483  1
  V  V18  1  0.12466881  0.62599652  0.00032893  1
  V  V19  1  0.87375084  0.25025918  0.62479799  1
  V  V20  1  0.37620914  0.12604980  0.74965368  1
  V  V21  1  0.25030735  0.62458066  0.37474518  1
  V  V22  1  0.74981804  0.24923057  -0.00017668  1
  V  V23  1  -0.00008293  0.49967245  0.00057165  1
  V  V24  1  0.12462446  0.24902980  0.37366335  1
  V  V25  1  -0.00026053  0.37507119  0.87490556  1
  V  V26  1  0.24954249  0.49853238  0.74968805  1
  V  V27  1  0.87359489  0.74959655  0.12464066  1
  V  V28  1  0.74924938  -0.00136590  0.24872544  1
  V  V29  1  0.00199767  0.87423983  0.87108417  1
  V  V30  1  -0.00007614  0.12565968  0.62427878  1
  V  V31  1  0.75017684  0.37477800  0.62507775  1
  V  V32  1  0.62412066  0.87468363  0.25039383  1
  V  V33  1  0.00063461  0.12377668  0.12370993  1
  V  V34  1  0.87593467  -0.00062775  0.87403747  1
  V  V35  1  0.12430023  0.87469524  0.25016016  1
  V  V36  1  0.49989021  0.87539516  0.87562940  1
  V  V37  1  0.49927645  0.62471731  0.62534869  1
  V  V38  1  -0.00092937  0.50042160  0.50086876  1
  V  V39  1  0.74947446  0.50046559  0.75106236  1
  V  V40  1  0.37587039  0.49945031  0.37539354  1
  V  V41  1  0.62527488  0.87434215  0.75095369  1
  V  V42  1  0.37552358  0.37672258  -0.00071240  1
  V  V43  1  0.75078878  0.87343485  0.62467273  1
  V  V44  1  0.50171129  0.12389204  0.62382062  1
  V  V45  1  0.62587969  0.24860927  0.37532188  1
  V  V46  1  0.50150412  0.25014506  0.75055265  1
  V  V47  1  0.62428901  0.37470289  0.75051992  1
  V  V48  1  0.25028327  0.37599775  0.12489135  1
  V  V49  1  0.37535896  0.25100460  0.12419304  1
  V  V50  1  0.25005173  0.12659955  0.87519391  1
  V  V51  1  0.24980139  0.00158030  0.74896155  1
  V  V52  1  0.75162317  -0.00110795  0.75036414  1
  V  V53  1  -0.00079835  0.25133849  0.75038040  1
  V  V54  1  -0.00005952  0.37491508  0.37504445  1
  V  V55  1  0.74997349  0.62516439  0.37646741  1
  V  V56  1  0.87476484  0.12349312  0.24945931  1
  V  V57  1  0.62306289  0.50148751  0.12420924  1
  V  V58  1  0.87567199  0.24947977  0.12511245  1
  V  V59  1  0.37514492  0.49977832  0.87571412  1
  V  V60  1  0.87556357  0.37517241  0.00105793  1
  V  V61  1  0.87499114  0.87339924  0.00021460  1
  V  V62  1  -0.00010693  0.87461466  0.37520793  1
  V  V63  1  0.25025858  0.50021566  0.24938598  1
  V  V64  1  0.12423541  0.12593331  0.49903720  1
  V  V65  1  0.87452224  0.12422115  0.74994283  1
  V  V66  1  0.75088034  0.49980241  0.25239494  1
  V  V67  1  0.37595559  0.00022417  0.37585279  1
  V  V68  1  0.37350090  0.62405110  0.74984240  1
  V  V69  1  0.62451844  0.00051647  0.12389772  1
  V  V70  1  0.24964295  0.75128902  0.00088457  1
  V  V71  1  0.12481884  -0.00054379  0.12446515  1
  V  V72  1  0.74980150  0.24907514  0.50047237  1
  V  V73  1  0.74883659  0.62508504  0.87656082  1
  V  V74  1  0.25151413  0.75035120  0.49997476  1
  V  V75  1  0.37353636  0.75132783  0.12523846  1
  V  V76  1  -0.00112385  0.62418253  0.12576860  1
  V  V77  1  0.12483905  0.49992468  0.62480287  1
  V  V78  1  0.62306641  0.74883663  0.87703200  1
  V  V79  1  0.62666825  0.24995915  0.87587365  1
  V  V80  1  0.37426472  0.12588407  0.24921712  1
  V  V81  1  0.62625694  0.37436169  0.25100502  1
  V  V82  1  0.37585450  0.62616644  0.24995190  1
  V  V83  1  0.74986132  0.74987765  0.50129856  1
  V  V84  1  0.50026487  0.12553248  0.12306318  1
  V  V85  1  0.25002244  0.24960469  -0.00113666  1
  V  V86  1  0.49991361  0.75064929  0.25059654  1
  V  V87  1  0.12574116  0.50043940  0.12506615  1
  V  V88  1  0.25015003  0.37315017  0.62411563  1
  V  V89  1  0.00081356  0.00027411  -0.00016621  1
  V  V90  1  0.50027024  0.49931480  0.49986993  1
  V  V91  1  0.87454404  0.62404888  0.25089576  1
  V  V92  1  0.87398330  0.87438143  0.49962365  1
  V  V93  1  0.37378639  0.75135050  0.62469257  1
  V  V94  1  0.50038045  0.25028995  0.24976444  1
  V  V95  1  0.62595677  0.62589702  0.50042811  1
  Zn  Zn96  1  0.50046408  0.37505241  0.87650691  1
  Zn  Zn97  1  0.49944074  0.50107998  0.00066177  1
  Zn  Zn98  1  0.62104466  0.62514201  0.00164786  1
  Zn  Zn99  1  0.37571842  0.37388395  0.50136089  1
  Zn  Zn100  1  -0.00041000  0.74820961  0.25154635  1
  Zn  Zn101  1  0.24947358  0.62612185  0.87501043  1
  Zn  Zn102  1  0.24952703  0.00098080  0.24905167  1
  Zn  Zn103  1  0.62420057  0.12193277  0.49828635  1
  Zn  Zn104  1  0.62746145  0.12437423  -0.00119893  1
  Zn  Zn105  1  0.12515596  0.12599427  -0.00157226  1
  Zn  Zn106  1  0.12603934  0.37471231  0.24865111  1
  Zn  Zn107  1  0.74989104  0.87439514  0.12296606  1
  Zn  Zn108  1  0.25172350  0.87753931  0.62328477  1
  Zn  Zn109  1  0.49744698  0.74979600  0.75106537  1
  Zn  Zn110  1  0.87479177  0.50026527  0.37638950  1
  Zn  Zn111  1  0.75056871  0.12346063  0.87661529  1
  Zn  Zn112  1  0.37659318  0.25151573  0.62393879  1
  Zn  Zn113  1  0.12427230  0.24904842  0.87639131  1
  Zn  Zn114  1  0.87842057  0.62705219  0.74808944  1
  Zn  Zn115  1  0.49906066  0.62470668  0.12353084  1
  Zn  Zn116  1  0.00011609  0.74608361  0.74697170  1
  Zn  Zn117  1  0.87379409  0.37575658  0.50064230  1
  Zn  Zn118  1  0.50108145  -0.00290825  0.49969893  1
  Zn  Zn119  1  -0.00122341  0.62851529  0.62724944  1
  Zn  Zn120  1  -0.00073128  0.00036406  0.49957765  1
  Zn  Zn121  1  0.87958531  0.74971487  0.62839247  1
  Zn  Zn122  1  0.12708124  0.87308698  0.74546924  1
  Zn  Zn123  1  0.62324571  0.75140059  0.37664806  1
  Zn  Zn124  1  0.37620495  0.87648001  0.49914041  1
  Zn  Zn125  1  0.74823822  0.74994430  0.00100067  1
  Zn  Zn126  1  0.49901778  0.87675807  0.37762064  1
  Zn  Zn127  1  0.37414909  0.87507555  -0.00003775  1
  Zn  Zn128  1  0.18695919  0.18717753  0.18601904  1
  Zn  Zn129  1  0.18724226  0.18822978  0.68792752  1
  Zn  Zn130  1  0.18731961  0.68831083  0.18835642  1
  Zn  Zn131  1  0.18776354  0.68496882  0.68697455  1
  Zn  Zn132  1  0.68727712  0.18615925  0.18696535  1
  Zn  Zn133  1  0.68757812  0.18604998  0.68892085  1
  Zn  Zn134  1  0.68839034  0.68653712  0.18972019  1
  Zn  Zn135  1  0.68858251  0.68856490  0.68942864  1
  Zn  Zn136  1  0.31322866  0.31389039  0.31243053  1
  Zn  Zn137  1  0.31334799  0.31204878  0.81139893  1
  Zn  Zn138  1  0.31097262  0.81486524  0.31152122  1
  Zn  Zn139  1  0.31083722  0.81566261  0.81022382  1
  Zn  Zn140  1  0.81458174  0.31186191  0.31396265  1
  Zn  Zn141  1  0.81205132  0.31311024  0.81274619  1
  Zn  Zn142  1  0.81077810  0.81060392  0.31288565  1
  Zn  Zn143  1  0.81346409  0.81021890  0.81115726  1
  Zn  Zn144  1  0.18671299  0.43634092  0.43710135  1
  Zn  Zn145  1  0.18795170  0.43654732  0.93725320  1
  Zn  Zn146  1  0.19062169  0.93718111  0.43837756  1
  Zn  Zn147  1  0.18839048  0.93880717  0.93821489  1
  Zn  Zn148  1  0.68734729  0.43728417  0.43902028  1
  Zn  Zn149  1  0.68768804  0.43562342  0.93886385  1
  Zn  Zn150  1  0.68652322  0.93768702  0.43802957  1
  Zn  Zn151  1  0.68900740  0.93598740  0.93854366  1
  Zn  Zn152  1  0.31241239  0.06224418  0.06095265  1
  Zn  Zn153  1  0.31346093  0.06659773  0.56028243  1
  Zn  Zn154  1  0.31174674  0.56579897  0.06208664  1
  Zn  Zn155  1  0.31239432  0.56154228  0.56200034  1
  Zn  Zn156  1  0.81243672  0.06139121  0.06127136  1
  Zn  Zn157  1  0.81142678  0.06143933  0.56162341  1
  Zn  Zn158  1  0.80975901  0.56285438  0.06240289  1
  Zn  Zn159  1  0.81460152  0.56482550  0.56455496  1
  Zn  Zn160  1  0.43761862  0.43674327  0.18928873  1
  Zn  Zn161  1  0.43673476  0.43567190  0.68769375  1
  Zn  Zn162  1  0.43634931  0.93790962  0.18790433  1
  Zn  Zn163  1  0.43848118  0.93688790  0.68963100  1
  Zn  Zn164  1  0.93799150  0.43759278  0.18890984  1
  Zn  Zn165  1  0.93560082  0.43925467  0.68797981  1
  Zn  Zn166  1  0.93894825  0.93533083  0.18838465  1
  Zn  Zn167  1  0.93877760  0.93694741  0.68569482  1
  Zn  Zn168  1  0.06192554  0.06038140  0.31137640  1
  Zn  Zn169  1  0.06373297  0.06449442  0.81142594  1
  Zn  Zn170  1  0.06307453  0.56273694  0.31201942  1
  Zn  Zn171  1  0.06194696  0.56290994  0.81225826  1
  Zn  Zn172  1  0.56107632  0.06312575  0.31025672  1
  Zn  Zn173  1  0.56468380  0.06348396  0.81261499  1
  Zn  Zn174  1  0.56360047  0.56363412  0.31251740  1
  Zn  Zn175  1  0.56007977  0.56347626  0.81157777  1
  Zn  Zn176  1  0.43634734  0.18737262  0.43889351  1
  Zn  Zn177  1  0.43845104  0.18747479  0.93675390  1
  Zn  Zn178  1  0.43855916  0.68676069  0.43772432  1
  Zn  Zn179  1  0.43788455  0.68493145  0.94088323  1
  Zn  Zn180  1  0.93588408  0.18677243  0.43834039  1
  Zn  Zn181  1  0.93694926  0.18700398  0.93686088  1
  Zn  Zn182  1  0.93646504  0.68842864  0.43885654  1
  Zn  Zn183  1  0.93736895  0.68728756  0.93746593  1
  Zn  Zn184  1  0.06449010  0.31215812  0.06184481  1
  Zn  Zn185  1  0.06309136  0.31275612  0.56271884  1
  Zn  Zn186  1  0.06085179  0.81246858  0.06173944  1
  Zn  Zn187  1  0.06158600  0.81329620  0.56016958  1
  Zn  Zn188  1  0.56218183  0.31498616  0.06054869  1
  Zn  Zn189  1  0.56442476  0.31098742  0.56204322  1
  Zn  Zn190  1  0.56027587  0.81403741  0.06258149  1
  Zn  Zn191  1  0.56001233  0.81360986  0.56150624  1
  O  O192  1  0.11752748  0.11802289  0.12348095  1
  O  O193  1  0.11967498  0.11916637  0.61922531  1
  O  O194  1  0.11898299  0.62035309  0.12016356  1
  O  O195  1  0.12527523  0.61643754  0.61644171  1
  O  O196  1  0.61752121  0.11864077  0.12423790  1
  O  O197  1  0.61632616  0.11798009  0.62675096  1
  O  O198  1  0.62632248  0.61251266  0.12611896  1
  O  O199  1  0.61986349  0.61946497  0.62112653  1
  O  O200  1  0.38301429  0.38203969  0.37582648  1
  O  O201  1  0.37506667  0.38442736  0.87988096  1
  O  O202  1  0.37493246  0.88851041  0.37296669  1
  O  O203  1  0.38185663  0.88191728  0.87491250  1
  O  O204  1  0.88833729  0.37612747  0.37742069  1
  O  O205  1  0.87953178  0.38125409  0.88161413  1
  O  O206  1  0.87895306  0.87948250  0.37871445  1
  O  O207  1  0.88458387  0.87900283  0.87966714  1
  O  O208  1  0.25831230  0.00844754  0.37277933  1
  O  O209  1  0.25563404  0.00598859  0.86958993  1
  O  O210  1  0.25505448  0.50475701  0.36969956  1
  O  O211  1  0.25933025  0.50038736  0.86878855  1
  O  O212  1  0.75477496  0.00498365  0.36793592  1
  O  O213  1  0.75832166  -0.00101559  0.86817545  1
  O  O214  1  0.75138287  0.50539330  0.37003764  1
  O  O215  1  0.75301228  0.50642619  0.87151896  1
  O  O216  1  0.24538451  0.49587289  0.12982286  1
  O  O217  1  0.24416472  0.49355498  0.62959609  1
  O  O218  1  0.24334435  0.99426990  0.12552826  1
  O  O219  1  0.24159637  1.00453509  0.62929894  1
  O  O220  1  0.74293628  0.49376271  0.13177329  1
  O  O221  1  0.74357736  0.49502897  0.63064050  1
  O  O222  1  0.74365175  0.99867526  0.13176752  1
  O  O223  1  0.74478342  0.99342062  0.63092671  1
  O  O224  1  0.00141442  0.36908885  0.25918433  1
  O  O225  1  0.00386853  0.37111889  0.75535964  1
  O  O226  1  0.00639474  0.87153750  0.25746231  1
  O  O227  1  0.00460619  0.87636504  0.76314152  1
  O  O228  1  0.50622828  0.36897079  0.25657599  1
  O  O229  1  0.50750755  0.36823841  0.75021813  1
  O  O230  1  0.50775091  0.86747624  0.25044434  1
  O  O231  1  0.50775810  0.87265669  0.75787902  1
  O  O232  1  0.49419593  0.13229373  0.24271480  1
  O  O233  1  0.49654483  0.12979295  0.74224278  1
  O  O234  1  0.49494506  0.63485473  0.24876703  1
  O  O235  1  0.49158915  0.62634681  0.74238320  1
  O  O236  1  0.99371293  0.12964984  0.24415180  1
  O  O237  1  0.99388624  0.13123956  0.74400159  1
  O  O238  1  0.99311814  0.62507679  0.24339509  1
  O  O239  1  0.99790487  0.62602834  0.74693428  1
  O  O240  1  0.37057163  0.25636805  0.00533531  1
  O  O241  1  0.36623919  0.25270681  0.50234501  1
  O  O242  1  0.36772862  0.75140276  0.00710949  1
  O  O243  1  0.36958262  0.74653650  0.50984133  1
  O  O244  1  0.87082749  0.25608117  0.00625308  1
  O  O245  1  0.86796859  0.25119931  0.50739310  1
  O  O246  1  0.87459880  0.75423285  0.00924672  1
  O  O247  1  0.86668879  0.75791767  0.50058082  1
  O  O248  1  0.12958040  0.24477813  0.49324333  1
  O  O249  1  0.13402442  0.24780702  0.99767487  1
  O  O250  1  0.13228635  0.74429118  0.49362444  1
  O  O251  1  0.12883798  0.74575394  0.99261307  1
  O  O252  1  0.63217593  0.24663919  0.49252785  1
  O  O253  1  0.63167345  0.25118703  0.99322357  1
  O  O254  1  0.63042349  0.74335517  0.49894433  1
  O  O255  1  0.62596324  0.74991291  0.98887769  1
  O  O256  1  0.49489746  0.24664073  0.13014516  1
  O  O257  1  0.50241833  0.24006581  0.63159383  1
  O  O258  1  0.49381612  0.75035875  0.13616611  1
  O  O259  1  0.48982362  0.74277691  0.62648057  1
  O  O260  1  0.99466174  0.24504503  0.12979632  1
  O  O261  1  0.99413588  0.24565131  0.63030211  1
  O  O262  1  0.98947594  0.74272362  0.12542681  1
  O  O263  1  1.00053863  0.74846479  0.62788913  1
  O  O264  1  0.00428256  0.25644132  0.37051969  1
  O  O265  1  -0.00103965  0.25774071  0.86826803  1
  O  O266  1  0.00761457  0.75615870  0.37493024  1
  O  O267  1  0.00992165  0.75910907  0.87800302  1
  O  O268  1  0.50557217  0.25408861  0.36947066  1
  O  O269  1  0.50875873  0.25123189  0.86856005  1
  O  O270  1  0.50020209  0.75174249  0.36177559  1
  O  O271  1  0.50799183  0.75476620  0.87452905  1
  O  O272  1  0.24350622  0.13295482  0.49289396  1
  O  O273  1  0.25061803  0.13228668  0.99314239  1
  O  O274  1  0.24469060  0.62895965  0.49319338  1
  O  O275  1  0.24166864  0.63338481  0.99873626  1
  O  O276  1  0.74845816  0.13109290  0.49256926  1
  O  O277  1  0.74908177  0.13360143  0.99806208  1
  O  O278  1  0.74434560  0.62950264  0.49588294  1
  O  O279  1  0.74462463  0.62516152  0.98759615  1
  O  O280  1  0.25616161  0.37000285  0.00587767  1
  O  O281  1  0.24949745  0.36906747  0.50580766  1
  O  O282  1  0.25063730  0.86863433  0.00739091  1
  O  O283  1  0.25537967  0.86595262  0.50289144  1
  O  O284  1  0.75718919  0.36958744  0.00744688  1
  O  O285  1  0.75091404  0.36806180  0.50700542  1
  O  O286  1  0.75972484  0.87143150  0.00296465  1
  O  O287  1  0.75394295  0.86954607  0.50480533  1
  O  O288  1  0.13244858  0.49956280  0.24285029  1
  O  O289  1  0.13023007  0.49341853  0.74513647  1
  O  O290  1  0.12597041  0.99296249  0.24245316  1
  O  O291  1  0.13112530  1.00301002  0.73822591  1
  O  O292  1  0.63106247  0.49373202  0.24384742  1
  O  O293  1  0.62925134  0.49472909  0.74513248  1
  O  O294  1  0.62833503  0.99254919  0.24414196  1
  O  O295  1  0.63176424  0.99347625  0.74579884  1
  O  O296  1  0.37326774  0.00831161  0.25779016  1
  O  O297  1  0.36976208  0.00645140  0.75521891  1
  O  O298  1  0.37018951  0.50606234  0.25559640  1
  O  O299  1  0.36905384  0.50339674  0.75700780  1
  O  O300  1  0.86925757  0.00402108  0.25426478  1
  O  O301  1  0.87133257  0.00419687  0.75455645  1
  O  O302  1  0.86808352  0.50610844  0.25089698  1
  O  O303  1  0.86615106  0.50001120  0.75863910  1
  O  O304  1  0.11469704  0.36838498  0.37270535  1
  O  O305  1  0.11711968  0.37459288  0.86854967  1
  O  O306  1  0.12073094  0.87051547  0.37077711  1
  O  O307  1  0.11726841  0.86720980  0.87609117  1
  O  O308  1  0.62030978  0.36888884  0.36966851  1
  O  O309  1  0.62412980  0.36798704  0.86871625  1
  O  O310  1  0.62247845  0.87518551  0.36110326  1
  O  O311  1  0.62073869  0.86692072  0.87076066  1
  O  O312  1  0.38029983  0.13167007  0.12943690  1
  O  O313  1  0.38586562  0.12586304  0.63151327  1
  O  O314  1  0.37449584  0.63294297  0.13354749  1
  O  O315  1  0.37906639  0.63127200  0.62975825  1
  O  O316  1  0.88090906  0.12974763  0.13057192  1
  O  O317  1  0.88010983  0.12969365  0.63017959  1
  O  O318  1  0.87889951  0.63072074  0.12926628  1
  O  O319  1  0.87898926  0.62935587  0.62863679  1
  O  O320  1  0.25656113  0.25573027  0.11994325  1
  O  O321  1  0.24980785  0.25563421  0.61801135  1
  O  O322  1  0.25360784  0.75604366  0.12048357  1
  O  O323  1  0.25914396  0.74868512  0.61907915  1
  O  O324  1  0.75622827  0.25538113  0.12156435  1
  O  O325  1  0.75414701  0.25477051  0.62099739  1
  O  O326  1  0.76212248  0.74890595  0.12318710  1
  O  O327  1  0.74916318  0.75756357  0.61855115  1
  O  O328  1  0.24406230  0.24634075  0.37889257  1
  O  O329  1  0.25024847  0.24432633  0.88096614  1
  O  O330  1  0.24593122  0.74366752  0.37953481  1
  O  O331  1  0.24003008  0.75184410  0.88112498  1
  O  O332  1  0.74562354  0.24458635  0.37934135  1
  O  O333  1  0.74377042  0.25014449  0.88139330  1
  O  O334  1  0.74642788  0.74304148  0.38225036  1
  O  O335  1  0.74041794  0.74156345  0.87588447  1
  O  O336  1  -0.00035776  0.11808367  0.00631756  1
  O  O337  1  0.00616590  0.12394030  0.50617843  1
  O  O338  1  0.00470567  0.61831987  0.00575829  1
  O  O339  1  0.00720250  0.61336419  0.49717512  1
  O  O340  1  0.50202969  0.11892026  0.00652966  1
  O  O341  1  0.50180752  0.12416248  0.51310701  1
  O  O342  1  0.50365490  0.61860494  0.00651242  1
  O  O343  1  0.50629022  0.61875176  0.50538939  1
  O  O344  1  0.50098647  0.38137231  0.49378454  1
  O  O345  1  0.49061363  0.38006359  0.99760285  1
  O  O346  1  0.49428568  0.87853148  0.49504736  1
  O  O347  1  0.49755916  0.88275100  0.99320971  1
  O  O348  1  1.00081086  0.38273150  0.49099710  1
  O  O349  1  0.99445795  0.38043483  0.99578804  1
  O  O350  1  0.99261634  0.87860859  0.49184142  1
  O  O351  1  0.99510641  0.88031498  0.99052365  1
  O  O352  1  0.49627647  0.49473898  0.37966058  1
  O  O353  1  0.48595859  0.49825055  0.87444428  1
  O  O354  1  0.48783507  1.00293179  0.37522491  1
  O  O355  1  0.49600913  0.99557541  0.87936708  1
  O  O356  1  1.00180691  0.49091090  0.38306626  1
  O  O357  1  0.99404001  0.49451249  0.88216277  1
  O  O358  1  0.99221298  0.99354619  0.37574715  1
  O  O359  1  0.99681471  0.99231661  0.87904393  1
  O  O360  1  0.00414497  0.00415373  0.11941280  1
  O  O361  1  0.01017344  0.00725781  0.62375104  1
  O  O362  1  0.00514882  0.50426275  0.11948315  1
  O  O363  1  0.00674219  0.49648733  0.61365550  1
  O  O364  1  0.50434187  0.00574189  0.11993312  1
  O  O365  1  0.50569042  0.00947123  0.62737599  1
  O  O366  1  0.51247367  0.49988629  0.12855801  1
  O  O367  1  0.50523070  0.50489955  0.62007379  1
  O  O368  1  0.24959145  0.38231421  0.24293669  1
  O  O369  1  0.24359033  0.37904708  0.74437183  1
  O  O370  1  0.24135125  0.87681287  0.24250023  1
  O  O371  1  0.24654865  0.88614895  0.74491900  1
  O  O372  1  0.74602970  0.37891433  0.24631609  1
  O  O373  1  0.74375470  0.38083865  0.74470249  1
  O  O374  1  0.74014762  0.87948224  0.24766304  1
  O  O375  1  0.74481317  0.88012925  0.74503063  1
  O  O376  1  0.25680569  0.12590546  0.25582192  1
  O  O377  1  0.25651451  0.12125415  0.75500051  1
  O  O378  1  0.25579860  0.61999767  0.25580240  1
  O  O379  1  0.25571953  0.61572131  0.75194868  1
  O  O380  1  0.75585542  0.11924028  0.25480886  1
  O  O381  1  0.75792827  0.11682346  0.75061456  1
  O  O382  1  0.75503671  0.61906745  0.25694549  1
  O  O383  1  0.74781189  0.61815493  0.76290634  1
  O  O384  1  0.36964169  0.12012957  0.36886880  1
  O  O385  1  0.37077137  0.11914488  0.86848425  1
  O  O386  1  0.36976996  0.61917740  0.36946584  1
  O  O387  1  0.37220600  0.61649986  0.86924036  1
  O  O388  1  0.86949946  0.11946777  0.36827650  1
  O  O389  1  0.87507405  0.11719952  0.86735031  1
  O  O390  1  0.86841972  0.62342003  0.36887347  1
  O  O391  1  0.86410559  0.61881851  0.87702664  1
  O  O392  1  0.13193426  0.38266676  0.12581543  1
  O  O393  1  0.12991809  0.38027313  0.63111841  1
  O  O394  1  0.12801501  0.87942179  0.12994431  1
  O  O395  1  0.12689651  0.88948368  0.62377862  1
  O  O396  1  0.63136214  0.38110759  0.13209188  1
  O  O397  1  0.63075339  0.38074399  0.63056667  1
  O  O398  1  0.62552261  0.88061268  0.13517682  1
  O  O399  1  0.62985625  0.87931065  0.63168429  1
  O  O400  1  0.11769105  0.25108778  0.25563231  1
  O  O401  1  0.11642365  0.25687957  0.75100842  1
  O  O402  1  0.12312542  0.75583791  0.25727823  1
  O  O403  1  0.12625686  0.75169876  0.76263066  1
  O  O404  1  0.62026361  0.25534008  0.25497320  1
  O  O405  1  0.62210198  0.25554357  0.75673991  1
  O  O406  1  0.61703483  0.75795616  0.24912444  1
  O  O407  1  0.62327390  0.75525369  0.76186494  1
  O  O408  1  0.38119607  0.24620202  0.24405453  1
  O  O409  1  0.38317162  0.24338054  0.74829865  1
  O  O410  1  0.38167925  0.74632793  0.24590387  1
  O  O411  1  0.37311039  0.74315737  0.74087671  1
  O  O412  1  0.88055159  0.24343275  0.24448383  1
  O  O413  1  0.87948212  0.24508979  0.74423271  1
  O  O414  1  0.87557649  0.74320175  0.24063480  1
  O  O415  1  0.88024779  0.74670299  0.74865032  1
  O  O416  1  0.38259653  0.49940648  0.49263652  1
  O  O417  1  0.37183699  0.49548184  0.99086028  1
  O  O418  1  0.37581651  1.00201054  0.48768239  1
  O  O419  1  0.38206524  0.99879199  0.99221588  1
  O  O420  1  0.88727486  0.49751720  0.49830786  1
  O  O421  1  0.87988499  0.49422854  0.99636669  1
  O  O422  1  0.87447038  0.99306169  0.49174649  1
  O  O423  1  0.88148832  0.99355078  0.99429339  1
  O  O424  1  0.11777242  0.00138915  0.00684368  1
  O  O425  1  0.12590489  0.00789147  0.50845444  1
  O  O426  1  0.11987324  0.50550621  0.00526883  1
  O  O427  1  0.11764105  0.50395588  0.50408076  1
  O  O428  1  0.61889591  0.00050329  0.00603304  1
  O  O429  1  0.62281193  0.00236232  0.50874486  1
  O  O430  1  0.62490540  0.49741289  0.01370102  1
  O  O431  1  0.61987943  0.50572478  0.50685789  1
  O  O432  1  0.36961473  0.37053791  0.12030545  1
  O  O433  1  0.36615280  0.37271351  0.62249951  1
  O  O434  1  0.36709617  0.86891318  0.12479655  1
  O  O435  1  0.37500894  0.86232539  0.62523898  1
  O  O436  1  0.87070979  0.36932195  0.12095012  1
  O  O437  1  0.86756244  0.36810707  0.62469086  1
  O  O438  1  0.87628409  0.86463652  0.12000508  1
  O  O439  1  0.86793033  0.87613865  0.61733884  1
  O  O440  1  0.12908970  0.12979816  0.37867415  1
  O  O441  1  0.13357375  0.12783887  0.87692299  1
  O  O442  1  0.13139281  0.62998716  0.37958046  1
  O  O443  1  0.12532405  0.63517101  0.88207643  1
  O  O444  1  0.63172892  0.13109001  0.37326035  1
  O  O445  1  0.62911627  0.13532838  0.87646474  1
  O  O446  1  0.63169302  0.62617265  0.38235342  1
  O  O447  1  0.63070914  0.63226870  0.87531143  1
