# generated using pymatgen
data_V3Zn3O8
_symmetry_space_group_name_H-M   'P 1'
_cell_length_a   17.08924391
_cell_length_b   17.08883628
_cell_length_c   17.08869780
_cell_angle_alpha   90.00261093
_cell_angle_beta   90.00342723
_cell_angle_gamma   90.01540960
_symmetry_Int_Tables_number   1
_chemical_formula_structural   V3Zn3O8
_chemical_formula_sum   'V96 Zn96 O256'
_cell_volume   4990.50264530
_cell_formula_units_Z   32
loop_
 _symmetry_equiv_pos_site_id
 _symmetry_equiv_pos_as_xyz
  1  'x, y, z'
loop_
 _atom_site_type_symbol
 _atom_site_label
 _atom_site_symmetry_multiplicity
 _atom_site_fract_x
 _atom_site_fract_y
 _atom_site_fract_z
 _atom_site_occupancy
  V  V0  1  0.37417883  0.87544795  -0.00002891  1
  V  V1  1  0.12511322  0.87500636  0.74963894  1
  V  V2  1  0.25042581  0.49964259  0.74960957  1
  V  V3  1  0.49999850  0.37598841  0.87509284  1
  V  V4  1  0.37515965  0.75017794  0.12512300  1
  V  V5  1  0.75129320  0.62460976  0.37427876  1
  V  V6  1  0.75008469  0.87597874  0.12488477  1
  V  V7  1  0.12553089  0.49969568  0.12531762  1
  V  V8  1  0.24938189  0.87508498  0.12528947  1
  V  V9  1  -0.00057611  0.12543921  0.62574198  1
  V  V10  1  0.37478813  0.50049837  0.37373158  1
  V  V11  1  0.87508828  0.49978116  0.37513413  1
  V  V12  1  0.25084675  0.24967872  0.49941304  1
  V  V13  1  0.62503290  0.50001188  0.62439412  1
  V  V14  1  0.12584344  0.62434543  0.49982477  1
  V  V15  1  -0.00074127  0.49766491  0.49905562  1
  V  V16  1  0.12442004  0.25032922  0.37452957  1
  V  V17  1  0.24963608  0.74969745  0.00018761  1
  V  V18  1  0.74871932  0.37730140  0.12462375  1
  V  V19  1  0.25073923  0.00084008  0.25134988  1
  V  V20  1  0.50034697  0.62559563  0.12407151  1
  V  V21  1  0.37412759  0.25016760  0.12400753  1
  V  V22  1  0.75100650  0.49858318  0.74999020  1
  V  V23  1  0.49866040  0.25059404  0.24868890  1
  V  V24  1  0.25019586  0.74930974  0.50028150  1
  V  V25  1  0.49931017  0.00064200  0.00041129  1
  V  V26  1  0.12415358  0.75029164  0.87553218  1
  V  V27  1  0.62520061  0.12555235  0.00030033  1
  V  V28  1  0.24964515  0.37475357  0.12370055  1
  V  V29  1  0.49981478  0.87505844  0.87523715  1
  V  V30  1  0.62538755  0.62658498  -0.00011722  1
  V  V31  1  0.74982247  0.00184501  0.25115591  1
  V  V32  1  0.37408353  0.62469026  0.74977580  1
  V  V33  1  0.12473226  0.62457134  0.00002359  1
  V  V34  1  0.62397786  0.00063805  0.12588169  1
  V  V35  1  -0.00008532  0.62384574  0.62579159  1
  V  V36  1  0.87532087  0.87674629  0.00004396  1
  V  V37  1  0.25028861  0.49979240  0.24877446  1
  V  V38  1  0.75092175  -0.00041500  0.74980333  1
  V  V39  1  0.50077503  0.75041271  0.75081702  1
  V  V40  1  0.37454051  0.37518147  0.49940401  1
  V  V41  1  0.62647978  0.24953720  0.37583951  1
  V  V42  1  0.37438272  0.00111202  0.87470118  1
  V  V43  1  0.75058683  0.87474071  0.62557810  1
  V  V44  1  0.87583891  0.75049218  0.12679523  1
  V  V45  1  0.74910129  0.24929185  -0.00016174  1
  V  V46  1  0.50099385  -0.00011703  0.50081034  1
  V  V47  1  0.00070464  0.12488814  0.12423942  1
  V  V48  1  -0.00058114  0.37477893  0.37487499  1
  V  V49  1  0.00007060  0.25010001  0.25118810  1
  V  V50  1  0.24939494  0.87501454  0.62570414  1
  V  V51  1  0.62453127  0.87603869  0.25047577  1
  V  V52  1  0.50103982  0.12435375  0.62510312  1
  V  V53  1  0.37593387  0.12500738  0.74985020  1
  V  V54  1  0.49975174  0.37473830  0.37331737  1
  V  V55  1  0.50101290  0.24995425  0.74921867  1
  V  V56  1  -0.00014537  0.24919727  0.74984804  1
  V  V57  1  0.62518534  0.50107325  0.12540249  1
  V  V58  1  0.37573654  0.87460365  0.50015461  1
  V  V59  1  0.49967934  0.87566024  0.37620117  1
  V  V60  1  0.12544095  0.12428372  0.50077167  1
  V  V61  1  -0.00030712  0.49914637  0.00023192  1
  V  V62  1  0.25051508  0.12515178  0.87377909  1
  V  V63  1  0.25073329  0.37416501  0.62383216  1
  V  V64  1  0.49783873  0.12606500  0.12528169  1
  V  V65  1  0.25054899  0.12445702  0.37515010  1
  V  V66  1  0.12360100  0.87385842  0.25074576  1
  V  V67  1  0.49949130  0.50056575  -0.00104820  1
  V  V68  1  0.37517291  0.74945285  0.62487696  1
  V  V69  1  0.12439719  0.12472354  -0.00028398  1
  V  V70  1  0.87549404  0.12477999  0.75065310  1
  V  V71  1  0.62598943  -0.00058163  0.62547678  1
  V  V72  1  0.50056765  0.50069007  0.49952582  1
  V  V73  1  0.12495572  0.37349729  0.74992778  1
  V  V74  1  0.87590551  0.37584875  -0.00068273  1
  V  V75  1  0.87604130  0.74824215  0.62602136  1
  V  V76  1  0.87488669  0.12537784  0.24995507  1
  V  V77  1  -0.00083946  0.62622912  0.12595767  1
  V  V78  1  0.12419801  0.74923224  0.37556225  1
  V  V79  1  0.62487520  0.37511718  0.74931899  1
  V  V80  1  0.62612690  0.75037345  0.37564299  1
  V  V81  1  0.00070576  -0.00104704  0.50060941  1
  V  V82  1  0.75046773  0.50143668  0.24957087  1
  V  V83  1  0.75050823  0.74972180  0.50081384  1
  V  V84  1  0.50008025  0.75078235  0.25020845  1
  V  V85  1  0.87477896  0.00041793  0.37633572  1
  V  V86  1  0.12481519  0.49929680  0.62429297  1
  V  V87  1  0.25040607  0.25067349  -0.00027538  1
  V  V88  1  0.12503168  0.24981226  0.87373613  1
  V  V89  1  0.24958768  0.62403606  0.87454021  1
  V  V90  1  0.87484528  -0.00039565  0.87515704  1
  V  V91  1  0.62480056  0.62415108  0.50009515  1
  V  V92  1  0.37498870  0.62479899  0.24989587  1
  V  V93  1  0.74973071  0.75077256  -0.00018164  1
  V  V94  1  0.75080080  0.62484243  0.87478624  1
  V  V95  1  -0.00031575  0.87460022  0.87561275  1
  Zn  Zn96  1  0.37451628  0.37677295  -0.00156034  1
  Zn  Zn97  1  -0.00197418  0.74971726  0.25161896  1
  Zn  Zn98  1  -0.00084223  0.74694381  0.75116061  1
  Zn  Zn99  1  0.37621405  0.00133183  0.37649580  1
  Zn  Zn100  1  0.87692152  0.62740879  0.25083930  1
  Zn  Zn101  1  0.87638148  0.87449190  0.49959109  1
  Zn  Zn102  1  0.75191848  0.24890111  0.50351982  1
  Zn  Zn103  1  0.87113416  0.25160385  0.62387908  1
  Zn  Zn104  1  0.12478385  -0.00091195  0.12316674  1
  Zn  Zn105  1  0.25055902  0.62369730  0.37470539  1
  Zn  Zn106  1  0.87421460  0.25041996  0.12668291  1
  Zn  Zn107  1  0.62458669  0.37575629  0.24890628  1
  Zn  Zn108  1  0.12640461  -0.00021648  0.62562798  1
  Zn  Zn109  1  0.00022901  0.37563908  0.87433732  1
  Zn  Zn110  1  0.74857283  0.12711403  0.37724708  1
  Zn  Zn111  1  0.37451071  0.50034176  0.87505532  1
  Zn  Zn112  1  0.75124305  0.37225322  0.62126947  1
  Zn  Zn113  1  0.62625061  0.87460096  0.75197604  1
  Zn  Zn114  1  0.00090207  0.00031908  0.00022419  1
  Zn  Zn115  1  -0.00075089  0.87412572  0.37566824  1
  Zn  Zn116  1  0.25041051  0.00108752  0.74824407  1
  Zn  Zn117  1  0.74926023  0.12409244  0.87476609  1
  Zn  Zn118  1  0.62522826  0.24751226  0.87427702  1
  Zn  Zn119  1  0.12469595  0.37528330  0.24948629  1
  Zn  Zn120  1  0.87763464  0.62270112  0.75154862  1
  Zn  Zn121  1  0.50019609  0.62494320  0.62549418  1
  Zn  Zn122  1  0.87785964  0.50031634  0.87392851  1
  Zn  Zn123  1  0.37421529  0.12519841  0.25134715  1
  Zn  Zn124  1  0.62695891  0.12554536  0.50021026  1
  Zn  Zn125  1  0.37657196  0.24935663  0.62367587  1
  Zn  Zn126  1  0.62567155  0.75231821  0.87429813  1
  Zn  Zn127  1  0.87196192  0.37110997  0.50149601  1
  Zn  Zn128  1  0.18605453  0.18798127  0.18738876  1
  Zn  Zn129  1  0.18767794  0.18703563  0.68576150  1
  Zn  Zn130  1  0.18771752  0.68614306  0.18763091  1
  Zn  Zn131  1  0.18704691  0.68784489  0.68758149  1
  Zn  Zn132  1  0.68631615  0.18896737  0.18870985  1
  Zn  Zn133  1  0.68788601  0.18693823  0.68755110  1
  Zn  Zn134  1  0.68878521  0.68774144  0.18800922  1
  Zn  Zn135  1  0.68670106  0.68605340  0.68765026  1
  Zn  Zn136  1  0.31212144  0.31270237  0.31058436  1
  Zn  Zn137  1  0.31449431  0.31144391  0.81124367  1
  Zn  Zn138  1  0.31175098  0.81277561  0.31415577  1
  Zn  Zn139  1  0.31207944  0.81226189  0.81262952  1
  Zn  Zn140  1  0.81263815  0.31470317  0.31227580  1
  Zn  Zn141  1  0.81357454  0.31144889  0.81331513  1
  Zn  Zn142  1  0.81258651  0.81418693  0.31236952  1
  Zn  Zn143  1  0.81311435  0.81236409  0.81133494  1
  Zn  Zn144  1  0.18702985  0.43646450  0.43567434  1
  Zn  Zn145  1  0.18685280  0.43682942  0.93675199  1
  Zn  Zn146  1  0.18820730  0.93675663  0.43739667  1
  Zn  Zn147  1  0.18666836  0.93985978  0.93680601  1
  Zn  Zn148  1  0.68842470  0.43407694  0.43710114  1
  Zn  Zn149  1  0.68615786  0.43804533  0.93679741  1
  Zn  Zn150  1  0.68851677  0.93739712  0.44006878  1
  Zn  Zn151  1  0.68690443  0.93826595  0.93638113  1
  Zn  Zn152  1  0.31114348  0.06348142  0.06329325  1
  Zn  Zn153  1  0.31390681  0.06083823  0.56398491  1
  Zn  Zn154  1  0.31375644  0.56124951  0.06141118  1
  Zn  Zn155  1  0.31284827  0.56286340  0.56258030  1
  Zn  Zn156  1  0.81357134  0.06277913  0.06300922  1
  Zn  Zn157  1  0.81089685  0.06770592  0.56240357  1
  Zn  Zn158  1  0.81372881  0.56337143  0.06270083  1
  Zn  Zn159  1  0.81308734  0.56088925  0.56225738  1
  Zn  Zn160  1  0.43653109  0.43612633  0.18586113  1
  Zn  Zn161  1  0.43771674  0.43792829  0.68629898  1
  Zn  Zn162  1  0.43634993  0.93767831  0.18779065  1
  Zn  Zn163  1  0.43755471  0.93769073  0.68760853  1
  Zn  Zn164  1  0.93655564  0.43800407  0.18847930  1
  Zn  Zn165  1  0.93611499  0.43451945  0.68639735  1
  Zn  Zn166  1  0.93762597  0.93894047  0.18797666  1
  Zn  Zn167  1  0.93786965  0.93632651  0.68767010  1
  Zn  Zn168  1  0.06251143  0.06310288  0.31326562  1
  Zn  Zn169  1  0.06164162  0.06094816  0.81325203  1
  Zn  Zn170  1  0.06175201  0.56278370  0.31091648  1
  Zn  Zn171  1  0.06207869  0.56072921  0.81249271  1
  Zn  Zn172  1  0.56074796  0.06487085  0.31295933  1
  Zn  Zn173  1  0.56455009  0.06242777  0.81246280  1
  Zn  Zn174  1  0.56351175  0.56263246  0.31219625  1
  Zn  Zn175  1  0.56376971  0.56310980  0.81242681  1
  Zn  Zn176  1  0.43788962  0.18631033  0.43689220  1
  Zn  Zn177  1  0.43732681  0.18934813  0.93702017  1
  Zn  Zn178  1  0.43823546  0.68682469  0.43716228  1
  Zn  Zn179  1  0.43623772  0.68738086  0.93587046  1
  Zn  Zn180  1  0.93650166  0.18748406  0.43889166  1
  Zn  Zn181  1  0.93694646  0.18839690  0.93627916  1
  Zn  Zn182  1  0.93822566  0.68487979  0.43936686  1
  Zn  Zn183  1  0.93678774  0.68839076  0.93962672  1
  Zn  Zn184  1  0.06312147  0.31150402  0.06295610  1
  Zn  Zn185  1  0.06059005  0.31131466  0.56227794  1
  Zn  Zn186  1  0.06095421  0.81201809  0.06293437  1
  Zn  Zn187  1  0.06174800  0.81240846  0.56292983  1
  Zn  Zn188  1  0.56294149  0.31359347  0.06212010  1
  Zn  Zn189  1  0.56401351  0.31320511  0.56234208  1
  Zn  Zn190  1  0.56321454  0.81292377  0.06164875  1
  Zn  Zn191  1  0.56354754  0.81313662  0.56440723  1
  O  O192  1  0.11600530  0.12457418  0.11908531  1
  O  O193  1  0.11875428  0.12162475  0.61838364  1
  O  O194  1  0.12040538  0.62032352  0.11820726  1
  O  O195  1  0.12057456  0.61933776  0.61938317  1
  O  O196  1  0.61809747  0.11910174  0.12029519  1
  O  O197  1  0.61716051  0.11636792  0.62495505  1
  O  O198  1  0.61928033  0.62152008  0.11950688  1
  O  O199  1  0.62333234  0.61861828  0.61743581  1
  O  O200  1  0.37979090  0.38118784  0.37988931  1
  O  O201  1  0.38808648  0.37744315  0.87474711  1
  O  O202  1  0.38205256  0.87468398  0.38235227  1
  O  O203  1  0.37912590  0.88025261  0.88161134  1
  O  O204  1  0.88298077  0.38306455  0.37528013  1
  O  O205  1  0.87618700  0.37686055  0.88909547  1
  O  O206  1  0.87797795  0.88752634  0.37614579  1
  O  O207  1  0.88020377  0.87882661  0.88049447  1
  O  O208  1  0.25054093  0.00477426  0.36670466  1
  O  O209  1  0.25729775  0.00731686  0.87365412  1
  O  O210  1  0.25690331  0.50084138  0.36784412  1
  O  O211  1  0.24983501  0.50637489  0.86763893  1
  O  O212  1  0.75916434  -0.00019862  0.36965220  1
  O  O213  1  0.75752802  -0.00038442  0.86859252  1
  O  O214  1  0.75452565  0.50589528  0.36931420  1
  O  O215  1  0.74921185  0.50935294  0.86784902  1
  O  O216  1  0.24520891  0.49520812  0.12868532  1
  O  O217  1  0.24392958  0.49418736  0.62944790  1
  O  O218  1  0.24794069  0.99391420  0.13443152  1
  O  O219  1  0.24672501  0.99077736  0.62759381  1
  O  O220  1  0.74416063  0.49736138  0.12901426  1
  O  O221  1  0.74378966  0.50158347  0.63678008  1
  O  O222  1  0.74400999  0.99500807  0.13079900  1
  O  O223  1  0.74646991  0.99418113  0.63010447  1
  O  O224  1  0.00156983  0.36819248  0.25574067  1
  O  O225  1  0.00803220  0.36849787  0.75166892  1
  O  O226  1  0.01325532  0.87482556  0.25168845  1
  O  O227  1  0.00946797  0.87153462  0.75556277  1
  O  O228  1  0.50010501  0.36892660  0.25549694  1
  O  O229  1  0.50484993  0.37152821  0.75682245  1
  O  O230  1  0.50500302  0.86997483  0.25482329  1
  O  O231  1  0.49862806  0.86498307  0.75635404  1
  O  O232  1  0.49670068  0.13101020  0.24182148  1
  O  O233  1  0.49539436  0.12995525  0.74571693  1
  O  O234  1  0.49540761  0.63157819  0.24379879  1
  O  O235  1  0.49392302  0.63450660  0.75031986  1
  O  O236  1  0.99595947  0.12947367  0.24295914  1
  O  O237  1  0.99606990  0.12891779  0.74524804  1
  O  O238  1  0.99854385  0.62864590  0.24107306  1
  O  O239  1  0.99835932  0.62629242  0.74222051  1
  O  O240  1  0.36762083  0.25180156  0.00593798  1
  O  O241  1  0.36862566  0.25755668  0.49986071  1
  O  O242  1  0.36951229  0.75530095  0.00570065  1
  O  O243  1  0.37046439  0.75448305  0.50490973  1
  O  O244  1  0.86644755  0.25809573  0.00234881  1
  O  O245  1  0.87286266  0.25171854  0.50315553  1
  O  O246  1  0.86832511  0.75734629  0.00650811  1
  O  O247  1  0.86971191  0.75003188  0.50958099  1
  O  O248  1  0.13071557  0.24375427  0.49404595  1
  O  O249  1  0.13072895  0.24427286  0.99369553  1
  O  O250  1  0.12993756  0.74554486  0.49337114  1
  O  O251  1  0.13095181  0.74463974  0.99561420  1
  O  O252  1  0.62182028  0.24928254  0.48568411  1
  O  O253  1  0.63399089  0.24465639  1.00036448  1
  O  O254  1  0.63033759  0.74489973  0.49493577  1
  O  O255  1  0.63201729  0.74424634  0.99923100  1
  O  O256  1  0.49468481  0.24559012  0.12835617  1
  O  O257  1  0.49984543  0.24345781  0.63158963  1
  O  O258  1  0.49482045  0.74584921  0.13038515  1
  O  O259  1  0.49372430  0.74949888  0.63453834  1
  O  O260  1  0.99952782  0.23951750  0.13121435  1
  O  O261  1  1.00111804  0.24158354  0.63321649  1
  O  O262  1  0.99343306  0.74396684  0.12598565  1
  O  O263  1  0.99111855  0.74326995  0.62387611  1
  O  O264  1  0.00578437  0.25413318  0.36985900  1
  O  O265  1  0.00800049  0.25116236  0.86833155  1
  O  O266  1  0.01222912  0.75191910  0.37563710  1
  O  O267  1  0.00640218  0.75583951  0.87448610  1
  O  O268  1  0.50519128  0.25529935  0.36838513  1
  O  O269  1  0.50172220  0.25993137  0.86967060  1
  O  O270  1  0.50661833  0.75553488  0.36944059  1
  O  O271  1  0.49957650  0.75576199  0.86650950  1
  O  O272  1  0.24533443  0.12936347  0.49550532  1
  O  O273  1  0.24453267  0.13107221  0.99405853  1
  O  O274  1  0.24344457  0.63156585  0.49850669  1
  O  O275  1  0.24453823  0.63040284  0.99548359  1
  O  O276  1  0.74434842  0.12899030  0.49437596  1
  O  O277  1  0.74513531  0.13446407  1.00212594  1
  O  O278  1  0.74396016  0.62997834  0.49399224  1
  O  O279  1  0.74527036  0.63000669  0.99288503  1
  O  O280  1  0.25083075  0.36813465  0.00524435  1
  O  O281  1  0.25480366  0.36976079  0.50417331  1
  O  O282  1  0.25456946  0.86957448  0.00492351  1
  O  O283  1  0.25503661  0.86862038  0.50538710  1
  O  O284  1  0.75587687  0.36955791  0.00423460  1
  O  O285  1  0.75246684  0.37032978  0.50214016  1
  O  O286  1  0.75479721  0.87074220  0.00596581  1
  O  O287  1  0.75325226  0.86727047  0.50717149  1
  O  O288  1  0.13224308  0.49976552  0.24246822  1
  O  O289  1  0.13112369  0.49390342  0.74355470  1
  O  O290  1  0.13442116  0.99035213  0.25120904  1
  O  O291  1  0.12657225  0.98602803  0.74992763  1
  O  O292  1  0.63148830  0.50004193  0.24255490  1
  O  O293  1  0.63217048  0.49615818  0.74488370  1
  O  O294  1  0.62899428  0.99505083  0.24500883  1
  O  O295  1  0.63222031  0.99760579  0.74352258  1
  O  O296  1  0.36127236  -0.00114555  0.25209601  1
  O  O297  1  0.37460405  0.00644479  0.75763888  1
  O  O298  1  0.37068945  0.50599264  0.25382543  1
  O  O299  1  0.36775157  0.50667040  0.75013432  1
  O  O300  1  0.87035374  0.00441485  0.25803965  1
  O  O301  1  0.87084718  0.00434194  0.75553639  1
  O  O302  1  0.86813641  0.50346345  0.25643089  1
  O  O303  1  0.86338697  0.50144672  0.75310801  1
  O  O304  1  0.11827497  0.36778790  0.37266393  1
  O  O305  1  0.12500220  0.36721849  0.86754055  1
  O  O306  1  0.12563127  0.86591887  0.36710804  1
  O  O307  1  0.12094824  0.86966624  0.86865859  1
  O  O308  1  0.61656546  0.36741867  0.37105299  1
  O  O309  1  0.61371981  0.37499470  0.86933939  1
  O  O310  1  0.62019867  0.86941785  0.36968804  1
  O  O311  1  0.61563609  0.87291739  0.87335404  1
  O  O312  1  0.38056310  0.13175463  0.12631263  1
  O  O313  1  0.38264816  0.12580630  0.63202285  1
  O  O314  1  0.38111412  0.63133539  0.12960286  1
  O  O315  1  0.37623781  0.63219068  0.63150242  1
  O  O316  1  0.88489916  0.12596580  0.13087582  1
  O  O317  1  0.88339810  0.12466753  0.63424051  1
  O  O318  1  0.88116741  0.63295607  0.12488802  1
  O  O319  1  0.88061053  0.63335446  0.62506941  1
  O  O320  1  0.25373579  0.25454844  0.11932271  1
  O  O321  1  0.25143798  0.25656089  0.61685329  1
  O  O322  1  0.25572075  0.75499294  0.11973023  1
  O  O323  1  0.25534891  0.75521668  0.61939840  1
  O  O324  1  0.75022868  0.25685988  0.11510429  1
  O  O325  1  0.75148870  0.25381294  0.62458815  1
  O  O326  1  0.75464305  0.75684914  0.11987238  1
  O  O327  1  0.75746801  0.75269242  0.62064535  1
  O  O328  1  0.24444579  0.24478099  0.37978901  1
  O  O329  1  0.24523115  0.24448628  0.87952358  1
  O  O330  1  0.23999487  0.74870498  0.38128699  1
  O  O331  1  0.24436471  0.74457600  0.88145515  1
  O  O332  1  0.73612105  0.25008724  0.37018460  1
  O  O333  1  0.74773789  0.24926571  0.88919542  1
  O  O334  1  0.74504334  0.74593278  0.38053600  1
  O  O335  1  0.74928905  0.74155321  0.88023649  1
  O  O336  1  0.00461460  0.12627307  0.00943858  1
  O  O337  1  0.00593501  0.11610830  0.50484636  1
  O  O338  1  0.00591620  0.61971958  0.00558640  1
  O  O339  1  0.00750657  0.61766755  0.50588800  1
  O  O340  1  0.50443320  0.11956617  0.00569874  1
  O  O341  1  0.50076909  0.11727801  0.50715928  1
  O  O342  1  0.50500359  0.62180522  0.00476679  1
  O  O343  1  0.50697513  0.61868819  0.50045184  1
  O  O344  1  0.49400971  0.38163369  0.49347793  1
  O  O345  1  0.50071446  0.38125807  0.99031910  1
  O  O346  1  0.49525091  0.87883616  0.49544449  1
  O  O347  1  0.49332327  0.88064334  0.99644071  1
  O  O348  1  1.00121701  0.38210446  0.49209344  1
  O  O349  1  0.99091895  0.37910056  1.00116100  1
  O  O350  1  0.99926308  0.88687613  0.49843170  1
  O  O351  1  0.99334758  0.87669973  0.99444112  1
  O  O352  1  0.49470136  0.49516584  0.37916048  1
  O  O353  1  0.50014959  0.49215911  0.87964530  1
  O  O354  1  0.49934371  0.99255210  0.38094164  1
  O  O355  1  0.49390072  0.99519997  0.88169072  1
  O  O356  1  0.99582410  0.49532850  0.37941976  1
  O  O357  1  0.99828663  0.49691308  0.88415625  1
  O  O358  1  0.99232521  1.00023208  0.38345389  1
  O  O359  1  0.99257882  0.99217758  0.87677309  1
  O  O360  1  0.00256869  0.01309764  0.12520302  1
  O  O361  1  0.00104105  0.00482361  0.61496371  1
  O  O362  1  0.00577801  0.50565489  0.11969750  1
  O  O363  1  0.00665617  0.50435156  0.61949515  1
  O  O364  1  0.50408580  0.00458706  0.11995032  1
  O  O365  1  0.50585303  0.00352700  0.62043409  1
  O  O366  1  0.50479761  0.50686919  0.11967010  1
  O  O367  1  0.50648960  0.50227448  0.61762225  1
  O  O368  1  0.24832762  0.38211337  0.24185609  1
  O  O369  1  0.24529973  0.37927766  0.74388165  1
  O  O370  1  0.24237351  0.88110233  0.24628598  1
  O  O371  1  0.24085814  0.87441513  0.74516282  1
  O  O372  1  0.74893188  0.38345622  0.24145601  1
  O  O373  1  0.74310885  0.38678912  0.75632577  1
  O  O374  1  0.74326632  0.88159458  0.24436066  1
  O  O375  1  0.74955588  0.88117194  0.74321963  1
  O  O376  1  0.24800546  0.11489369  0.25514302  1
  O  O377  1  0.25660719  0.12439847  0.75613407  1
  O  O378  1  0.25781163  0.61852634  0.25024013  1
  O  O379  1  0.25374454  0.61973432  0.75482030  1
  O  O380  1  0.75663206  0.11828211  0.25025814  1
  O  O381  1  0.75742336  0.11696335  0.75262043  1
  O  O382  1  0.75133637  0.61975267  0.25698390  1
  O  O383  1  0.74894422  0.61615053  0.75903561  1
  O  O384  1  0.36642378  0.12164224  0.37174127  1
  O  O385  1  0.37036941  0.12021936  0.87022413  1
  O  O386  1  0.37437788  0.61901867  0.36752427  1
  O  O387  1  0.36664289  0.62433064  0.86793494  1
  O  O388  1  0.87558039  0.11342070  0.36806697  1
  O  O389  1  0.87378411  0.11728313  0.86923386  1
  O  O390  1  0.86848855  0.61908576  0.37423541  1
  O  O391  1  0.86231975  0.62385108  0.87544598  1
  O  O392  1  0.13141570  0.38193548  0.12568224  1
  O  O393  1  0.13087285  0.38010161  0.62978627  1
  O  O394  1  0.13105960  0.87417516  0.13489976  1
  O  O395  1  0.13001532  0.87355164  0.63456085  1
  O  O396  1  0.63084617  0.38397533  0.12501786  1
  O  O397  1  0.62547089  0.38352467  0.63303496  1
  O  O398  1  0.62967508  0.88098066  0.13059158  1
  O  O399  1  0.63287567  0.88081821  0.62765426  1
  O  O400  1  0.11832286  0.25076554  0.25741315  1
  O  O401  1  0.12050845  0.25425544  0.75473771  1
  O  O402  1  0.12718231  0.75821288  0.25853983  1
  O  O403  1  0.12456228  0.75954866  0.75655556  1
  O  O404  1  0.61650103  0.25280259  0.25658312  1
  O  O405  1  0.61839442  0.25698058  0.75343015  1
  O  O406  1  0.61984119  0.75622714  0.25519288  1
  O  O407  1  0.61305298  0.75124942  0.75135905  1
  O  O408  1  0.38046308  0.24831375  0.24201048  1
  O  O409  1  0.38300465  0.24284255  0.74760647  1
  O  O410  1  0.38027665  0.74606254  0.24467082  1
  O  O411  1  0.38160089  0.74510682  0.74517328  1
  O  O412  1  0.88169632  0.24322508  0.24874976  1
  O  O413  1  0.88298269  0.24217888  0.75254962  1
  O  O414  1  0.87738490  0.75003038  0.24278943  1
  O  O415  1  0.87588485  0.74624724  0.73739120  1
  O  O416  1  0.37994508  0.49551936  0.49373566  1
  O  O417  1  0.38359579  0.49813854  0.99620106  1
  O  O418  1  0.38245398  0.99122607  0.49948443  1
  O  O419  1  0.37979858  0.99487783  0.99554204  1
  O  O420  1  0.88313883  0.50041290  0.49229282  1
  O  O421  1  0.88012343  0.49074235  1.00001215  1
  O  O422  1  0.88407736  1.00123620  0.49199983  1
  O  O423  1  0.87600709  0.99345100  0.99414935  1
  O  O424  1  0.12215500  0.00834252  0.00272027  1
  O  O425  1  0.11563172  0.00507680  0.49887958  1
  O  O426  1  0.12023418  0.50565319  0.00560276  1
  O  O427  1  0.12059146  0.50485970  0.50496229  1
  O  O428  1  0.61910164  0.00469490  0.00717653  1
  O  O429  1  0.61774153  -0.00065795  0.50741731  1
  O  O430  1  0.61976149  0.50745554  0.00587029  1
  O  O431  1  0.61971316  0.50529168  0.50383680  1
  O  O432  1  0.36778790  0.36821732  0.12133734  1
  O  O433  1  0.36828715  0.37419807  0.61726562  1
  O  O434  1  0.36956847  0.86929704  0.11948209  1
  O  O435  1  0.36967082  0.86834761  0.61982411  1
  O  O436  1  0.86865926  0.37404968  0.11426614  1
  O  O437  1  0.87083047  0.37146845  0.62169939  1
  O  O438  1  0.86912687  0.87188275  0.12056008  1
  O  O439  1  0.87048004  0.86410152  0.62353475  1
  O  O440  1  0.13046517  0.13050444  0.38129005  1
  O  O441  1  0.13055863  0.13015862  0.87930986  1
  O  O442  1  0.12661321  0.63397290  0.38045101  1
  O  O443  1  0.13030211  0.63043940  0.88068043  1
  O  O444  1  0.62437118  0.13664055  0.37489888  1
  O  O445  1  0.62790303  0.12633956  0.88503794  1
  O  O446  1  0.63067086  0.63149814  0.38005447  1
  O  O447  1  0.63556588  0.62696407  0.88128379  1
