# generated using pymatgen
data_V3Zn3O8
_symmetry_space_group_name_H-M   'P 1'
_cell_length_a   17.08994767
_cell_length_b   17.08992419
_cell_length_c   17.08992345
_cell_angle_alpha   89.99683264
_cell_angle_beta   90.00628019
_cell_angle_gamma   90.01248004
_symmetry_Int_Tables_number   1
_chemical_formula_structural   V3Zn3O8
_chemical_formula_sum   'V96 Zn96 O256'
_cell_volume   4991.38388976
_cell_formula_units_Z   32
loop_
 _symmetry_equiv_pos_site_id
 _symmetry_equiv_pos_as_xyz
  1  'x, y, z'
loop_
 _atom_site_type_symbol
 _atom_site_label
 _atom_site_symmetry_multiplicity
 _atom_site_fract_x
 _atom_site_fract_y
 _atom_site_fract_z
 _atom_site_occupancy
  V  V0  1  0.00097166  0.87408592  0.37664275  1
  V  V1  1  0.74894111  0.87807857  0.12772378  1
  V  V2  1  0.49991548  0.25121881  0.75028984  1
  V  V3  1  0.49863016  0.24926413  0.24898159  1
  V  V4  1  -0.00011820  0.87546960  0.87541722  1
  V  V5  1  0.75090633  0.50128676  0.74921984  1
  V  V6  1  0.87621605  0.50053581  0.87582582  1
  V  V7  1  0.62519162  0.25083421  0.87603804  1
  V  V8  1  0.37383505  0.24926631  0.12430909  1
  V  V9  1  0.24846043  0.37509568  0.12483017  1
  V  V10  1  0.62462916  0.74970272  0.37530237  1
  V  V11  1  0.62421345  0.24981210  0.37544764  1
  V  V12  1  0.50074470  0.62466072  0.12442293  1
  V  V13  1  0.50026096  0.37578861  0.87416963  1
  V  V14  1  0.00105252  0.12412956  0.62415913  1
  V  V15  1  0.25057757  0.87449002  0.62408727  1
  V  V16  1  0.87428660  0.00062947  0.37367438  1
  V  V17  1  0.25079705  0.00000953  0.75056058  1
  V  V18  1  0.62483322  0.00074567  0.62446675  1
  V  V19  1  0.24961142  0.49961220  0.74986059  1
  V  V20  1  -0.00032380  0.37394426  0.37486198  1
  V  V21  1  0.62638608  0.87576401  0.24976099  1
  V  V22  1  -0.00005010  0.49992892  0.50053281  1
  V  V23  1  0.25055609  0.74909418  -0.00109960  1
  V  V24  1  0.62517582  0.49888430  0.12618457  1
  V  V25  1  0.87628820  0.62633266  0.74999643  1
  V  V26  1  0.74966203  0.62418914  0.37536628  1
  V  V27  1  0.12507418  0.62430172  0.50033420  1
  V  V28  1  0.24728598  0.12639624  0.37591952  1
  V  V29  1  0.37448588  0.12416727  0.75041908  1
  V  V30  1  0.87568934  0.87524433  0.00103882  1
  V  V31  1  0.25034534  -0.00119817  0.24847854  1
  V  V32  1  0.75024119  0.87499921  0.62535156  1
  V  V33  1  0.12455587  0.87489016  0.75075894  1
  V  V34  1  0.25020456  0.62487418  0.87448905  1
  V  V35  1  0.37400458  0.87428697  0.50016917  1
  V  V36  1  0.37598963  -0.00071456  0.87466404  1
  V  V37  1  0.25024385  0.37333893  0.62335670  1
  V  V38  1  0.37606030  0.12510387  0.24784600  1
  V  V39  1  0.49985749  0.49995846  -0.00121332  1
  V  V40  1  0.12464027  0.37456053  0.75060173  1
  V  V41  1  0.00048094  0.74929380  0.25149858  1
  V  V42  1  0.50076541  0.00002277  0.49917287  1
  V  V43  1  0.87398501  0.25088564  0.12393695  1
  V  V44  1  0.00016914  0.75061798  0.75039326  1
  V  V45  1  0.87367643  0.50043306  0.37469374  1
  V  V46  1  0.25093170  0.87478350  0.12439380  1
  V  V47  1  0.87621434  0.74900344  0.12726915  1
  V  V48  1  0.74926933  0.00121055  0.74990604  1
  V  V49  1  0.49964674  0.74985668  0.74890556  1
  V  V50  1  0.49764746  0.37491567  0.37576529  1
  V  V51  1  0.49925452  0.62495451  0.62469727  1
  V  V52  1  0.37691614  0.87520203  -0.00147606  1
  V  V53  1  0.74981932  0.37632809  0.62605590  1
  V  V54  1  0.75074790  0.62630500  0.87543384  1
  V  V55  1  0.37575449  0.74957283  0.12371029  1
  V  V56  1  0.24902202  0.25016807  0.00040823  1
  V  V57  1  0.50040258  0.87516724  0.87452364  1
  V  V58  1  0.37525113  -0.00008781  0.37343064  1
  V  V59  1  0.62420573  0.87489084  0.75014014  1
  V  V60  1  0.12493784  0.12530683  -0.00069127  1
  V  V61  1  0.74992682  0.75008432  0.50117513  1
  V  V62  1  0.24893412  0.50015978  0.24926814  1
  V  V63  1  0.12530586  0.75001677  0.37612155  1
  V  V64  1  0.12435191  0.00042942  0.62524004  1
  V  V65  1  0.24950570  0.62457095  0.37497897  1
  V  V66  1  0.12575196  0.62510742  0.00013948  1
  V  V67  1  0.12558181  -0.00170274  0.12456829  1
  V  V68  1  0.75051445  0.74960083  0.00071233  1
  V  V69  1  0.37425911  0.62395308  0.25006962  1
  V  V70  1  0.50030038  0.74938965  0.24960697  1
  V  V71  1  0.87477822  0.37538666  -0.00030810  1
  V  V72  1  0.87471416  0.62446928  0.25146109  1
  V  V73  1  0.62654507  0.62521562  -0.00023990  1
  V  V74  1  0.62570046  0.12597689  0.49935567  1
  V  V75  1  0.37613938  0.49945627  0.87512336  1
  V  V76  1  -0.00070813  0.12447414  0.12474699  1
  V  V77  1  -0.00040388  -0.00086920  0.00002667  1
  V  V78  1  0.62366593  0.62488944  0.50022755  1
  V  V79  1  0.00131331  0.25057377  0.25090303  1
  V  V80  1  0.12527880  0.24981379  0.87561441  1
  V  V81  1  0.37433816  0.25035897  0.62440989  1
  V  V82  1  0.74895275  0.12622352  0.87603575  1
  V  V83  1  0.12471160  0.50058619  0.12495304  1
  V  V84  1  0.87459146  0.12590001  0.74967816  1
  V  V85  1  0.00049299  0.25020357  0.75023272  1
  V  V86  1  0.49775404  0.49901710  0.49953783  1
  V  V87  1  0.50021389  0.87482511  0.37447284  1
  V  V88  1  0.74926057  0.25055130  0.49993569  1
  V  V89  1  0.87433919  0.37448396  0.49941292  1
  V  V90  1  0.87517925  0.87475618  0.50099134  1
  V  V91  1  0.49974867  0.12574699  0.62483025  1
  V  V92  1  0.00034567  0.50190569  0.00043890  1
  V  V93  1  0.00032146  0.62503470  0.62546762  1
  V  V94  1  0.37543862  0.62547715  0.74888842  1
  V  V95  1  0.62396380  0.37560748  0.24916619  1
  Zn  Zn96  1  0.87583539  0.24936544  0.62422507  1
  Zn  Zn97  1  0.12447012  0.25034532  0.37762810  1
  Zn  Zn98  1  0.00193567  -0.00031731  0.49930738  1
  Zn  Zn99  1  0.75149260  0.12561623  0.37419040  1
  Zn  Zn100  1  0.74978432  0.49824131  0.24976441  1
  Zn  Zn101  1  0.62421403  0.50095730  0.62723355  1
  Zn  Zn102  1  0.74829064  0.25039053  0.00158058  1
  Zn  Zn103  1  0.62562899  0.75053091  0.87491175  1
  Zn  Zn104  1  0.12563876  0.74983124  0.87521993  1
  Zn  Zn105  1  0.62514800  0.37801770  0.74984501  1
  Zn  Zn106  1  0.37334549  0.37248140  0.49770651  1
  Zn  Zn107  1  0.37315111  0.74954617  0.62306421  1
  Zn  Zn108  1  0.74889833  0.37599274  0.12658156  1
  Zn  Zn109  1  0.12478289  0.49942395  0.62545923  1
  Zn  Zn110  1  0.37198213  0.49761377  0.37418865  1
  Zn  Zn111  1  0.25100905  0.12442789  0.87577199  1
  Zn  Zn112  1  0.62284305  0.00539151  0.12580476  1
  Zn  Zn113  1  0.37446570  0.37441622  -0.00023242  1
  Zn  Zn114  1  0.12590800  0.12514245  0.49955618  1
  Zn  Zn115  1  0.74865490  0.00574105  0.25026569  1
  Zn  Zn116  1  0.50229092  0.00202959  0.00292063  1
  Zn  Zn117  1  0.87485216  0.75108978  0.62568983  1
  Zn  Zn118  1  0.00029708  0.62554979  0.12622076  1
  Zn  Zn119  1  0.12630835  0.87377419  0.25122478  1
  Zn  Zn120  1  0.12487576  0.37597907  0.25170283  1
  Zn  Zn121  1  0.00040001  0.37575498  0.87300940  1
  Zn  Zn122  1  0.50394738  0.12506952  0.12154672  1
  Zn  Zn123  1  0.87382147  0.00059712  0.87602536  1
  Zn  Zn124  1  0.25077607  0.74859236  0.50117819  1
  Zn  Zn125  1  0.87360252  0.12422823  0.25094626  1
  Zn  Zn126  1  0.62422252  0.12158940  0.00290207  1
  Zn  Zn127  1  0.24859840  0.24995122  0.49803833  1
  Zn  Zn128  1  0.18704781  0.18618237  0.18747816  1
  Zn  Zn129  1  0.18737799  0.18750098  0.68909571  1
  Zn  Zn130  1  0.18694721  0.68734997  0.18763920  1
  Zn  Zn131  1  0.18625145  0.68907887  0.68641745  1
  Zn  Zn132  1  0.68902513  0.18668954  0.19023466  1
  Zn  Zn133  1  0.68670016  0.18990994  0.68798607  1
  Zn  Zn134  1  0.68858592  0.68737148  0.18805112  1
  Zn  Zn135  1  0.68596754  0.68808289  0.68700764  1
  Zn  Zn136  1  0.31264325  0.31278486  0.31012269  1
  Zn  Zn137  1  0.31242150  0.31196238  0.81299723  1
  Zn  Zn138  1  0.31192600  0.81110600  0.31254367  1
  Zn  Zn139  1  0.31327423  0.81186480  0.81127972  1
  Zn  Zn140  1  0.81071509  0.31335112  0.31165835  1
  Zn  Zn141  1  0.81395224  0.31255591  0.81111461  1
  Zn  Zn142  1  0.81356611  0.81205374  0.31401095  1
  Zn  Zn143  1  0.81374278  0.81273597  0.81373678  1
  Zn  Zn144  1  0.18448784  0.43751275  0.43671862  1
  Zn  Zn145  1  0.18748529  0.43677606  0.93765718  1
  Zn  Zn146  1  0.18692982  0.93873034  0.43907065  1
  Zn  Zn147  1  0.18811296  0.93718515  0.93693951  1
  Zn  Zn148  1  0.68496612  0.43753000  0.43708788  1
  Zn  Zn149  1  0.68865102  0.43810757  0.93740860  1
  Zn  Zn150  1  0.68924036  0.93739062  0.43725835  1
  Zn  Zn151  1  0.68496449  0.93854106  0.93897772  1
  Zn  Zn152  1  0.31396429  0.06269012  0.06068622  1
  Zn  Zn153  1  0.31289100  0.06097577  0.56195802  1
  Zn  Zn154  1  0.31251915  0.56158714  0.06204049  1
  Zn  Zn155  1  0.31253029  0.56135414  0.56263498  1
  Zn  Zn156  1  0.81237087  0.06311030  0.06105641  1
  Zn  Zn157  1  0.81378048  0.06229277  0.56099224  1
  Zn  Zn158  1  0.81180526  0.56202128  0.06544039  1
  Zn  Zn159  1  0.81430389  0.56295429  0.56283690  1
  Zn  Zn160  1  0.43578482  0.43636541  0.18671093  1
  Zn  Zn161  1  0.43662299  0.43742367  0.68746329  1
  Zn  Zn162  1  0.43902378  0.93878085  0.18569261  1
  Zn  Zn163  1  0.43690504  0.93702319  0.68693971  1
  Zn  Zn164  1  0.93854001  0.43834405  0.18758386  1
  Zn  Zn165  1  0.93704647  0.43824025  0.68670775  1
  Zn  Zn166  1  0.93852605  0.93544811  0.19011686  1
  Zn  Zn167  1  0.93580400  0.93932527  0.68931051  1
  Zn  Zn168  1  0.06150640  0.06081950  0.31013671  1
  Zn  Zn169  1  0.06288145  0.06203356  0.81305352  1
  Zn  Zn170  1  0.06223892  0.56250810  0.31303424  1
  Zn  Zn171  1  0.06366232  0.56209681  0.81328870  1
  Zn  Zn172  1  0.56402482  0.06288606  0.30996228  1
  Zn  Zn173  1  0.56147003  0.06234796  0.81340743  1
  Zn  Zn174  1  0.56141011  0.56115182  0.31331849  1
  Zn  Zn175  1  0.56467303  0.56320911  0.81207516  1
  Zn  Zn176  1  0.43514297  0.18805358  0.43765478  1
  Zn  Zn177  1  0.43726355  0.18602812  0.93920292  1
  Zn  Zn178  1  0.43498015  0.68756331  0.43698125  1
  Zn  Zn179  1  0.43868711  0.68788351  0.93530092  1
  Zn  Zn180  1  0.93625811  0.18710884  0.43937007  1
  Zn  Zn181  1  0.93842733  0.18765595  0.93622985  1
  Zn  Zn182  1  0.93718125  0.68789911  0.43865421  1
  Zn  Zn183  1  0.93882230  0.68905315  0.93813966  1
  Zn  Zn184  1  0.06191633  0.31439698  0.06232467  1
  Zn  Zn185  1  0.06561214  0.30923518  0.56067266  1
  Zn  Zn186  1  0.06347499  0.81130952  0.06320390  1
  Zn  Zn187  1  0.06244772  0.81152447  0.56269387  1
  Zn  Zn188  1  0.56013100  0.31235041  0.06204236  1
  Zn  Zn189  1  0.56384250  0.31378107  0.56281959  1
  Zn  Zn190  1  0.56398229  0.81326642  0.06116131  1
  Zn  Zn191  1  0.56157925  0.81204834  0.56324681  1
  O  O192  1  0.11889963  0.11846913  0.11906658  1
  O  O193  1  0.11552789  0.11865032  0.62814514  1
  O  O194  1  0.12453294  0.61854103  0.11751679  1
  O  O195  1  0.11849943  0.62235783  0.61876850  1
  O  O196  1  0.62504690  0.12512808  0.12165884  1
  O  O197  1  0.61911737  0.12045246  0.61998367  1
  O  O198  1  0.61947826  0.62020496  0.12003692  1
  O  O199  1  0.61799115  0.62329780  0.61725767  1
  O  O200  1  0.38182713  0.37712513  0.37738077  1
  O  O201  1  0.38186191  0.38191470  0.87556910  1
  O  O202  1  0.38105507  0.88048976  0.37872849  1
  O  O203  1  0.38063651  0.87945204  0.87904165  1
  O  O204  1  0.87953595  0.38062272  0.38035139  1
  O  O205  1  0.87650348  0.38104952  0.88361575  1
  O  O206  1  0.88043224  0.88103996  0.38108114  1
  O  O207  1  0.88095144  0.87746261  0.88327181  1
  O  O208  1  0.25590785  0.00615712  0.36855076  1
  O  O209  1  0.25737915  0.00035025  0.86786543  1
  O  O210  1  0.24995160  0.50621369  0.36762696  1
  O  O211  1  0.25620548  0.50502433  0.86965265  1
  O  O212  1  0.76208683  -0.00067576  0.37394418  1
  O  O213  1  0.74889261  0.01106470  0.86836489  1
  O  O214  1  0.75551103  0.50660350  0.37518325  1
  O  O215  1  0.75706556  0.50661144  0.87002601  1
  O  O216  1  0.24454712  0.49519804  0.12918498  1
  O  O217  1  0.25001804  0.48948671  0.63173405  1
  O  O218  1  0.24560225  0.99410111  0.12877853  1
  O  O219  1  0.24469535  0.99483385  0.63133916  1
  O  O220  1  0.74072376  0.49786566  0.12850224  1
  O  O221  1  0.75018242  0.49171565  0.62933292  1
  O  O222  1  0.75289179  0.98578756  0.12703536  1
  O  O223  1  0.74358480  0.99555854  0.62978301  1
  O  O224  1  -0.00014666  0.36627298  0.25585708  1
  O  O225  1  0.00609708  0.36876361  0.74934309  1
  O  O226  1  0.00251719  0.86649175  0.25825368  1
  O  O227  1  0.00444355  0.87121287  0.75533601  1
  O  O228  1  0.50367752  0.36932560  0.25586040  1
  O  O229  1  0.50191728  0.36925456  0.75565184  1
  O  O230  1  0.50515966  0.86788771  0.25555518  1
  O  O231  1  0.50500541  0.86990872  0.75373344  1
  O  O232  1  0.49221404  0.13303216  0.25102557  1
  O  O233  1  0.49471046  0.13060271  0.74342636  1
  O  O234  1  0.49523907  0.63047693  0.24423787  1
  O  O235  1  0.49539579  0.62911698  0.74481912  1
  O  O236  1  0.99647622  0.13381240  0.24299088  1
  O  O237  1  0.99499002  0.12944302  0.74317479  1
  O  O238  1  0.99205212  0.63171538  0.25040510  1
  O  O239  1  0.99595172  0.62998974  0.74590343  1
  O  O240  1  0.36652984  0.25142171  0.00599360  1
  O  O241  1  0.37083421  0.25213064  0.50925131  1
  O  O242  1  0.37019984  0.75401148  0.00492043  1
  O  O243  1  0.37267018  0.75884049  0.50149475  1
  O  O244  1  0.87747748  0.25935626  0.00762634  1
  O  O245  1  0.86787557  0.25752887  0.50184197  1
  O  O246  1  0.87029871  0.75557531  0.00718158  1
  O  O247  1  0.86712445  0.75662729  0.50139626  1
  O  O248  1  0.13063260  0.24248668  0.49514847  1
  O  O249  1  0.12844866  0.24468534  0.99587703  1
  O  O250  1  0.12619467  0.74202753  0.49330068  1
  O  O251  1  0.13301605  0.74371033  0.99874341  1
  O  O252  1  0.62897229  0.24494466  0.49502140  1
  O  O253  1  0.62734515  0.25132557  0.98557205  1
  O  O254  1  0.62943916  0.74505605  0.49417935  1
  O  O255  1  0.63272951  0.74276998  0.99904073  1
  O  O256  1  0.49125262  0.25032641  0.13214079  1
  O  O257  1  0.49574583  0.24531511  0.63022709  1
  O  O258  1  0.49536736  0.74424406  0.12980641  1
  O  O259  1  0.49773741  0.74317547  0.63094771  1
  O  O260  1  0.99270093  0.24590454  0.13104471  1
  O  O261  1  1.00018421  0.23973738  0.63171147  1
  O  O262  1  0.99356682  0.74925730  0.13254742  1
  O  O263  1  0.99782176  0.74347681  0.63254334  1
  O  O264  1  -0.00288699  0.25421790  0.36507243  1
  O  O265  1  0.00711808  0.25147153  0.86817603  1
  O  O266  1  0.00533847  0.75457715  0.37089909  1
  O  O267  1  0.00211495  0.75753512  0.86886194  1
  O  O268  1  0.50406774  0.25545058  0.37036415  1
  O  O269  1  0.50698870  0.25546176  0.86961903  1
  O  O270  1  0.50507173  0.75485024  0.36922461  1
  O  O271  1  0.50203686  0.75647740  0.86689951  1
  O  O272  1  0.25167217  0.12411070  0.48684381  1
  O  O273  1  0.24189163  0.13158352  0.99905217  1
  O  O274  1  0.24370380  0.62412310  0.49367143  1
  O  O275  1  0.24618096  0.62972495  0.99418008  1
  O  O276  1  0.74290485  0.13244069  0.50005796  1
  O  O277  1  0.75032960  0.12876489  0.98628400  1
  O  O278  1  0.74419048  0.62987799  0.49521542  1
  O  O279  1  0.74631770  0.62999278  0.99561533  1
  O  O280  1  0.25076974  0.36821740  0.00696712  1
  O  O281  1  0.25095613  0.37574159  0.51192887  1
  O  O282  1  0.25670797  0.86869424  0.00463789  1
  O  O283  1  0.25695120  0.87557379  0.50632452  1
  O  O284  1  0.76396370  0.37382495  0.00151844  1
  O  O285  1  0.75405473  0.37159168  0.50749689  1
  O  O286  1  0.75545456  0.86958853  0.00862676  1
  O  O287  1  0.75412040  0.86925865  0.50631991  1
  O  O288  1  0.13093819  0.50043869  0.24272244  1
  O  O289  1  0.13207858  0.49300137  0.74890560  1
  O  O290  1  0.13178893  0.99746912  0.24137378  1
  O  O291  1  0.13079382  0.99429664  0.74515214  1
  O  O292  1  0.62339923  0.49353247  0.24379446  1
  O  O293  1  0.63509613  0.49836894  0.74756460  1
  O  O294  1  0.62920269  0.98953482  0.24912069  1
  O  O295  1  0.62949539  0.99543627  0.74302574  1
  O  O296  1  0.36948204  0.00471352  0.25512650  1
  O  O297  1  0.36997024  0.00484420  0.75436326  1
  O  O298  1  0.36769622  0.50742841  0.24940019  1
  O  O299  1  0.36971720  0.50602819  0.75600960  1
  O  O300  1  0.87421071  -0.00029842  0.26166906  1
  O  O301  1  0.86646992  0.00760502  0.75322001  1
  O  O302  1  0.87382318  0.50607904  0.25714470  1
  O  O303  1  0.87077325  0.50667351  0.75641168  1
  O  O304  1  0.11520527  0.37171379  0.37179679  1
  O  O305  1  0.12332674  0.36821017  0.86863354  1
  O  O306  1  0.11919998  0.86871530  0.37481418  1
  O  O307  1  0.11835131  0.87395639  0.86858224  1
  O  O308  1  0.61695238  0.36932508  0.37025757  1
  O  O309  1  0.62075774  0.36734710  0.87260131  1
  O  O310  1  0.61961873  0.86859180  0.37075979  1
  O  O311  1  0.61921705  0.87350680  0.86696687  1
  O  O312  1  0.37275235  0.13257893  0.13247518  1
  O  O313  1  0.38093577  0.12936926  0.63030125  1
  O  O314  1  0.38120191  0.63049562  0.12938482  1
  O  O315  1  0.38132978  0.62544132  0.63160795  1
  O  O316  1  0.88124051  0.13578783  0.12284251  1
  O  O317  1  0.88425202  0.12547453  0.63099087  1
  O  O318  1  0.87549941  0.63194087  0.13274493  1
  O  O319  1  0.88191132  0.62703568  0.63216888  1
  O  O320  1  0.25301400  0.25542180  0.12051660  1
  O  O321  1  0.25553341  0.25901650  0.62699319  1
  O  O322  1  0.25682608  0.75436222  0.11925210  1
  O  O323  1  0.25204327  0.75910603  0.62266929  1
  O  O324  1  0.76364842  0.25306085  0.12265948  1
  O  O325  1  0.75072665  0.26010994  0.61985920  1
  O  O326  1  0.75629115  0.75785652  0.12065208  1
  O  O327  1  0.75048868  0.75722678  0.61871910  1
  O  O328  1  0.24901475  0.23767893  0.37205750  1
  O  O329  1  0.24338380  0.24822164  0.88167109  1
  O  O330  1  0.24322175  0.74273465  0.37589965  1
  O  O331  1  0.25013359  0.74281305  0.88101121  1
  O  O332  1  0.74236061  0.25112751  0.38309280  1
  O  O333  1  0.74199028  0.24271001  0.87271927  1
  O  O334  1  0.74382209  0.74470172  0.38164160  1
  O  O335  1  0.74995172  0.74384138  0.88273211  1
  O  O336  1  0.00497224  0.11934404  0.00525936  1
  O  O337  1  0.00004887  0.12343530  0.51408355  1
  O  O338  1  0.00706342  0.61977209  0.00185695  1
  O  O339  1  0.00425030  0.61961939  0.50528321  1
  O  O340  1  0.50415089  0.12200244  0.00191432  1
  O  O341  1  0.50496046  0.11934916  0.50544417  1
  O  O342  1  0.50608575  0.62023581  0.00473490  1
  O  O343  1  0.50389078  0.61816730  0.50363858  1
  O  O344  1  0.49962337  0.38403519  0.49575979  1
  O  O345  1  0.49778624  0.38271404  0.99211708  1
  O  O346  1  0.49584462  0.88103949  0.49381048  1
  O  O347  1  0.49292937  0.87305523  0.99218036  1
  O  O348  1  0.99399528  0.37905038  0.49565217  1
  O  O349  1  0.98949122  0.38181857  0.99812455  1
  O  O350  1  0.99282903  0.87554899  0.49461279  1
  O  O351  1  0.99524203  0.87946084  0.99606782  1
  O  O352  1  0.49793604  0.49428891  0.38398635  1
  O  O353  1  0.49590934  0.49589793  0.87919435  1
  O  O354  1  0.49521571  0.99424650  0.37960078  1
  O  O355  1  0.49243710  0.99150006  0.87333383  1
  O  O356  1  0.99320667  0.49436005  0.38088409  1
  O  O357  1  0.99316133  0.49875137  0.88200850  1
  O  O358  1  0.99208425  0.99316043  0.37617530  1
  O  O359  1  0.99797966  0.99401959  0.88233297  1
  O  O360  1  0.00483248  0.00410126  0.12008246  1
  O  O361  1  0.00543975  0.00976302  0.62740955  1
  O  O362  1  0.00633709  0.50266281  0.11840604  1
  O  O363  1  0.00091235  0.50651421  0.61814514  1
  O  O364  1  0.50296298  0.00470908  0.12292657  1
  O  O365  1  0.50557186  0.00576372  0.61914711  1
  O  O366  1  0.50465619  0.50589565  0.11897089  1
  O  O367  1  0.50123635  0.50505891  0.61634679  1
  O  O368  1  0.24720796  0.38191119  0.24295734  1
  O  O369  1  0.24527003  0.37943419  0.74269134  1
  O  O370  1  0.25056181  0.88094992  0.24245491  1
  O  O371  1  0.24490446  0.88058781  0.74457695  1
  O  O372  1  0.73960481  0.37745990  0.24822377  1
  O  O373  1  0.75230439  0.38159069  0.74059071  1
  O  O374  1  0.74502729  0.87195074  0.24072413  1
  O  O375  1  0.74470654  0.88082279  0.74554182  1
  O  O376  1  0.25532045  0.11854201  0.25654469  1
  O  O377  1  0.25696267  0.11772956  0.75080584  1
  O  O378  1  0.25534957  0.61992334  0.25443950  1
  O  O379  1  0.25477768  0.61943108  0.75424793  1
  O  O380  1  0.75702075  0.12340828  0.25647758  1
  O  O381  1  0.75399372  0.12138196  0.75620202  1
  O  O382  1  0.75622795  0.62438480  0.25848478  1
  O  O383  1  0.75619092  0.62158675  0.75487621  1
  O  O384  1  0.36755936  0.11897767  0.36853793  1
  O  O385  1  0.37378173  0.11809715  0.86693971  1
  O  O386  1  0.36813246  0.62357395  0.36700118  1
  O  O387  1  0.37019816  0.61882080  0.86877586  1
  O  O388  1  0.87528144  0.11233591  0.37639997  1
  O  O389  1  0.86468490  0.12574674  0.86887671  1
  O  O390  1  0.86884240  0.61979469  0.37154672  1
  O  O391  1  0.86997396  0.62008248  0.87050810  1
  O  O392  1  0.13051222  0.38267746  0.12651145  1
  O  O393  1  0.13516325  0.37486071  0.63150234  1
  O  O394  1  0.13325208  0.88082963  0.12562751  1
  O  O395  1  0.12949755  0.88094233  0.63113099  1
  O  O396  1  0.62462571  0.38075946  0.13062164  1
  O  O397  1  0.63830448  0.37735682  0.62638259  1
  O  O398  1  0.63644174  0.87163447  0.13188650  1
  O  O399  1  0.62989915  0.88172763  0.62960995  1
  O  O400  1  0.11068646  0.25096982  0.24934389  1
  O  O401  1  0.12018866  0.25503001  0.75635247  1
  O  O402  1  0.11876985  0.75039852  0.25750564  1
  O  O403  1  0.11817937  0.75752100  0.75238447  1
  O  O404  1  0.61786059  0.25649234  0.25641603  1
  O  O405  1  0.61855812  0.25248988  0.75995105  1
  O  O406  1  0.61914517  0.75431316  0.25615454  1
  O  O407  1  0.61816176  0.75720218  0.75097556  1
  O  O408  1  0.37959745  0.24432901  0.24364300  1
  O  O409  1  0.38068563  0.24389059  0.74481491  1
  O  O410  1  0.38090169  0.74428516  0.24335794  1
  O  O411  1  0.38189620  0.74256664  0.74782220  1
  O  O412  1  0.88466460  0.25196535  0.23983855  1
  O  O413  1  0.88217399  0.24369459  0.74738814  1
  O  O414  1  0.88079814  0.74416837  0.24718978  1
  O  O415  1  0.88190828  0.74371508  0.74910372  1
  O  O416  1  0.38783170  0.49856351  0.49793614  1
  O  O417  1  0.38230045  0.49977839  0.99286732  1
  O  O418  1  0.38238513  0.99472017  0.49330441  1
  O  O419  1  0.37493967  0.99163450  0.99207991  1
  O  O420  1  0.88054962  0.49445409  0.49372262  1
  O  O421  1  0.87992082  0.49363286  0.99643710  1
  O  O422  1  0.87687264  0.99268782  0.49114503  1
  O  O423  1  0.88217853  0.99317508  0.99935785  1
  O  O424  1  0.11964703  0.00485945  0.00540169  1
  O  O425  1  0.12176718  0.00412614  0.50971974  1
  O  O426  1  0.12035039  0.50553248  0.00499233  1
  O  O427  1  0.11655163  0.50655225  0.50166882  1
  O  O428  1  0.62176237  0.00195801  0.00539490  1
  O  O429  1  0.61994558  0.00508750  0.50488966  1
  O  O430  1  0.61973766  0.50572186  0.00528347  1
  O  O431  1  0.61306033  0.50641848  0.50017814  1
  O  O432  1  0.36665635  0.36777686  0.12308209  1
  O  O433  1  0.36493011  0.36870799  0.62621053  1
  O  O434  1  0.37049178  0.86816539  0.11905160  1
  O  O435  1  0.36870761  0.87552698  0.61769715  1
  O  O436  1  0.87599962  0.36748045  0.11637487  1
  O  O437  1  0.86490697  0.37438952  0.61861673  1
  O  O438  1  0.86785327  0.86866337  0.12167553  1
  O  O439  1  0.86741947  0.87531092  0.61974273  1
  O  O440  1  0.13670875  0.12344037  0.37364567  1
  O  O441  1  0.12646633  0.13104740  0.88188568  1
  O  O442  1  0.12981373  0.63003194  0.38099258  1
  O  O443  1  0.13324356  0.62585471  0.88187951  1
  O  O444  1  0.62504608  0.13212977  0.38257723  1
  O  O445  1  0.63381644  0.13479004  0.87193650  1
  O  O446  1  0.62905029  0.63101854  0.38025745  1
  O  O447  1  0.63309873  0.62646642  0.88234182  1
