# generated using pymatgen
data_V3Zn3O8
_symmetry_space_group_name_H-M   'P 1'
_cell_length_a   17.08753533
_cell_length_b   17.08610662
_cell_length_c   17.08788446
_cell_angle_alpha   90.00411593
_cell_angle_beta   89.98186094
_cell_angle_gamma   90.00447577
_symmetry_Int_Tables_number   1
_chemical_formula_structural   V3Zn3O8
_chemical_formula_sum   'V96 Zn96 O256'
_cell_volume   4988.96907806
_cell_formula_units_Z   32
loop_
 _symmetry_equiv_pos_site_id
 _symmetry_equiv_pos_as_xyz
  1  'x, y, z'
loop_
 _atom_site_type_symbol
 _atom_site_label
 _atom_site_symmetry_multiplicity
 _atom_site_fract_x
 _atom_site_fract_y
 _atom_site_fract_z
 _atom_site_occupancy
  V  V0  1  0.24900491  0.12339966  0.87564013  1
  V  V1  1  -0.00104123  0.25040624  0.25005696  1
  V  V2  1  0.12554332  0.37482437  0.25080756  1
  V  V3  1  0.24913012  -0.00070508  0.24928337  1
  V  V4  1  0.74894473  0.00139036  0.74900401  1
  V  V5  1  0.87556234  0.37608473  -0.00023149  1
  V  V6  1  0.49769895  -0.00101268  -0.00302303  1
  V  V7  1  0.25229174  0.74853231  0.50183218  1
  V  V8  1  0.24935147  0.87484266  0.12434521  1
  V  V9  1  0.62574263  0.62574217  0.49984260  1
  V  V10  1  0.49902160  0.12436821  0.62465611  1
  V  V11  1  0.62739275  0.62640698  -0.00004453  1
  V  V12  1  0.87443237  0.37436545  0.50050140  1
  V  V13  1  0.49897507  -0.00017313  0.49964052  1
  V  V14  1  0.49807593  0.87629590  0.37536385  1
  V  V15  1  0.37446174  0.24896016  0.62517472  1
  V  V16  1  0.24906108  -0.00073071  0.75041348  1
  V  V17  1  0.12453052  0.37283356  0.75095090  1
  V  V18  1  0.12442324  0.12518409  0.00018473  1
  V  V19  1  0.74917697  0.12644107  0.87394460  1
  V  V20  1  0.87355718  0.12541406  0.25062260  1
  V  V21  1  0.74916065  0.25034592  0.49884408  1
  V  V22  1  0.75082376  0.87501699  0.62285371  1
  V  V23  1  0.25124225  0.62429054  0.87434935  1
  V  V24  1  0.37426553  0.12419479  0.25004684  1
  V  V25  1  0.37351851  0.12384862  0.75053580  1
  V  V26  1  0.12568557  0.62389112  0.00091075  1
  V  V27  1  0.50075972  0.75064925  0.74987614  1
  V  V28  1  0.37492293  0.25003725  0.12501242  1
  V  V29  1  0.00022838  0.49898879  0.50112795  1
  V  V30  1  -0.00105961  0.24951165  0.75019206  1
  V  V31  1  0.49965144  0.12622288  0.12434929  1
  V  V32  1  -0.00090937  0.12507452  0.12476514  1
  V  V33  1  0.37557007  0.74955414  0.62472009  1
  V  V34  1  0.75046191  0.50059959  0.74997517  1
  V  V35  1  0.87785653  0.62745202  0.25068238  1
  V  V36  1  0.37681640  0.62457154  0.24936936  1
  V  V37  1  0.37653439  0.49870078  0.37544240  1
  V  V38  1  0.62508006  0.24987787  0.37472437  1
  V  V39  1  0.00050586  0.37455565  0.37582468  1
  V  V40  1  0.24910802  0.24889401  0.00004479  1
  V  V41  1  0.62569438  0.87698616  0.24713220  1
  V  V42  1  0.50041286  0.25064273  0.24927157  1
  V  V43  1  0.49955482  0.49966057  -0.00202154  1
  V  V44  1  0.62435905  0.12709085  -0.00052162  1
  V  V45  1  0.49972355  0.62638567  0.12435624  1
  V  V46  1  0.25122379  0.49838230  0.25039701  1
  V  V47  1  0.87437942  -0.00027144  0.87609429  1
  V  V48  1  0.12581404  0.49853023  0.62579616  1
  V  V49  1  0.24954360  0.75029692  0.00021653  1
  V  V50  1  0.12450463  -0.00130339  0.62541301  1
  V  V51  1  0.00081024  0.49950154  0.00061578  1
  V  V52  1  0.62603901  0.37657489  0.24932092  1
  V  V53  1  0.62525726  0.00085055  0.12504208  1
  V  V54  1  0.25045992  0.37418032  0.12508875  1
  V  V55  1  0.12458642  0.24871979  0.37524355  1
  V  V56  1  0.12554801  0.50018814  0.12493246  1
  V  V57  1  0.37428619  0.74999505  0.12387474  1
  V  V58  1  0.25241788  0.62332515  0.37634801  1
  V  V59  1  0.87604081  0.50091475  0.37509199  1
  V  V60  1  0.24954267  0.87357072  0.62635704  1
  V  V61  1  0.87526058  0.75089114  0.62479781  1
  V  V62  1  0.37551936  0.37533156  -0.00069793  1
  V  V63  1  0.25002077  0.37330579  0.62529954  1
  V  V64  1  0.87564845  -0.00070198  0.37543065  1
  V  V65  1  0.00041845  0.62478008  0.62603919  1
  V  V66  1  0.62710670  0.75014270  0.37491574  1
  V  V67  1  0.37553295  0.37410927  0.49942521  1
  V  V68  1  0.00069935  0.75038303  0.75166544  1
  V  V69  1  0.49979350  0.25070752  0.74993910  1
  V  V70  1  -0.00063995  0.12252787  0.62401201  1
  V  V71  1  -0.00334630  -0.00038451  -0.00004988  1
  V  V72  1  0.87605442  0.50022964  0.87525441  1
  V  V73  1  0.62414449  0.12666244  0.49865091  1
  V  V74  1  0.75022852  0.25243503  -0.00030177  1
  V  V75  1  0.12671815  0.62316357  0.50149834  1
  V  V76  1  0.75026912  0.50063976  0.24956246  1
  V  V77  1  0.37422982  0.62396365  0.75040768  1
  V  V78  1  0.62445309  0.37643711  0.74913072  1
  V  V79  1  0.49983569  0.37514430  0.37481412  1
  V  V80  1  0.12341641  0.75029525  0.87519918  1
  V  V81  1  0.62404411  0.25226655  0.87408489  1
  V  V82  1  0.24958348  0.12289030  0.37407100  1
  V  V83  1  0.87534544  0.62405812  0.75074276  1
  V  V84  1  0.87345647  0.24980612  0.62366554  1
  V  V85  1  0.62543016  0.50129391  0.62495271  1
  V  V86  1  0.62528675  0.75199302  0.87394163  1
  V  V87  1  0.87435537  0.25175080  0.12441608  1
  V  V88  1  0.50092231  0.62512650  0.62461298  1
  V  V89  1  0.12456979  0.75040463  0.37397345  1
  V  V90  1  0.12403921  0.12275547  0.50053947  1
  V  V91  1  0.87482118  0.75263918  0.12431211  1
  V  V92  1  0.62484682  0.00010612  0.62456347  1
  V  V93  1  0.24969734  0.24778927  0.49995155  1
  V  V94  1  0.87385425  0.12591324  0.74898446  1
  V  V95  1  0.12422216  -0.00111337  0.12576867  1
  Zn  Zn96  1  0.75285033  0.75019693  0.49971631  1
  Zn  Zn97  1  0.75179608  0.62749994  0.37705391  1
  Zn  Zn98  1  -0.00070475  -0.00404063  0.50045962  1
  Zn  Zn99  1  0.50160725  0.49930179  0.49996356  1
  Zn  Zn100  1  0.74930293  0.37690781  0.12381704  1
  Zn  Zn101  1  0.00258358  0.62726686  0.12588592  1
  Zn  Zn102  1  0.12297176  0.87535354  0.75191096  1
  Zn  Zn103  1  0.37345411  -0.00313607  0.87457470  1
  Zn  Zn104  1  0.12453023  0.87355878  0.25086889  1
  Zn  Zn105  1  0.75158685  0.87793899  0.12256433  1
  Zn  Zn106  1  0.49755393  0.87624147  0.87229862  1
  Zn  Zn107  1  0.87238695  0.87415753  -0.00094951  1
  Zn  Zn108  1  0.00221765  0.75247042  0.24981362  1
  Zn  Zn109  1  0.49799635  0.37560495  0.87375655  1
  Zn  Zn110  1  0.00076591  0.87509756  0.37585829  1
  Zn  Zn111  1  0.00100587  0.37313205  0.87574527  1
  Zn  Zn112  1  0.49986321  0.75008529  0.24825981  1
  Zn  Zn113  1  0.25172615  0.49826745  0.75166489  1
  Zn  Zn114  1  0.87797452  0.87341104  0.49729250  1
  Zn  Zn115  1  0.74996085  0.00326152  0.24888826  1
  Zn  Zn116  1  0.37418637  0.87467684  -0.00269286  1
  Zn  Zn117  1  0.62325075  0.87652677  0.75038197  1
  Zn  Zn118  1  0.75074141  0.75300933  0.00010227  1
  Zn  Zn119  1  -0.00191862  0.87487362  0.87583045  1
  Zn  Zn120  1  0.12292103  0.24939337  0.87642068  1
  Zn  Zn121  1  0.37311434  -0.00157554  0.37551972  1
  Zn  Zn122  1  0.75217361  0.62710307  0.87576118  1
  Zn  Zn123  1  0.74938736  0.37580822  0.62428830  1
  Zn  Zn124  1  0.37509409  0.87516431  0.50027491  1
  Zn  Zn125  1  0.37342658  0.49811647  0.87238406  1
  Zn  Zn126  1  0.62689746  0.50118840  0.12404331  1
  Zn  Zn127  1  0.74864944  0.12408140  0.37346395  1
  Zn  Zn128  1  0.18652600  0.18627435  0.18708905  1
  Zn  Zn129  1  0.18622778  0.18561038  0.68805083  1
  Zn  Zn130  1  0.19044697  0.68598316  0.18800454  1
  Zn  Zn131  1  0.18769173  0.68730342  0.68991365  1
  Zn  Zn132  1  0.68884462  0.18828967  0.18675845  1
  Zn  Zn133  1  0.68673684  0.18888615  0.68556631  1
  Zn  Zn134  1  0.68995188  0.68876155  0.18733398  1
  Zn  Zn135  1  0.68906196  0.68763942  0.68832975  1
  Zn  Zn136  1  0.31293782  0.31064697  0.31292247  1
  Zn  Zn137  1  0.31184658  0.31100063  0.81508590  1
  Zn  Zn138  1  0.31104627  0.81085597  0.31003229  1
  Zn  Zn139  1  0.31318386  0.81368120  0.81350562  1
  Zn  Zn140  1  0.81156807  0.31341245  0.31343551  1
  Zn  Zn141  1  0.81223193  0.31540326  0.81252052  1
  Zn  Zn142  1  0.81153895  0.81589262  0.30971814  1
  Zn  Zn143  1  0.81126598  0.81392526  0.81164609  1
  Zn  Zn144  1  0.18858491  0.43624266  0.43858152  1
  Zn  Zn145  1  0.18819433  0.43750471  0.93610063  1
  Zn  Zn146  1  0.18902953  0.93567477  0.44011416  1
  Zn  Zn147  1  0.18461567  0.93623568  0.93759427  1
  Zn  Zn148  1  0.68846746  0.43848476  0.43684249  1
  Zn  Zn149  1  0.68852940  0.43846207  0.93467799  1
  Zn  Zn150  1  0.68974989  0.93989684  0.43699844  1
  Zn  Zn151  1  0.68850256  0.93593900  0.93906147  1
  Zn  Zn152  1  0.31230839  0.06203601  0.06297297  1
  Zn  Zn153  1  0.31254761  0.05913579  0.56219393  1
  Zn  Zn154  1  0.31309989  0.56264930  0.06152745  1
  Zn  Zn155  1  0.31384235  0.56007220  0.56420898  1
  Zn  Zn156  1  0.81066984  0.06352169  0.06279126  1
  Zn  Zn157  1  0.81138744  0.06263477  0.55914157  1
  Zn  Zn158  1  0.81437491  0.56481685  0.06402928  1
  Zn  Zn159  1  0.81097888  0.56408466  0.56314329  1
  Zn  Zn160  1  0.43930498  0.43877942  0.18540517  1
  Zn  Zn161  1  0.43806814  0.43850657  0.68693881  1
  Zn  Zn162  1  0.43639290  0.93739490  0.18549599  1
  Zn  Zn163  1  0.43611950  0.93575245  0.68802431  1
  Zn  Zn164  1  0.93817443  0.43802882  0.18600302  1
  Zn  Zn165  1  0.93764522  0.43635791  0.68768557  1
  Zn  Zn166  1  0.94096789  0.93471074  0.19299494  1
  Zn  Zn167  1  0.93706599  0.93639765  0.68952273  1
  Zn  Zn168  1  0.06071169  0.06121045  0.31204868  1
  Zn  Zn169  1  0.06201515  0.06246520  0.81298004  1
  Zn  Zn170  1  0.06320860  0.56325219  0.31353878  1
  Zn  Zn171  1  0.06299713  0.56125608  0.81423640  1
  Zn  Zn172  1  0.56113290  0.06206989  0.31228644  1
  Zn  Zn173  1  0.56259540  0.06413784  0.81206090  1
  Zn  Zn174  1  0.56249668  0.56271743  0.31279153  1
  Zn  Zn175  1  0.56252596  0.56432899  0.81325658  1
  Zn  Zn176  1  0.43694978  0.18686153  0.43615718  1
  Zn  Zn177  1  0.43585419  0.18678448  0.93542185  1
  Zn  Zn178  1  0.44014279  0.68801568  0.43794274  1
  Zn  Zn179  1  0.43731267  0.68793172  0.93615564  1
  Zn  Zn180  1  0.93679791  0.18473766  0.43758227  1
  Zn  Zn181  1  0.93716191  0.18778601  0.93634603  1
  Zn  Zn182  1  0.93884571  0.68754542  0.44025341  1
  Zn  Zn183  1  0.93895345  0.68602856  0.93907485  1
  Zn  Zn184  1  0.06199656  0.31329358  0.06269244  1
  Zn  Zn185  1  0.06126128  0.31009393  0.56361658  1
  Zn  Zn186  1  0.05924709  0.81378629  0.06264733  1
  Zn  Zn187  1  0.06199055  0.81398238  0.56101924  1
  Zn  Zn188  1  0.56409733  0.31541312  0.06392201  1
  Zn  Zn189  1  0.56234268  0.31368340  0.56307732  1
  Zn  Zn190  1  0.56099754  0.81301367  0.06118856  1
  Zn  Zn191  1  0.56404330  0.81256087  0.56163501  1
  O  O192  1  0.11868937  0.11965857  0.11985775  1
  O  O193  1  0.11958078  0.11917355  0.61965322  1
  O  O194  1  0.12694332  0.61724554  0.11950264  1
  O  O195  1  0.12055817  0.61859168  0.62031589  1
  O  O196  1  0.61832775  0.12231680  0.11907878  1
  O  O197  1  0.61812273  0.12059740  0.61872213  1
  O  O198  1  0.61913182  0.62585500  0.11564262  1
  O  O199  1  0.62023862  0.62137870  0.61946179  1
  O  O200  1  0.37973766  0.37863754  0.37937571  1
  O  O201  1  0.37757722  0.37650516  0.88354685  1
  O  O202  1  0.38785253  0.87315628  0.37434284  1
  O  O203  1  0.37941357  0.87901068  0.87970235  1
  O  O204  1  0.88219947  0.38064385  0.38037004  1
  O  O205  1  0.87757474  0.38226506  0.88166193  1
  O  O206  1  0.87445278  0.88633656  0.37470006  1
  O  O207  1  0.87559205  0.88534488  0.87554612  1
  O  O208  1  0.25067278  0.00564175  0.36858083  1
  O  O209  1  0.24930459  0.00641992  0.86908959  1
  O  O210  1  0.25605443  0.50330751  0.37015302  1
  O  O211  1  0.25229781  0.50877783  0.87306078  1
  O  O212  1  0.75969246  0.00382857  0.37121436  1
  O  O213  1  0.75281576  0.00770540  0.86905929  1
  O  O214  1  0.75758944  0.50137458  0.36460850  1
  O  O215  1  0.75766847  0.50340473  0.86765461  1
  O  O216  1  0.24603481  0.49337967  0.13096498  1
  O  O217  1  0.24333563  0.49093241  0.62603707  1
  O  O218  1  0.24408610  0.99544349  0.12941336  1
  O  O219  1  0.24428045  0.99446761  0.63058595  1
  O  O220  1  0.75015981  0.50038017  0.13863870  1
  O  O221  1  0.74340347  0.49880496  0.63186159  1
  O  O222  1  0.73977476  0.99985208  0.12758747  1
  O  O223  1  0.74522989  0.99442306  0.62910795  1
  O  O224  1  0.00593439  0.37048044  0.25618748  1
  O  O225  1  0.00988752  0.36859285  0.74908360  1
  O  O226  1  0.00809463  0.86956635  0.25851164  1
  O  O227  1  0.00177467  0.86522988  0.75281818  1
  O  O228  1  0.50487727  0.37009349  0.25470600  1
  O  O229  1  0.50566851  0.36806308  0.75057200  1
  O  O230  1  0.50858183  0.87491525  0.25800707  1
  O  O231  1  0.50398592  0.86654501  0.75045640  1
  O  O232  1  0.49457765  0.13130994  0.24398564  1
  O  O233  1  0.49416627  0.13070074  0.74336334  1
  O  O234  1  0.49394282  0.62522037  0.24276824  1
  O  O235  1  0.49485744  0.63088023  0.74387257  1
  O  O236  1  0.99441579  0.13229917  0.24387523  1
  O  O237  1  0.99310037  0.12997426  0.74353952  1
  O  O238  1  0.98839399  0.62486665  0.24956614  1
  O  O239  1  0.99514550  0.62895417  0.74437340  1
  O  O240  1  0.36970295  0.25431968  0.00652443  1
  O  O241  1  0.36902113  0.25401843  0.50507446  1
  O  O242  1  0.36741539  0.74912707  0.00669698  1
  O  O243  1  0.36961948  0.74933093  0.50678125  1
  O  O244  1  0.86987848  0.25551597  0.00451855  1
  O  O245  1  0.86985332  0.25480256  0.50382667  1
  O  O246  1  0.87394049  0.74811868  0.01171777  1
  O  O247  1  0.87230123  0.75089407  0.50872032  1
  O  O248  1  0.13021676  0.24399740  0.49479330  1
  O  O249  1  0.13160835  0.24352098  1.00145642  1
  O  O250  1  0.13253859  0.74132986  0.49414215  1
  O  O251  1  0.12970503  0.74321196  0.99594268  1
  O  O252  1  0.62854690  0.24613465  0.49451550  1
  O  O253  1  0.62956967  0.24653786  0.99467851  1
  O  O254  1  0.62669892  0.74441655  0.49073528  1
  O  O255  1  0.62264082  0.74122725  0.99176872  1
  O  O256  1  0.49469975  0.24568520  0.12985075  1
  O  O257  1  0.49402851  0.24380681  0.62991512  1
  O  O258  1  0.49254096  0.74349892  0.12502282  1
  O  O259  1  0.49604881  0.74451312  0.62967661  1
  O  O260  1  0.99454052  0.24535342  0.13099712  1
  O  O261  1  0.99314276  0.24265867  0.62986179  1
  O  O262  1  0.99018357  0.74643609  0.12895334  1
  O  O263  1  0.99574245  0.74311768  0.63081653  1
  O  O264  1  0.00540679  0.25503317  0.37000520  1
  O  O265  1  0.00212336  0.25165783  0.86587748  1
  O  O266  1  0.01550272  0.74566545  0.37587727  1
  O  O267  1  0.00599078  0.74880803  0.86903677  1
  O  O268  1  0.50458578  0.25561513  0.36833231  1
  O  O269  1  0.50641528  0.25006668  0.86769723  1
  O  O270  1  0.51019331  0.75925423  0.37359455  1
  O  O271  1  0.50959680  0.74982576  0.86875653  1
  O  O272  1  0.24447310  0.12941125  0.49463259  1
  O  O273  1  0.24430092  0.12964085  0.99668250  1
  O  O274  1  0.24622670  0.62785633  0.49575420  1
  O  O275  1  0.24467983  0.63031388  0.99519498  1
  O  O276  1  0.74100103  0.13279117  0.49795957  1
  O  O277  1  0.74353331  0.13255499  0.99354304  1
  O  O278  1  0.74100278  0.62842501  0.49678976  1
  O  O279  1  0.73740801  0.62599771  0.99969825  1
  O  O280  1  0.25471682  0.36938665  0.00658808  1
  O  O281  1  0.25509399  0.36693507  0.50490585  1
  O  O282  1  0.25004617  0.86809026  0.00715441  1
  O  O283  1  0.25333014  0.86632069  0.50791778  1
  O  O284  1  0.75662538  0.37020058  0.00085276  1
  O  O285  1  0.75707784  0.36896799  0.50060040  1
  O  O286  1  0.75380925  0.87111722  0.00528175  1
  O  O287  1  0.75137021  0.87481142  0.51294039  1
  O  O288  1  0.13161584  0.49417652  0.24657313  1
  O  O289  1  0.12542542  0.48875373  0.74382847  1
  O  O290  1  0.13226134  1.00133440  0.24267566  1
  O  O291  1  0.13143070  1.00007724  0.74295499  1
  O  O292  1  0.63524462  0.49649905  0.25046514  1
  O  O293  1  0.62976772  0.49681737  0.74526118  1
  O  O294  1  0.62287870  0.99257923  0.24368716  1
  O  O295  1  0.63111356  1.00159089  0.74228523  1
  O  O296  1  0.36815593  0.00711256  0.25032584  1
  O  O297  1  0.36776410  0.00750900  0.74945506  1
  O  O298  1  0.37002595  0.50359482  0.25534700  1
  O  O299  1  0.37295567  0.50777529  0.75120572  1
  O  O300  1  0.87466811  0.00787248  0.25771935  1
  O  O301  1  0.86810455  0.00783607  0.75489549  1
  O  O302  1  0.86979116  0.50685330  0.25470955  1
  O  O303  1  0.87140432  0.50430529  0.75460357  1
  O  O304  1  0.12044172  0.36888827  0.37041177  1
  O  O305  1  0.12435269  0.37193885  0.86281965  1
  O  O306  1  0.12988336  0.85975187  0.37562561  1
  O  O307  1  0.12093047  0.86518025  0.87329651  1
  O  O308  1  0.61906506  0.36990664  0.36937121  1
  O  O309  1  0.62212908  0.36923854  0.86754862  1
  O  O310  1  0.61711744  0.87027035  0.36830627  1
  O  O311  1  0.62216125  0.86356632  0.87327268  1
  O  O312  1  0.37989778  0.13160233  0.13056327  1
  O  O313  1  0.37936083  0.13027004  0.62985280  1
  O  O314  1  0.37926900  0.62969251  0.13027617  1
  O  O315  1  0.38085416  0.63008864  0.62977425  1
  O  O316  1  0.88046447  0.13217686  0.13009706  1
  O  O317  1  0.87882407  0.13009829  0.62970620  1
  O  O318  1  0.87663332  0.63286970  0.13562775  1
  O  O319  1  0.88162941  0.62959177  0.63065710  1
  O  O320  1  0.25532868  0.25486119  0.12072407  1
  O  O321  1  0.25498243  0.25311762  0.61900138  1
  O  O322  1  0.25454006  0.75451995  0.11962984  1
  O  O323  1  0.25536266  0.75294237  0.62061009  1
  O  O324  1  0.75684397  0.25215607  0.11706762  1
  O  O325  1  0.75599650  0.25200969  0.61726075  1
  O  O326  1  0.76172752  0.75200596  0.12425571  1
  O  O327  1  0.75559621  0.76010781  0.62646670  1
  O  O328  1  0.24388092  0.24366644  0.37990009  1
  O  O329  1  0.24735797  0.24180529  0.88303329  1
  O  O330  1  0.24539150  0.74176700  0.38126670  1
  O  O331  1  0.24358903  0.74377702  0.88076775  1
  O  O332  1  0.74231686  0.24929491  0.38115361  1
  O  O333  1  0.74420568  0.24552149  0.87973303  1
  O  O334  1  0.73661446  0.75221357  0.37599300  1
  O  O335  1  0.73841626  0.74735435  0.87569400  1
  O  O336  1  0.00441015  0.12085068  0.00633899  1
  O  O337  1  0.00733125  0.12427908  0.50715159  1
  O  O338  1  0.00870541  0.61671907  0.00284523  1
  O  O339  1  0.00687674  0.61739353  0.50669481  1
  O  O340  1  0.50495145  0.11986978  0.00495378  1
  O  O341  1  0.50424738  0.12082132  0.50546283  1
  O  O342  1  0.50728085  0.61790349  0.00417153  1
  O  O343  1  0.50858309  0.62358704  0.50651338  1
  O  O344  1  0.49281597  0.37489641  0.49273144  1
  O  O345  1  0.49498368  0.38434621  1.00041405  1
  O  O346  1  0.50062427  0.88048147  0.49023865  1
  O  O347  1  0.49946636  0.88887901  0.99906285  1
  O  O348  1  0.99526161  0.37914531  0.49497220  1
  O  O349  1  0.99409977  0.38134438  0.99876637  1
  O  O350  1  0.99642192  0.87818324  0.49433827  1
  O  O351  1  0.99443717  0.88531813  0.99801570  1
  O  O352  1  0.49363431  0.49271906  0.37598102  1
  O  O353  1  0.49783413  0.50001925  0.88776709  1
  O  O354  1  0.49888345  0.99073192  0.38034825  1
  O  O355  1  0.49982088  1.00179700  0.88580139  1
  O  O356  1  0.99656137  0.49393335  0.38148644  1
  O  O357  1  0.99414579  0.49725889  0.88263961  1
  O  O358  1  0.98893949  1.00062040  0.37707382  1
  O  O359  1  0.99180063  1.00208201  0.88173553  1
  O  O360  1  0.00416250  0.00666549  0.12066294  1
  O  O361  1  0.00574287  0.00630987  0.62536661  1
  O  O362  1  0.00851793  0.50132865  0.11942167  1
  O  O363  1  0.00581700  0.50472897  0.61985787  1
  O  O364  1  0.50463931  0.00732287  0.11680758  1
  O  O365  1  0.50484504  0.00525654  0.61986597  1
  O  O366  1  0.50203342  0.50714819  0.11375147  1
  O  O367  1  0.50742140  0.50763822  0.62284692  1
  O  O368  1  0.24520029  0.37868046  0.24532452  1
  O  O369  1  0.24063825  0.37286919  0.74356142  1
  O  O370  1  0.24797583  0.88139340  0.24285236  1
  O  O371  1  0.24781047  0.88110620  0.74336445  1
  O  O372  1  0.74560956  0.38538604  0.24993758  1
  O  O373  1  0.74271424  0.38231306  0.74748510  1
  O  O374  1  0.73425308  0.87865875  0.24743449  1
  O  O375  1  0.74716126  0.88274260  0.73900276  1
  O  O376  1  0.25473180  0.12017960  0.25445794  1
  O  O377  1  0.25428848  0.11975157  0.75495497  1
  O  O378  1  0.25743061  0.61674214  0.25635567  1
  O  O379  1  0.25649110  0.62331515  0.75618791  1
  O  O380  1  0.75843972  0.12533198  0.25234459  1
  O  O381  1  0.75442750  0.12166357  0.75416607  1
  O  O382  1  0.75960417  0.61733400  0.25340493  1
  O  O383  1  0.75816078  0.61794454  0.75047908  1
  O  O384  1  0.36753786  0.12449893  0.36757154  1
  O  O385  1  0.36689332  0.12280671  0.86770552  1
  O  O386  1  0.37181772  0.61907118  0.37015874  1
  O  O387  1  0.36840065  0.62495278  0.86786749  1
  O  O388  1  0.87388548  0.11811270  0.36793742  1
  O  O389  1  0.86757234  0.12103653  0.86836618  1
  O  O390  1  0.87461730  0.61981470  0.36733945  1
  O  O391  1  0.87451041  0.61824539  0.86847759  1
  O  O392  1  0.13132878  0.37971399  0.13185214  1
  O  O393  1  0.12963746  0.37770639  0.63192965  1
  O  O394  1  0.13163371  0.88153308  0.12616342  1
  O  O395  1  0.13240981  0.88059714  0.62684913  1
  O  O396  1  0.62872963  0.37981139  0.13371160  1
  O  O397  1  0.62563312  0.38266786  0.63101106  1
  O  O398  1  0.62128321  0.88091687  0.13449365  1
  O  O399  1  0.63409452  0.88156377  0.62548048  1
  O  O400  1  0.11931708  0.25517644  0.25522958  1
  O  O401  1  0.11855442  0.25851908  0.74854481  1
  O  O402  1  0.12763833  0.74599296  0.26294597  1
  O  O403  1  0.11750034  0.74870363  0.75740849  1
  O  O404  1  0.61919228  0.25568364  0.25450682  1
  O  O405  1  0.61969308  0.25549052  0.75396137  1
  O  O406  1  0.62272983  0.75836417  0.25758820  1
  O  O407  1  0.61915092  0.74817813  0.75938359  1
  O  O408  1  0.38066823  0.24491873  0.24416826  1
  O  O409  1  0.37941035  0.24414814  0.74393608  1
  O  O410  1  0.37630651  0.74161316  0.24294004  1
  O  O411  1  0.38078174  0.74340706  0.74373214  1
  O  O412  1  0.88077304  0.24705337  0.24534330  1
  O  O413  1  0.87829587  0.24523293  0.74377751  1
  O  O414  1  0.87458999  0.74073583  0.24527188  1
  O  O415  1  0.88049092  0.74348933  0.74492636  1
  O  O416  1  0.37651958  0.49185175  0.49320656  1
  O  O417  1  0.38448901  0.49448126  1.00022648  1
  O  O418  1  0.38297226  0.99645285  0.49641677  1
  O  O419  1  0.38693543  1.00145388  0.99971581  1
  O  O420  1  0.88083267  0.49549608  0.49545202  1
  O  O421  1  0.88032195  0.49647529  0.99613898  1
  O  O422  1  0.87620917  1.00037512  0.48821616  1
  O  O423  1  0.87997149  1.00321794  0.99332505  1
  O  O424  1  0.11778767  0.00644663  0.00642608  1
  O  O425  1  0.12509953  0.00667573  0.50708926  1
  O  O426  1  0.12135676  0.50351656  0.00613224  1
  O  O427  1  0.11993976  0.50302654  0.50547207  1
  O  O428  1  0.61678111  0.00797891  0.00429956  1
  O  O429  1  0.61898480  0.00677294  0.50479568  1
  O  O430  1  0.61749272  0.50893370  -0.00048013  1
  O  O431  1  0.62434035  0.50760157  0.50519933  1
  O  O432  1  0.36953564  0.36938555  0.12041867  1
  O  O433  1  0.37004880  0.36815056  0.61945896  1
  O  O434  1  0.36802510  0.86787408  0.12245883  1
  O  O435  1  0.36824095  0.86641867  0.62354019  1
  O  O436  1  0.87373925  0.36898136  0.11840075  1
  O  O437  1  0.87453410  0.36800678  0.61748090  1
  O  O438  1  0.87426797  0.86346403  0.12850730  1
  O  O439  1  0.86519760  0.87028143  0.62546174  1
  O  O440  1  0.12993661  0.13042805  0.37968854  1
  O  O441  1  0.13092016  0.12664071  0.88269819  1
  O  O442  1  0.13324042  0.62857580  0.38180384  1
  O  O443  1  0.13108165  0.62967051  0.88144510  1
  O  O444  1  0.62309061  0.13262055  0.38076567  1
  O  O445  1  0.63044851  0.13270537  0.87982419  1
  O  O446  1  0.62430918  0.63560528  0.37965750  1
  O  O447  1  0.62541326  0.63397419  0.88422345  1
