# generated using pymatgen
data_V3Zn3O8
_symmetry_space_group_name_H-M   'P 1'
_cell_length_a   17.08885338
_cell_length_b   17.08990503
_cell_length_c   17.09089375
_cell_angle_alpha   90.00188064
_cell_angle_beta   90.01028620
_cell_angle_gamma   89.98432105
_symmetry_Int_Tables_number   1
_chemical_formula_structural   V3Zn3O8
_chemical_formula_sum   'V96 Zn96 O256'
_cell_volume   4991.34195022
_cell_formula_units_Z   32
loop_
 _symmetry_equiv_pos_site_id
 _symmetry_equiv_pos_as_xyz
  1  'x, y, z'
loop_
 _atom_site_type_symbol
 _atom_site_label
 _atom_site_symmetry_multiplicity
 _atom_site_fract_x
 _atom_site_fract_y
 _atom_site_fract_z
 _atom_site_occupancy
  V  V0  1  0.74946190  0.74848734  0.00176465  1
  V  V1  1  0.24915125  0.49951893  0.24930721  1
  V  V2  1  0.49994486  0.75071022  0.25137392  1
  V  V3  1  0.75073152  0.62412771  0.37457697  1
  V  V4  1  0.00098461  0.49977360  0.49812355  1
  V  V5  1  0.87419822  0.75047523  0.12565230  1
  V  V6  1  0.24883783  0.00051672  0.24960657  1
  V  V7  1  0.12356883  0.62519096  0.00082957  1
  V  V8  1  0.62514306  0.25061220  0.37466716  1
  V  V9  1  0.49694847  -0.00220781  -0.00072034  1
  V  V10  1  0.50091892  0.37458864  0.87524668  1
  V  V11  1  0.37507986  0.62473396  0.75061369  1
  V  V12  1  0.50035933  0.87471504  0.37529461  1
  V  V13  1  0.62403360  0.37404752  0.25038872  1
  V  V14  1  0.24928464  0.24959221  0.00000758  1
  V  V15  1  0.49767936  0.12496670  0.12597761  1
  V  V16  1  0.87314522  0.87370775  0.00045267  1
  V  V17  1  0.62470482  0.12446181  -0.00051964  1
  V  V18  1  0.62557460  0.62437464  0.00043967  1
  V  V19  1  0.25018605  0.50025631  0.75033479  1
  V  V20  1  -0.00088011  0.37686651  0.87518242  1
  V  V21  1  0.87368246  0.37456240  -0.00024764  1
  V  V22  1  -0.00094573  0.75078975  0.25011877  1
  V  V23  1  0.12584779  0.62514824  0.49968973  1
  V  V24  1  0.87334540  -0.00110169  0.87448318  1
  V  V25  1  0.87534857  0.00171282  0.37437936  1
  V  V26  1  0.62373249  0.49864747  0.12518690  1
  V  V27  1  0.00090282  0.25248972  0.24985659  1
  V  V28  1  0.12692876  0.50045706  0.62445730  1
  V  V29  1  0.50047670  0.49967280  0.49983344  1
  V  V30  1  0.62594935  0.49971694  0.62570992  1
  V  V31  1  0.12509345  0.37492057  0.75098420  1
  V  V32  1  -0.00096595  0.87434871  0.87401749  1
  V  V33  1  0.37579416  0.87606627  0.50046420  1
  V  V34  1  0.50066563  0.62408943  0.62601029  1
  V  V35  1  -0.00146255  0.12504794  0.12347956  1
  V  V36  1  0.87579524  0.12489649  0.74708552  1
  V  V37  1  0.25074677  0.12401880  0.87401969  1
  V  V38  1  0.62598847  -0.00226798  0.12827200  1
  V  V39  1  0.25079974  0.00130601  0.75018814  1
  V  V40  1  0.87728828  0.37545615  0.49800068  1
  V  V41  1  0.12318123  0.12428554  -0.00109117  1
  V  V42  1  0.50136259  0.24848102  0.75023478  1
  V  V43  1  0.75304690  0.37460956  0.62519782  1
  V  V44  1  0.25022245  0.87687566  0.62549225  1
  V  V45  1  0.87586234  0.75095422  0.62329829  1
  V  V46  1  0.37604911  0.49959425  0.37559470  1
  V  V47  1  0.50018374  0.74856449  0.75149963  1
  V  V48  1  0.25089241  0.62491216  0.37456772  1
  V  V49  1  0.12592589  0.12675167  0.50026354  1
  V  V50  1  0.00154520  0.62607458  0.62395139  1
  V  V51  1  0.25144598  0.37508361  0.62489255  1
  V  V52  1  0.74976276  0.50028186  0.25146747  1
  V  V53  1  0.24989916  0.12691231  0.37543220  1
  V  V54  1  0.62729629  0.87422582  0.74891245  1
  V  V55  1  0.37337873  0.37400581  0.00006595  1
  V  V56  1  0.87454706  0.62294849  0.75142398  1
  V  V57  1  -0.00009071  0.62436593  0.12525996  1
  V  V58  1  0.62561023  0.74715491  0.87713526  1
  V  V59  1  0.37524110  0.74995707  0.62561645  1
  V  V60  1  0.62567776  0.12530402  0.50157194  1
  V  V61  1  0.24955139  0.75106155  0.00057410  1
  V  V62  1  0.37510148  0.00069890  0.37565921  1
  V  V63  1  0.62586668  0.62545555  0.50090066  1
  V  V64  1  0.37456287  0.12558322  0.24949088  1
  V  V65  1  0.12580996  0.00173445  0.62433233  1
  V  V66  1  0.62439770  0.75060326  0.37550903  1
  V  V67  1  0.00121361  0.75124532  0.74927744  1
  V  V68  1  0.50122959  0.00125083  0.50072075  1
  V  V69  1  0.12430396  0.75110893  0.87417271  1
  V  V70  1  0.74844604  0.12457141  0.87479169  1
  V  V71  1  0.49943590  0.49904201  0.00056355  1
  V  V72  1  0.87465831  0.12517352  0.24938388  1
  V  V73  1  0.49920611  0.62484269  0.12560796  1
  V  V74  1  0.37373108  0.75052615  0.12522875  1
  V  V75  1  0.25085393  0.25084826  0.50004210  1
  V  V76  1  0.62664377  0.37537567  0.74992630  1
  V  V77  1  0.50085783  0.37558973  0.37472047  1
  V  V78  1  0.75041219  0.12541082  0.37370282  1
  V  V79  1  0.24714680  0.37548549  0.12574887  1
  V  V80  1  0.12549364  0.87661490  0.24994054  1
  V  V81  1  0.49929592  0.87341580  0.87643425  1
  V  V82  1  0.24944265  0.87504664  0.12518609  1
  V  V83  1  0.00056401  0.87655219  0.37476738  1
  V  V84  1  0.37408671  0.49969725  0.87539916  1
  V  V85  1  0.37721205  0.24903253  0.62514916  1
  V  V86  1  0.00092479  0.00273247  0.50028976  1
  V  V87  1  0.87516034  0.87532408  0.49977867  1
  V  V88  1  -0.00127419  0.00050055  -0.00059045  1
  V  V89  1  0.24890949  0.62609377  0.87564461  1
  V  V90  1  0.75101572  0.75032878  0.49967095  1
  V  V91  1  0.25088754  0.75058981  0.50012694  1
  V  V92  1  0.12478476  0.25065224  0.87453351  1
  V  V93  1  0.37469766  0.62523152  0.25038567  1
  V  V94  1  0.74880662  0.37346861  0.12387769  1
  V  V95  1  0.12579381  0.75091602  0.37523805  1
  Zn  Zn96  1  0.74947521  0.87529118  0.62433425  1
  Zn  Zn97  1  0.87849606  0.24838804  0.62356038  1
  Zn  Zn98  1  0.87302354  0.50029794  0.87557322  1
  Zn  Zn99  1  0.87172831  0.24866779  0.12386101  1
  Zn  Zn100  1  0.62540203  0.25003728  0.87567162  1
  Zn  Zn101  1  0.75098583  0.62139578  0.87592210  1
  Zn  Zn102  1  0.74704778  0.25006835  0.00028491  1
  Zn  Zn103  1  0.75323119  0.24966531  0.49955385  1
  Zn  Zn104  1  0.75146566  0.50007536  0.75192638  1
  Zn  Zn105  1  0.37827432  0.12221772  0.75233475  1
  Zn  Zn106  1  0.37387226  -0.00135516  0.87361912  1
  Zn  Zn107  1  0.37435149  0.24871745  0.12590777  1
  Zn  Zn108  1  0.62734659  0.87476562  0.25136824  1
  Zn  Zn109  1  0.12561377  0.25340221  0.37470658  1
  Zn  Zn110  1  0.87716062  0.50130696  0.37247326  1
  Zn  Zn111  1  0.62536380  -0.00140299  0.62540583  1
  Zn  Zn112  1  -0.00000792  0.24965658  0.74767413  1
  Zn  Zn113  1  0.00259831  0.37713887  0.37291868  1
  Zn  Zn114  1  0.74917190  0.87345833  0.12822335  1
  Zn  Zn115  1  0.49829735  0.25017355  0.24885537  1
  Zn  Zn116  1  0.00027506  0.50041022  0.00108925  1
  Zn  Zn117  1  0.37621749  0.37524085  0.49913609  1
  Zn  Zn118  1  0.12308040  0.50023328  0.12566029  1
  Zn  Zn119  1  0.87426580  0.62447961  0.25136689  1
  Zn  Zn120  1  0.74877056  -0.00151299  0.74641842  1
  Zn  Zn121  1  0.50252008  0.12279457  0.62695733  1
  Zn  Zn122  1  0.12445885  -0.00023625  0.12410417  1
  Zn  Zn123  1  0.37289425  0.87369036  -0.00144495  1
  Zn  Zn124  1  0.12447254  0.87655336  0.74898130  1
  Zn  Zn125  1  0.75100395  -0.00218696  0.24956805  1
  Zn  Zn126  1  0.12297399  0.37715188  0.25178039  1
  Zn  Zn127  1  0.00010698  0.12757031  0.62462680  1
  Zn  Zn128  1  0.18492351  0.18739101  0.18610815  1
  Zn  Zn129  1  0.18839935  0.18728738  0.68804839  1
  Zn  Zn130  1  0.18607069  0.68847324  0.18783258  1
  Zn  Zn131  1  0.18756738  0.68868349  0.68801035  1
  Zn  Zn132  1  0.68693291  0.18739155  0.18733237  1
  Zn  Zn133  1  0.69019236  0.18924932  0.68661222  1
  Zn  Zn134  1  0.68685417  0.68709163  0.18856614  1
  Zn  Zn135  1  0.68984816  0.68905634  0.68732318  1
  Zn  Zn136  1  0.31415813  0.31202455  0.31160548  1
  Zn  Zn137  1  0.31302438  0.31123501  0.81228480  1
  Zn  Zn138  1  0.31307375  0.81378178  0.31211754  1
  Zn  Zn139  1  0.31246119  0.81505181  0.81234925  1
  Zn  Zn140  1  0.81302794  0.31203734  0.31280456  1
  Zn  Zn141  1  0.81325370  0.30895583  0.81224624  1
  Zn  Zn142  1  0.81151531  0.81399397  0.31134438  1
  Zn  Zn143  1  0.81171902  0.80768605  0.81421965  1
  Zn  Zn144  1  0.18738258  0.43476426  0.43595395  1
  Zn  Zn145  1  0.18514201  0.43939014  0.93973172  1
  Zn  Zn146  1  0.18799976  0.93956525  0.43788336  1
  Zn  Zn147  1  0.18548875  0.93787395  0.93664874  1
  Zn  Zn148  1  0.68864272  0.43795442  0.43792754  1
  Zn  Zn149  1  0.68914325  0.43874716  0.93497419  1
  Zn  Zn150  1  0.68902554  0.93851071  0.43659547  1
  Zn  Zn151  1  0.68701796  0.93637977  0.93821487  1
  Zn  Zn152  1  0.31139252  0.06201095  0.06269445  1
  Zn  Zn153  1  0.31328644  0.06508306  0.56346067  1
  Zn  Zn154  1  0.31136869  0.56240540  0.06275567  1
  Zn  Zn155  1  0.31387432  0.56254421  0.56187348  1
  Zn  Zn156  1  0.81207388  0.06242687  0.06232430  1
  Zn  Zn157  1  0.80866288  0.05841591  0.56385153  1
  Zn  Zn158  1  0.81299603  0.56056384  0.06373000  1
  Zn  Zn159  1  0.81397231  0.56119113  0.56259059  1
  Zn  Zn160  1  0.43523991  0.43637548  0.18809542  1
  Zn  Zn161  1  0.43859686  0.43594947  0.68810103  1
  Zn  Zn162  1  0.43640726  0.93687631  0.18834592  1
  Zn  Zn163  1  0.43902670  0.93837445  0.68810337  1
  Zn  Zn164  1  0.93375018  0.43779949  0.18618035  1
  Zn  Zn165  1  0.94005264  0.43853285  0.68569974  1
  Zn  Zn166  1  0.93740483  0.93847682  0.18632967  1
  Zn  Zn167  1  0.93750723  0.93947871  0.68648368  1
  Zn  Zn168  1  0.06312174  0.06592157  0.31253133  1
  Zn  Zn169  1  0.06206275  0.06158531  0.81186060  1
  Zn  Zn170  1  0.06322241  0.56161111  0.31165366  1
  Zn  Zn171  1  0.06154267  0.56226115  0.81256612  1
  Zn  Zn172  1  0.56183432  0.06390368  0.31299851  1
  Zn  Zn173  1  0.56310946  0.06012451  0.81370978  1
  Zn  Zn174  1  0.56363261  0.56266845  0.31274760  1
  Zn  Zn175  1  0.56351989  0.56043329  0.81338732  1
  Zn  Zn176  1  0.43908484  0.18865181  0.43668050  1
  Zn  Zn177  1  0.43548728  0.18621011  0.93774785  1
  Zn  Zn178  1  0.43811979  0.68690433  0.43831585  1
  Zn  Zn179  1  0.43688704  0.68723791  0.93899865  1
  Zn  Zn180  1  0.93869190  0.18972819  0.43596826  1
  Zn  Zn181  1  0.93560501  0.18974841  0.93522209  1
  Zn  Zn182  1  0.93709557  0.68721166  0.43598657  1
  Zn  Zn183  1  0.93733686  0.68882475  0.93798975  1
  Zn  Zn184  1  0.06127240  0.31073968  0.06281666  1
  Zn  Zn185  1  0.06198586  0.31075482  0.56442577  1
  Zn  Zn186  1  0.06208148  0.81285215  0.06237395  1
  Zn  Zn187  1  0.06312404  0.81507101  0.56215370  1
  Zn  Zn188  1  0.56192369  0.30921171  0.06273612  1
  Zn  Zn189  1  0.56447578  0.31279007  0.56164106  1
  Zn  Zn190  1  0.56223093  0.81254531  0.06386176  1
  Zn  Zn191  1  0.56178899  0.81171118  0.56290675  1
  O  O192  1  0.11730319  0.12259078  0.11617545  1
  O  O193  1  0.12620143  0.11857965  0.61772304  1
  O  O194  1  0.11488047  0.62818672  0.11964409  1
  O  O195  1  0.12176997  0.62050290  0.61915521  1
  O  O196  1  0.61831700  0.11585298  0.11989132  1
  O  O197  1  0.62525128  0.12568915  0.61255362  1
  O  O198  1  0.61771576  0.61856630  0.12018864  1
  O  O199  1  0.61991606  0.62059929  0.62074120  1
  O  O200  1  0.38188154  0.38282058  0.37594335  1
  O  O201  1  0.37954383  0.38099684  0.88007066  1
  O  O202  1  0.37982599  0.88059935  0.38155612  1
  O  O203  1  0.38388793  0.87608479  0.87853829  1
  O  O204  1  0.87618583  0.37828388  0.38719494  1
  O  O205  1  0.88353681  0.37473255  0.88057602  1
  O  O206  1  0.88209959  0.88074431  0.38027147  1
  O  O207  1  0.87942498  0.87821867  0.88017639  1
  O  O208  1  0.25651391  0.00579572  0.37018677  1
  O  O209  1  0.24988271  0.00568728  0.86829646  1
  O  O210  1  0.25622132  0.50642105  0.37025718  1
  O  O211  1  0.25447982  0.50597940  0.87008095  1
  O  O212  1  0.75795069  0.00759202  0.37366032  1
  O  O213  1  0.75468410  0.00868976  0.87388689  1
  O  O214  1  0.74921610  0.50720731  0.36892981  1
  O  O215  1  0.75471280  0.50443402  0.86893000  1
  O  O216  1  0.24986711  0.49170349  0.13030356  1
  O  O217  1  0.24656807  0.49605708  0.63065763  1
  O  O218  1  0.24778746  0.99307218  0.13162141  1
  O  O219  1  0.24645714  0.99579927  0.62955042  1
  O  O220  1  0.74203165  0.49394906  0.13055521  1
  O  O221  1  0.74450576  0.49058209  0.62676059  1
  O  O222  1  0.73672351  0.99903813  0.12404442  1
  O  O223  1  0.74287552  0.99189668  0.62900741  1
  O  O224  1  -0.00044654  0.36510265  0.24732104  1
  O  O225  1  0.00660332  0.37590255  0.75917157  1
  O  O226  1  0.00586030  0.87079481  0.25566690  1
  O  O227  1  0.00029829  0.86876748  0.75609537  1
  O  O228  1  0.50646564  0.37548641  0.25629335  1
  O  O229  1  0.50554391  0.36750237  0.75515711  1
  O  O230  1  0.49967110  0.86787937  0.25818816  1
  O  O231  1  0.50728300  0.86719069  0.75580384  1
  O  O232  1  0.49176263  0.12435172  0.24407197  1
  O  O233  1  0.50128731  0.13600696  0.74895051  1
  O  O234  1  0.49415626  0.63005137  0.24510564  1
  O  O235  1  0.49436643  0.62881355  0.74542701  1
  O  O236  1  0.99478143  0.13211374  0.24404954  1
  O  O237  1  0.98739097  0.12462864  0.75014912  1
  O  O238  1  1.00029690  0.63262976  0.24115048  1
  O  O239  1  0.99468916  0.63102144  0.74343238  1
  O  O240  1  0.36703361  0.25686181  0.00092060  1
  O  O241  1  0.37135965  0.25199150  0.50976027  1
  O  O242  1  0.36751700  0.74955675  0.00765951  1
  O  O243  1  0.37028211  0.75494037  0.50583900  1
  O  O244  1  0.87253933  0.26309260  0.00017057  1
  O  O245  1  0.87432323  0.26179982  0.50199753  1
  O  O246  1  0.86922439  0.75483574  0.00552295  1
  O  O247  1  0.87122606  0.75555617  0.50399394  1
  O  O248  1  0.13380163  0.24413398  0.50059104  1
  O  O249  1  0.12988374  0.24407461  0.99359063  1
  O  O250  1  0.13148846  0.74524888  0.49486931  1
  O  O251  1  0.13023184  0.74484137  0.99374840  1
  O  O252  1  0.62649806  0.24090613  0.49362594  1
  O  O253  1  0.62463925  0.23962486  0.99575821  1
  O  O254  1  0.62977394  0.74407786  0.49546600  1
  O  O255  1  0.62889916  0.74367924  0.99698855  1
  O  O256  1  0.49591476  0.24031480  0.12680865  1
  O  O257  1  0.49345503  0.25183218  0.63384086  1
  O  O258  1  0.49423529  0.74395861  0.13082536  1
  O  O259  1  0.49389066  0.74314951  0.63080317  1
  O  O260  1  0.99692861  0.24322218  0.13262872  1
  O  O261  1  0.99667534  0.24539435  0.63061401  1
  O  O262  1  0.99500397  0.74320706  0.13003533  1
  O  O263  1  0.99628632  0.74507450  0.62856822  1
  O  O264  1  0.00167602  0.25200980  0.36164635  1
  O  O265  1  0.00628443  0.26171529  0.87326143  1
  O  O266  1  0.00657683  0.75628764  0.37067355  1
  O  O267  1  0.00512740  0.75523405  0.86932818  1
  O  O268  1  0.50691533  0.25794607  0.37333547  1
  O  O269  1  0.49922775  0.25562844  0.86482928  1
  O  O270  1  0.50419730  0.75463981  0.37138914  1
  O  O271  1  0.50546345  0.75269093  0.87071997  1
  O  O272  1  0.24619503  0.13106648  0.49478644  1
  O  O273  1  0.24350363  0.12931944  0.99474852  1
  O  O274  1  0.24572745  0.63089389  0.49471475  1
  O  O275  1  0.24482948  0.63111910  0.99451263  1
  O  O276  1  0.74102208  0.12606166  0.49336239  1
  O  O277  1  0.74473210  0.12459461  0.98999750  1
  O  O278  1  0.74451413  0.63003606  0.49589810  1
  O  O279  1  0.74286967  0.63004040  1.00106453  1
  O  O280  1  0.25380238  0.37075439  0.00630815  1
  O  O281  1  0.25344418  0.36966122  0.50800138  1
  O  O282  1  0.24980365  0.86877164  0.00632038  1
  O  O283  1  0.25657365  0.87001973  0.50470316  1
  O  O284  1  0.75716606  0.37395844  0.00421066  1
  O  O285  1  0.75902952  0.37647126  0.50874668  1
  O  O286  1  0.75573930  0.86716003  0.00212967  1
  O  O287  1  0.75758267  0.86740634  0.49857041  1
  O  O288  1  0.13429526  0.49892750  0.24594911  1
  O  O289  1  0.13151961  0.49591566  0.74446940  1
  O  O290  1  0.13131898  0.99398603  0.24983952  1
  O  O291  1  0.13224925  0.99892207  0.74280791  1
  O  O292  1  0.62918949  0.49419497  0.24407127  1
  O  O293  1  0.62503460  0.49308948  0.74236193  1
  O  O294  1  0.62401774  0.99944034  0.23899584  1
  O  O295  1  0.62418907  0.98536270  0.75045102  1
  O  O296  1  0.36846133  0.00499176  0.25657401  1
  O  O297  1  0.36771191  0.00210656  0.75181540  1
  O  O298  1  0.36958575  0.50687791  0.25590683  1
  O  O299  1  0.37022362  0.50487197  0.75557899  1
  O  O300  1  0.87639766  0.00751703  0.25705549  1
  O  O301  1  0.87227200  0.00734271  0.75667079  1
  O  O302  1  0.86454868  0.50257974  0.25159499  1
  O  O303  1  0.87739784  0.51352631  0.74836598  1
  O  O304  1  0.12144157  0.37079207  0.37010587  1
  O  O305  1  0.11820697  0.37120730  0.87149631  1
  O  O306  1  0.12068474  0.87015012  0.37067380  1
  O  O307  1  0.11680913  0.86806563  0.87317086  1
  O  O308  1  0.62068093  0.37089295  0.37028660  1
  O  O309  1  0.61825481  0.37329322  0.86858098  1
  O  O310  1  0.61743496  0.86825812  0.37609601  1
  O  O311  1  0.61895237  0.86700609  0.86882655  1
  O  O312  1  0.37996100  0.12418078  0.13163146  1
  O  O313  1  0.37857886  0.13872456  0.62719526  1
  O  O314  1  0.37965219  0.63007756  0.13085607  1
  O  O315  1  0.38049012  0.63002313  0.63126367  1
  O  O316  1  0.88085978  0.12605720  0.13018534  1
  O  O317  1  0.87278017  0.12421566  0.63593450  1
  O  O318  1  0.88482351  0.63149996  0.12587788  1
  O  O319  1  0.88229900  0.63096924  0.63048556  1
  O  O320  1  0.25018050  0.25890024  0.11828333  1
  O  O321  1  0.25945379  0.25545576  0.62167891  1
  O  O322  1  0.25445959  0.75495649  0.12061249  1
  O  O323  1  0.25597894  0.75508820  0.61973870  1
  O  O324  1  0.75071881  0.25788531  0.12167354  1
  O  O325  1  0.75280053  0.26410626  0.62193442  1
  O  O326  1  0.75578620  0.74983085  0.11941168  1
  O  O327  1  0.75783877  0.75161290  0.61678179  1
  O  O328  1  0.25139578  0.24389579  0.38228758  1
  O  O329  1  0.24411517  0.24553873  0.88048121  1
  O  O330  1  0.24605913  0.74508768  0.38053913  1
  O  O331  1  0.24477852  0.74495239  0.87963202  1
  O  O332  1  0.74299104  0.24367745  0.37729967  1
  O  O333  1  0.74722198  0.23623835  0.87610750  1
  O  O334  1  0.74401046  0.74432211  0.38075908  1
  O  O335  1  0.74319885  0.74458420  0.88393888  1
  O  O336  1  0.00285561  0.12081432  0.00254876  1
  O  O337  1  0.00713784  0.11924656  0.49987437  1
  O  O338  1  0.00440084  0.62659083  0.00978775  1
  O  O339  1  0.00706384  0.62130029  0.50487346  1
  O  O340  1  0.50383656  0.11498403  0.00395764  1
  O  O341  1  0.51057353  0.11995523  0.49914429  1
  O  O342  1  0.50443290  0.61876686  0.00652791  1
  O  O343  1  0.50601308  0.62025019  0.50654872  1
  O  O344  1  0.50038760  0.38277878  0.49361122  1
  O  O345  1  0.49394211  0.38010846  0.99543579  1
  O  O346  1  0.49419005  0.87975899  0.49520415  1
  O  O347  1  0.49963859  0.88310075  0.99568807  1
  O  O348  1  0.99198517  0.38152973  0.50180120  1
  O  O349  1  0.99271103  0.37565391  0.99229829  1
  O  O350  1  0.99563326  0.88148727  0.49325467  1
  O  O351  1  0.99332844  0.87934257  0.99369258  1
  O  O352  1  0.49586814  0.49612042  0.38048078  1
  O  O353  1  0.49348572  0.49430222  0.88081208  1
  O  O354  1  0.49383718  0.99460578  0.38086797  1
  O  O355  1  0.50080130  0.99344354  0.88601754  1
  O  O356  1  0.99816880  0.49915567  0.38277956  1
  O  O357  1  0.99921553  0.48778179  0.87752083  1
  O  O358  1  0.99557735  0.99565515  0.38047980  1
  O  O359  1  0.99307302  0.99395738  0.88023620  1
  O  O360  1  0.00110616  0.00659039  0.11668832  1
  O  O361  1  0.00725369  0.00236710  0.61722046  1
  O  O362  1  0.00062479  0.51318302  0.12493731  1
  O  O363  1  0.00881399  0.50685051  0.61885791  1
  O  O364  1  0.50573565  0.00352055  0.11736866  1
  O  O365  1  0.50401497  0.00301398  0.61679058  1
  O  O366  1  0.50343620  0.50510515  0.12003761  1
  O  O367  1  0.50519101  0.50505594  0.62052589  1
  O  O368  1  0.25125477  0.38033325  0.23981203  1
  O  O369  1  0.24520996  0.38135736  0.74552904  1
  O  O370  1  0.24489709  0.88031416  0.24579175  1
  O  O371  1  0.24833341  0.88218478  0.74271460  1
  O  O372  1  0.74324116  0.38010813  0.24470577  1
  O  O373  1  0.74655363  0.37531297  0.74074338  1
  O  O374  1  0.74541726  0.87984628  0.24626862  1
  O  O375  1  0.73759428  0.87139688  0.75155710  1
  O  O376  1  0.25407624  0.11982309  0.25484260  1
  O  O377  1  0.25197864  0.11851187  0.75632044  1
  O  O378  1  0.25552014  0.62119765  0.25534307  1
  O  O379  1  0.25550054  0.62008893  0.75561619  1
  O  O380  1  0.75685018  0.12296635  0.25596478  1
  O  O381  1  0.75602415  0.12275464  0.75841234  1
  O  O382  1  0.74902690  0.61816301  0.25663670  1
  O  O383  1  0.76315624  0.62530828  0.74975916  1
  O  O384  1  0.36982672  0.11924649  0.37061147  1
  O  O385  1  0.36588380  0.12184045  0.87297775  1
  O  O386  1  0.37036308  0.62024898  0.36997299  1
  O  O387  1  0.36921885  0.61951992  0.87016547  1
  O  O388  1  0.86992900  0.12054310  0.37005818  1
  O  O389  1  0.86701067  0.11939854  0.86859677  1
  O  O390  1  0.86633858  0.62321278  0.37304306  1
  O  O391  1  0.87731767  0.62437474  0.86322277  1
  O  O392  1  0.13721385  0.37694035  0.12438782  1
  O  O393  1  0.13181936  0.38160836  0.63111934  1
  O  O394  1  0.13086230  0.87572455  0.13223704  1
  O  O395  1  0.13317259  0.88276106  0.62424632  1
  O  O396  1  0.62816566  0.38033760  0.12961487  1
  O  O397  1  0.63403404  0.38018374  0.62861613  1
  O  O398  1  0.62411439  0.88598707  0.12713476  1
  O  O399  1  0.62480667  0.87128654  0.63784989  1
  O  O400  1  0.11284106  0.25090606  0.24995191  1
  O  O401  1  0.12557447  0.25778613  0.75725930  1
  O  O402  1  0.12014607  0.75672494  0.25696144  1
  O  O403  1  0.11896923  0.75168530  0.75591690  1
  O  O404  1  0.62231742  0.25652312  0.25699175  1
  O  O405  1  0.61529492  0.25628608  0.74968994  1
  O  O406  1  0.61669199  0.75011606  0.25743545  1
  O  O407  1  0.61891152  0.75411649  0.75628346  1
  O  O408  1  0.37728126  0.24054583  0.24727924  1
  O  O409  1  0.38500445  0.25049186  0.74209699  1
  O  O410  1  0.37964989  0.74397190  0.24555117  1
  O  O411  1  0.37993000  0.74396331  0.74504867  1
  O  O412  1  0.88383766  0.24375611  0.24813658  1
  O  O413  1  0.87659822  0.23650365  0.74874502  1
  O  O414  1  0.88238588  0.74918488  0.24428651  1
  O  O415  1  0.88164002  0.74210090  0.74403275  1
  O  O416  1  0.38266632  0.49990348  0.49385234  1
  O  O417  1  0.37960159  0.49514854  0.99416959  1
  O  O418  1  0.38022902  0.99552002  0.49526927  1
  O  O419  1  0.38743753  0.99769375  0.99994215  1
  O  O420  1  0.88269182  0.49165953  0.50032782  1
  O  O421  1  0.87771845  0.48737270  0.99830700  1
  O  O422  1  0.88109368  0.99528361  0.49392033  1
  O  O423  1  0.87952512  0.99380071  0.99385705  1
  O  O424  1  0.11587173  0.00689836  -0.00046844  1
  O  O425  1  0.12125328  0.00641340  0.50478188  1
  O  O426  1  0.12184374  0.50998604  0.00403496  1
  O  O427  1  0.12218617  0.50641825  0.50553022  1
  O  O428  1  0.61502785  0.00351918  0.00749574  1
  O  O429  1  0.61927927  0.01000637  0.49807515  1
  O  O430  1  0.61808123  0.50409634  0.00585657  1
  O  O431  1  0.61993615  0.50637303  0.50611729  1
  O  O432  1  0.36404958  0.37459830  0.11832809  1
  O  O433  1  0.37036202  0.36526319  0.62503052  1
  O  O434  1  0.36775218  0.86752506  0.12411395  1
  O  O435  1  0.37085184  0.86897892  0.61943143  1
  O  O436  1  0.86755157  0.37373458  0.11482359  1
  O  O437  1  0.86785729  0.37686019  0.61742892  1
  O  O438  1  0.87521642  0.86807418  0.11764737  1
  O  O439  1  0.87563482  0.86807148  0.61746256  1
  O  O440  1  0.13330484  0.12729812  0.38241908  1
  O  O441  1  0.12960782  0.13104834  0.87973109  1
  O  O442  1  0.13150195  0.63162260  0.38024788  1
  O  O443  1  0.12969057  0.63100301  0.87973913  1
  O  O444  1  0.62992324  0.13008080  0.38203667  1
  O  O445  1  0.63404899  0.12311289  0.88013104  1
  O  O446  1  0.62949033  0.63092470  0.38208528  1
  O  O447  1  0.62394638  0.62995141  0.88286497  1
