# generated using pymatgen
data_V3Zn3O8
_symmetry_space_group_name_H-M   'P 1'
_cell_length_a   17.09036525
_cell_length_b   17.08885272
_cell_length_c   17.09039635
_cell_angle_alpha   89.99238135
_cell_angle_beta   89.98227852
_cell_angle_gamma   89.99664371
_symmetry_Int_Tables_number   1
_chemical_formula_structural   V3Zn3O8
_chemical_formula_sum   'V96 Zn96 O256'
_cell_volume   4991.33088182
_cell_formula_units_Z   32
loop_
 _symmetry_equiv_pos_site_id
 _symmetry_equiv_pos_as_xyz
  1  'x, y, z'
loop_
 _atom_site_type_symbol
 _atom_site_label
 _atom_site_symmetry_multiplicity
 _atom_site_fract_x
 _atom_site_fract_y
 _atom_site_fract_z
 _atom_site_occupancy
  V  V0  1  0.37606617  0.74904491  0.62524948  1
  V  V1  1  0.62489690  0.37500652  0.24882061  1
  V  V2  1  0.50045781  0.37472407  0.87476858  1
  V  V3  1  0.00016588  0.00085685  0.00148314  1
  V  V4  1  0.49955703  -0.00008350  0.00025101  1
  V  V5  1  0.49995120  0.37377767  0.37456749  1
  V  V6  1  0.74994902  0.74928405  0.49740833  1
  V  V7  1  0.50033609  0.24927228  0.75019389  1
  V  V8  1  0.74817834  0.74979842  -0.00165277  1
  V  V9  1  0.74908549  0.50069234  0.24973088  1
  V  V10  1  0.00030094  0.87528628  0.87505715  1
  V  V11  1  0.49906252  0.87290793  0.87314616  1
  V  V12  1  0.12424895  0.12537376  0.00179738  1
  V  V13  1  0.87491398  0.25120746  0.62487084  1
  V  V14  1  0.62555811  0.49795444  0.62348801  1
  V  V15  1  0.75200069  0.00047553  0.25114704  1
  V  V16  1  0.25033838  0.12609902  0.37705311  1
  V  V17  1  0.00031573  0.62548496  0.62420227  1
  V  V18  1  0.62622385  0.37474387  0.74918684  1
  V  V19  1  0.87643094  0.37662247  -0.00091582  1
  V  V20  1  0.49963745  0.24818395  0.24798028  1
  V  V21  1  0.25024170  0.49900666  0.24985773  1
  V  V22  1  0.12371037  0.87488894  0.25214216  1
  V  V23  1  0.12516077  0.62514835  0.50053590  1
  V  V24  1  0.49948909  0.50041009  -0.00057755  1
  V  V25  1  0.87517254  0.00051630  0.87540303  1
  V  V26  1  0.62738786  0.24627901  0.37453043  1
  V  V27  1  0.25115333  0.87589682  0.62555747  1
  V  V28  1  -0.00038089  0.75149130  0.25125459  1
  V  V29  1  0.12544220  0.50052718  0.62530795  1
  V  V30  1  0.62449021  0.87247391  0.24937144  1
  V  V31  1  0.87690985  0.87776012  0.49961611  1
  V  V32  1  0.37448207  0.00040773  0.87497709  1
  V  V33  1  0.12509084  0.37455719  0.25083448  1
  V  V34  1  0.75102095  0.24947209  -0.00005192  1
  V  V35  1  0.87544905  0.24951181  0.12568649  1
  V  V36  1  0.75041670  0.87625639  0.62575505  1
  V  V37  1  0.49851755  0.62483887  0.12474198  1
  V  V38  1  0.00054394  0.25246709  0.75074808  1
  V  V39  1  0.62417828  -0.00147304  0.12334053  1
  V  V40  1  0.62435497  0.49946866  0.12555073  1
  V  V41  1  0.87670950  0.74986343  0.62587805  1
  V  V42  1  0.25011945  0.12455465  0.87518787  1
  V  V43  1  0.37482667  0.62386316  0.25022655  1
  V  V44  1  -0.00068593  0.37527753  0.37506728  1
  V  V45  1  0.87455334  0.62571028  0.74896598  1
  V  V46  1  0.24984630  0.37490964  0.12495625  1
  V  V47  1  0.24951214  -0.00046498  0.25126468  1
  V  V48  1  0.24951316  0.62594264  0.87495526  1
  V  V49  1  -0.00001125  0.24849977  0.25067685  1
  V  V50  1  0.25024156  0.87409119  0.12566249  1
  V  V51  1  0.87419055  0.49913291  0.37384945  1
  V  V52  1  0.50067375  0.62477747  0.62452162  1
  V  V53  1  0.62467558  0.87449739  0.75001348  1
  V  V54  1  0.87325673  0.87440889  -0.00080076  1
  V  V55  1  0.00063129  0.12597066  0.62596940  1
  V  V56  1  0.50109971  0.49873579  0.49964055  1
  V  V57  1  0.50109321  -0.00020394  0.50024040  1
  V  V58  1  0.75056789  0.00039300  0.75045617  1
  V  V59  1  0.24941498  0.24979974  0.00001187  1
  V  V60  1  0.87581697  0.50067176  0.87434996  1
  V  V61  1  0.50031378  0.87352701  0.37401679  1
  V  V62  1  0.25056659  0.25012181  0.50032656  1
  V  V63  1  0.00065744  0.00183048  0.50025882  1
  V  V64  1  0.75017957  0.37401464  0.62353240  1
  V  V65  1  0.37509766  0.24852987  0.12494177  1
  V  V66  1  0.12504772  0.75056177  0.87714172  1
  V  V67  1  0.75028887  0.12585274  0.87630679  1
  V  V68  1  0.37535330  0.87462682  0.50016396  1
  V  V69  1  0.37549975  -0.00044284  0.37475472  1
  V  V70  1  0.12250124  0.50221768  0.12285911  1
  V  V71  1  0.24913939  0.62444584  0.37631244  1
  V  V72  1  0.74858338  0.62514082  0.87358412  1
  V  V73  1  0.12464267  0.25181819  0.87522005  1
  V  V74  1  0.74979661  0.87296829  0.12311190  1
  V  V75  1  0.87562303  0.12633616  0.75087686  1
  V  V76  1  0.12587868  0.37612913  0.74994106  1
  V  V77  1  0.62412770  0.62478771  -0.00185079  1
  V  V78  1  0.12600684  0.00148872  0.62614816  1
  V  V79  1  0.25088425  0.00120557  0.75118354  1
  V  V80  1  0.37512550  0.12433250  0.24909111  1
  V  V81  1  0.12516834  0.87626201  0.75161796  1
  V  V82  1  0.37501683  0.37391113  0.50109306  1
  V  V83  1  0.50024335  0.74933688  0.25037627  1
  V  V84  1  0.37364721  0.50127552  0.87432394  1
  V  V85  1  0.37261738  0.75015963  0.12517963  1
  V  V86  1  0.37550983  0.49863486  0.37490820  1
  V  V87  1  0.50025000  0.12581475  0.62603744  1
  V  V88  1  0.12439963  0.00054202  0.12601833  1
  V  V89  1  0.25071200  0.37556426  0.62525122  1
  V  V90  1  0.62504659  0.00025503  0.62456668  1
  V  V91  1  0.62627294  0.25004826  0.87645190  1
  V  V92  1  0.24943823  0.74960546  0.50023322  1
  V  V93  1  0.37491386  0.37464641  -0.00036610  1
  V  V94  1  0.87495895  0.37422775  0.49939083  1
  V  V95  1  0.87490680  0.62622537  0.24903007  1
  Zn  Zn96  1  -0.00176772  0.50455532  0.00192844  1
  Zn  Zn97  1  0.62511048  0.74751234  0.37525580  1
  Zn  Zn98  1  0.37539137  0.25104003  0.62718691  1
  Zn  Zn99  1  -0.00009388  0.75042424  0.75035444  1
  Zn  Zn100  1  0.00126045  0.62702464  0.12389693  1
  Zn  Zn101  1  0.62672211  0.12362584  0.49833256  1
  Zn  Zn102  1  0.50001404  0.74909897  0.74869405  1
  Zn  Zn103  1  0.62240211  0.74687999  0.87138775  1
  Zn  Zn104  1  0.37234967  0.87287030  0.00004440  1
  Zn  Zn105  1  0.62812947  0.62309220  0.49794134  1
  Zn  Zn106  1  0.12598610  0.12693498  0.50032211  1
  Zn  Zn107  1  0.75119952  0.12182127  0.37763614  1
  Zn  Zn108  1  0.87662679  0.00341305  0.37320818  1
  Zn  Zn109  1  0.25121121  0.50128151  0.74961753  1
  Zn  Zn110  1  0.37447135  0.12753007  0.75071576  1
  Zn  Zn111  1  0.37531085  0.62557911  0.75006285  1
  Zn  Zn112  1  0.87548365  0.74847797  0.12278500  1
  Zn  Zn113  1  0.12080999  0.62568127  -0.00032249  1
  Zn  Zn114  1  0.12443652  0.75100378  0.37649318  1
  Zn  Zn115  1  -0.00005420  0.12386129  0.12736719  1
  Zn  Zn116  1  0.75025973  0.24534013  0.49951331  1
  Zn  Zn117  1  0.62565674  0.12544788  0.00126331  1
  Zn  Zn118  1  0.87391790  0.12462966  0.25224986  1
  Zn  Zn119  1  0.00007487  0.49990312  0.49880290  1
  Zn  Zn120  1  0.74789114  0.62555982  0.37466134  1
  Zn  Zn121  1  0.74909305  0.37510744  0.12474698  1
  Zn  Zn122  1  0.24954213  0.75091234  0.00211177  1
  Zn  Zn123  1  0.50054853  0.12359480  0.12356085  1
  Zn  Zn124  1  0.00256292  0.87724742  0.37613432  1
  Zn  Zn125  1  0.12441074  0.24955413  0.37740687  1
  Zn  Zn126  1  0.74985318  0.50025961  0.74735485  1
  Zn  Zn127  1  0.00292341  0.37912166  0.87548391  1
  Zn  Zn128  1  0.18782950  0.18687547  0.18857178  1
  Zn  Zn129  1  0.18741568  0.18894633  0.68710871  1
  Zn  Zn130  1  0.18694118  0.68765257  0.19018074  1
  Zn  Zn131  1  0.18749938  0.68823820  0.68923376  1
  Zn  Zn132  1  0.68643960  0.18494224  0.18549779  1
  Zn  Zn133  1  0.68729422  0.18808558  0.68822988  1
  Zn  Zn134  1  0.68729444  0.68694939  0.18559398  1
  Zn  Zn135  1  0.68688624  0.68749156  0.68641302  1
  Zn  Zn136  1  0.31277366  0.31095508  0.31299571  1
  Zn  Zn137  1  0.31292561  0.31256169  0.81131771  1
  Zn  Zn138  1  0.31211665  0.81118201  0.31282319  1
  Zn  Zn139  1  0.31396476  0.81152499  0.81076184  1
  Zn  Zn140  1  0.81101620  0.31434275  0.31151768  1
  Zn  Zn141  1  0.81213094  0.31407643  0.81185765  1
  Zn  Zn142  1  0.81494079  0.81556512  0.31395897  1
  Zn  Zn143  1  0.81163065  0.81109561  0.81316243  1
  Zn  Zn144  1  0.18628553  0.43693810  0.43847916  1
  Zn  Zn145  1  0.18808931  0.43882879  0.93794287  1
  Zn  Zn146  1  0.18650432  0.93756176  0.43777723  1
  Zn  Zn147  1  0.18793956  0.93739372  0.94031664  1
  Zn  Zn148  1  0.68882825  0.43481458  0.43688792  1
  Zn  Zn149  1  0.68940782  0.43777404  0.93733876  1
  Zn  Zn150  1  0.68567634  0.93521543  0.43620999  1
  Zn  Zn151  1  0.68547822  0.93704157  0.93623877  1
  Zn  Zn152  1  0.31230952  0.06102965  0.06238581  1
  Zn  Zn153  1  0.31503824  0.06376697  0.56269597  1
  Zn  Zn154  1  0.30992351  0.56408745  0.05994435  1
  Zn  Zn155  1  0.31286068  0.56167495  0.56241980  1
  Zn  Zn156  1  0.81269026  0.06292689  0.06415830  1
  Zn  Zn157  1  0.81174577  0.06583537  0.56218817  1
  Zn  Zn158  1  0.81004293  0.56350356  0.06349385  1
  Zn  Zn159  1  0.81402096  0.56133515  0.56177424  1
  Zn  Zn160  1  0.43794819  0.43616637  0.18718601  1
  Zn  Zn161  1  0.43672283  0.43853176  0.68906126  1
  Zn  Zn162  1  0.43646892  0.93576736  0.18704362  1
  Zn  Zn163  1  0.43676586  0.93903950  0.68856358  1
  Zn  Zn164  1  0.93734813  0.43653530  0.18832617  1
  Zn  Zn165  1  0.93917155  0.43856006  0.68652512  1
  Zn  Zn166  1  0.93639160  0.93501060  0.18543881  1
  Zn  Zn167  1  0.93879247  0.93825366  0.68781841  1
  Zn  Zn168  1  0.06413071  0.06462872  0.31514010  1
  Zn  Zn169  1  0.06320303  0.06388355  0.81367320  1
  Zn  Zn170  1  0.06189260  0.56276309  0.31237343  1
  Zn  Zn171  1  0.06145555  0.56382577  0.80971888  1
  Zn  Zn172  1  0.56278482  0.06107693  0.30964365  1
  Zn  Zn173  1  0.56424303  0.06313935  0.81275220  1
  Zn  Zn174  1  0.56467598  0.56412938  0.31471551  1
  Zn  Zn175  1  0.56216837  0.56041710  0.80987377  1
  Zn  Zn176  1  0.43785863  0.18705252  0.43827615  1
  Zn  Zn177  1  0.43746307  0.18634583  0.93679560  1
  Zn  Zn178  1  0.43717906  0.68678142  0.43836494  1
  Zn  Zn179  1  0.43465413  0.68858725  0.93878686  1
  Zn  Zn180  1  0.93368748  0.18595530  0.43595256  1
  Zn  Zn181  1  0.93960319  0.18819983  0.93743270  1
  Zn  Zn182  1  0.93808484  0.68736929  0.43587108  1
  Zn  Zn183  1  0.93816691  0.68676099  0.93869341  1
  Zn  Zn184  1  0.06091034  0.31460905  0.06261636  1
  Zn  Zn185  1  0.06341983  0.31321325  0.56156886  1
  Zn  Zn186  1  0.06182385  0.81390063  0.06405463  1
  Zn  Zn187  1  0.06422937  0.81202526  0.56504616  1
  Zn  Zn188  1  0.56213565  0.31251431  0.06230609  1
  Zn  Zn189  1  0.56361104  0.31101768  0.56074260  1
  Zn  Zn190  1  0.56193365  0.81131493  0.06141157  1
  Zn  Zn191  1  0.56414981  0.81241335  0.56206999  1
  O  O192  1  0.12443443  0.11850244  0.11929951  1
  O  O193  1  0.11805407  0.11862696  0.62493350  1
  O  O194  1  0.12698759  0.61281838  0.12523641  1
  O  O195  1  0.12098491  0.62095386  0.62063559  1
  O  O196  1  0.62103276  0.11508505  0.12081596  1
  O  O197  1  0.61523304  0.11881405  0.62558005  1
  O  O198  1  0.61756807  0.61875454  0.11893810  1
  O  O199  1  0.61692536  0.61810066  0.62124480  1
  O  O200  1  0.38056739  0.38013429  0.37965334  1
  O  O201  1  0.38041177  0.37990874  0.88142079  1
  O  O202  1  0.38004373  0.88022690  0.38039761  1
  O  O203  1  0.38398261  0.88097171  0.87529392  1
  O  O204  1  0.87996746  0.37925469  0.37914764  1
  O  O205  1  0.87524211  0.38386057  0.88250851  1
  O  O206  1  0.87899990  0.87991508  0.38978632  1
  O  O207  1  0.87966639  0.88137838  0.87951180  1
  O  O208  1  0.25648767  0.00481386  0.37085755  1
  O  O209  1  0.25431462  0.00495307  0.87134707  1
  O  O210  1  0.25628117  0.50383042  0.36947947  1
  O  O211  1  0.25492723  0.50976149  0.87498155  1
  O  O212  1  0.74958502  -0.00344753  0.36149204  1
  O  O213  1  0.75572194  0.00515977  0.86987244  1
  O  O214  1  0.75678850  0.50044967  0.36721484  1
  O  O215  1  0.76049780  0.50564176  0.87331849  1
  O  O216  1  0.24365296  0.49425846  0.12994313  1
  O  O217  1  0.24376319  0.49404475  0.62651893  1
  O  O218  1  0.24426114  0.99490078  0.13242471  1
  O  O219  1  0.24633904  0.99536921  0.63026553  1
  O  O220  1  0.74140857  0.49863950  0.13136803  1
  O  O221  1  0.74358944  0.49252981  0.62456456  1
  O  O222  1  0.74452168  0.99280749  0.13058133  1
  O  O223  1  0.74564115  0.99571585  0.63132346  1
  O  O224  1  0.00432141  0.36599784  0.25462556  1
  O  O225  1  0.00716686  0.36930919  0.75165468  1
  O  O226  1  0.00414763  0.86768554  0.25210886  1
  O  O227  1  0.00678183  0.87545482  0.75730706  1
  O  O228  1  0.50448829  0.36852562  0.25530810  1
  O  O229  1  0.50657874  0.36950123  0.75595669  1
  O  O230  1  0.50431324  0.86876206  0.25462417  1
  O  O231  1  0.50514993  0.87661702  0.75881928  1
  O  O232  1  0.49211325  0.12961495  0.24704600  1
  O  O233  1  0.50044076  0.12979007  0.74215478  1
  O  O234  1  0.49379941  0.62849129  0.24452019  1
  O  O235  1  0.49913734  0.62552628  0.73589441  1
  O  O236  1  0.99856108  0.13690598  0.24877813  1
  O  O237  1  0.99486960  0.13122732  0.74603751  1
  O  O238  1  0.99201572  0.63333090  0.24916536  1
  O  O239  1  0.99245369  0.62826255  0.74219315  1
  O  O240  1  0.36922868  0.25486549  0.00436564  1
  O  O241  1  0.36972582  0.25727925  0.50192005  1
  O  O242  1  0.37174451  0.75247348  0.01002615  1
  O  O243  1  0.36896274  0.75556387  0.50535824  1
  O  O244  1  0.87226600  0.25764270  0.00597972  1
  O  O245  1  0.87444203  0.25636127  0.50761457  1
  O  O246  1  0.86706480  0.75680524  -0.00060608  1
  O  O247  1  0.87053446  0.75954221  0.50506153  1
  O  O248  1  0.13441024  0.24808250  0.49777833  1
  O  O249  1  0.13026210  0.24652287  0.99615898  1
  O  O250  1  0.13209365  0.74399404  0.49977876  1
  O  O251  1  0.12598473  0.75078584  0.98803576  1
  O  O252  1  0.62498266  0.24851574  0.48582265  1
  O  O253  1  0.63230541  0.25009601  0.99434165  1
  O  O254  1  0.63963578  0.75130659  0.50035057  1
  O  O255  1  0.62939436  0.74183814  0.99688491  1
  O  O256  1  0.49278226  0.24816729  0.12954217  1
  O  O257  1  0.50181858  0.24089915  0.63072027  1
  O  O258  1  0.49386646  0.74366170  0.13070364  1
  O  O259  1  0.49508323  0.74055520  0.62202563  1
  O  O260  1  0.99214020  0.25095639  0.13372257  1
  O  O261  1  0.99501019  0.24554775  0.63131885  1
  O  O262  1  0.99749947  0.74998987  0.13844687  1
  O  O263  1  0.99420954  0.74437758  0.62734486  1
  O  O264  1  -0.00044118  0.25581743  0.36474185  1
  O  O265  1  0.00697357  0.25273633  0.86863328  1
  O  O266  1  0.00139628  0.75323731  0.36339745  1
  O  O267  1  0.00881365  0.75672149  0.87356001  1
  O  O268  1  0.50654226  0.25440766  0.36789371  1
  O  O269  1  0.50584286  0.25550876  0.87140193  1
  O  O270  1  0.49878955  0.75578484  0.36832077  1
  O  O271  1  0.49948377  0.76136910  0.87334105  1
  O  O272  1  0.25155103  0.13158523  0.49472950  1
  O  O273  1  0.24408766  0.13033641  0.99521595  1
  O  O274  1  0.24547767  0.63025739  0.49551920  1
  O  O275  1  0.24510397  0.62776202  0.98716384  1
  O  O276  1  0.74375171  0.12756284  0.49646778  1
  O  O277  1  0.75039575  0.13171328  0.99329451  1
  O  O278  1  0.75314889  0.63820588  0.49910062  1
  O  O279  1  0.74355079  0.62957588  0.99398945  1
  O  O280  1  0.25593084  0.36911765  0.00524618  1
  O  O281  1  0.25589983  0.37027805  0.50514803  1
  O  O282  1  0.25178267  0.87359438  0.01016562  1
  O  O283  1  0.25600806  0.87068334  0.50608330  1
  O  O284  1  0.76142191  0.36907732  0.00098444  1
  O  O285  1  0.75728515  0.37006979  0.50604003  1
  O  O286  1  0.75360779  0.87015101  0.00271086  1
  O  O287  1  0.75892062  0.87104113  0.50595628  1
  O  O288  1  0.13116431  0.49443024  0.24296514  1
  O  O289  1  0.12635027  0.49378636  0.74344078  1
  O  O290  1  0.12985464  0.99538319  0.24586039  1
  O  O291  1  0.13094145  0.99550611  0.74613689  1
  O  O292  1  0.62825578  0.49506990  0.24486481  1
  O  O293  1  0.62615938  0.49171672  0.74183820  1
  O  O294  1  0.63092744  0.99164737  0.24307649  1
  O  O295  1  0.63188782  0.99481469  0.74461151  1
  O  O296  1  0.36933644  0.00427554  0.25558492  1
  O  O297  1  0.36771497  0.00233101  0.75697339  1
  O  O298  1  0.36991642  0.50390965  0.25473558  1
  O  O299  1  0.37270137  0.50303646  0.75959366  1
  O  O300  1  0.86408293  -0.00111183  0.24914337  1
  O  O301  1  0.87042414  0.00617092  0.75563751  1
  O  O302  1  0.86993595  0.50676371  0.25353553  1
  O  O303  1  0.87344737  0.50537683  0.75880703  1
  O  O304  1  0.11851121  0.37434578  0.36777418  1
  O  O305  1  0.12457303  0.36974012  0.86959664  1
  O  O306  1  0.12321758  0.87249547  0.36796156  1
  O  O307  1  0.12069789  0.86920167  0.87118866  1
  O  O308  1  0.61862124  0.36667641  0.36824595  1
  O  O309  1  0.62018457  0.37032357  0.87030579  1
  O  O310  1  0.61689584  0.87123563  0.36750374  1
  O  O311  1  0.61408668  0.87506949  0.86840579  1
  O  O312  1  0.37500753  0.13122446  0.13091417  1
  O  O313  1  0.38891876  0.12564632  0.62820760  1
  O  O314  1  0.37889920  0.62851876  0.13086014  1
  O  O315  1  0.38448595  0.62940083  0.62440256  1
  O  O316  1  0.87745921  0.13861681  0.12651879  1
  O  O317  1  0.88083140  0.13071939  0.63238766  1
  O  O318  1  0.87607721  0.62543053  0.13828293  1
  O  O319  1  0.88036303  0.63015205  0.62947428  1
  O  O320  1  0.25496967  0.25555161  0.11988321  1
  O  O321  1  0.25276591  0.25669377  0.61858608  1
  O  O322  1  0.25485723  0.75573193  0.12665152  1
  O  O323  1  0.25546671  0.75615153  0.62002795  1
  O  O324  1  0.75975689  0.25165076  0.12005479  1
  O  O325  1  0.75712846  0.25574051  0.62513097  1
  O  O326  1  0.75084197  0.75568471  0.11640528  1
  O  O327  1  0.75702563  0.75704282  0.61682325  1
  O  O328  1  0.24995473  0.24387239  0.38179402  1
  O  O329  1  0.24455245  0.24499170  0.88118233  1
  O  O330  1  0.25002706  0.74220814  0.38222726  1
  O  O331  1  0.24187052  0.74440520  0.87581823  1
  O  O332  1  0.73702308  0.24903559  0.37195932  1
  O  O333  1  0.74628862  0.24532260  0.88015349  1
  O  O334  1  0.75125296  0.75241404  0.38730962  1
  O  O335  1  0.74643616  0.74275675  0.88064167  1
  O  O336  1  0.00666777  0.11883566  0.00179354  1
  O  O337  1  -0.00047057  0.11627957  0.50739099  1
  O  O338  1  0.00275316  0.62223001  0.00674516  1
  O  O339  1  0.00646651  0.62455791  0.50593357  1
  O  O340  1  0.50136513  0.11134813  -0.00038082  1
  O  O341  1  0.50179139  0.11848702  0.50927311  1
  O  O342  1  0.50387860  0.61917435  0.00521204  1
  O  O343  1  0.50084828  0.61785868  0.50907227  1
  O  O344  1  0.49467809  0.37952962  0.49409845  1
  O  O345  1  0.49432498  0.38064563  0.99434779  1
  O  O346  1  0.49434790  0.87982550  0.49499390  1
  O  O347  1  0.49890511  0.88390482  0.99043758  1
  O  O348  1  0.99343345  0.37566728  0.49262698  1
  O  O349  1  0.98684344  0.37806792  0.99797076  1
  O  O350  1  0.99279517  0.88453105  0.50419009  1
  O  O351  1  0.99404717  0.88139742  0.99460138  1
  O  O352  1  0.49488211  0.49366579  0.37929015  1
  O  O353  1  0.49469806  0.49427562  0.88087936  1
  O  O354  1  0.49450014  0.99363198  0.37931562  1
  O  O355  1  0.49590473  0.99278239  0.88096472  1
  O  O356  1  0.99220155  0.49265617  0.37397729  1
  O  O357  1  0.98661310  0.50091675  0.87731029  1
  O  O358  1  0.99946374  0.99936407  0.38842640  1
  O  O359  1  0.99489691  0.99546336  0.88089531  1
  O  O360  1  0.00614549  0.00122102  0.11925405  1
  O  O361  1  0.00543534  0.00587234  0.61924727  1
  O  O362  1  0.01247319  0.49986864  0.12744706  1
  O  O363  1  0.00704162  0.50770699  0.62225433  1
  O  O364  1  0.50406814  -0.00273417  0.11483244  1
  O  O365  1  0.50536062  0.00643140  0.62086356  1
  O  O366  1  0.50367792  0.50536906  0.11923472  1
  O  O367  1  0.50492514  0.50583532  0.61888047  1
  O  O368  1  0.24584148  0.37958598  0.24437081  1
  O  O369  1  0.24326538  0.37596206  0.74348370  1
  O  O370  1  0.24458974  0.88078209  0.24615739  1
  O  O371  1  0.24501803  0.88177531  0.74460495  1
  O  O372  1  0.74233761  0.38241308  0.24696957  1
  O  O373  1  0.74343998  0.37633311  0.74257756  1
  O  O374  1  0.74533887  0.88054862  0.24340325  1
  O  O375  1  0.74578483  0.88130142  0.74522276  1
  O  O376  1  0.25577111  0.11914285  0.25603520  1
  O  O377  1  0.25016399  0.11910779  0.75714750  1
  O  O378  1  0.25602903  0.61841698  0.25627912  1
  O  O379  1  0.25156779  0.62430744  0.76301180  1
  O  O380  1  0.74926783  0.10999997  0.24869495  1
  O  O381  1  0.75639477  0.11988126  0.75587590  1
  O  O382  1  0.75888614  0.62065531  0.25061661  1
  O  O383  1  0.75635184  0.62306515  0.75483388  1
  O  O384  1  0.37059277  0.11857520  0.36933378  1
  O  O385  1  0.36754974  0.11862609  0.87403480  1
  O  O386  1  0.36997240  0.61771827  0.37012475  1
  O  O387  1  0.36611619  0.62068365  0.87462517  1
  O  O388  1  0.86887001  0.12044659  0.36963543  1
  O  O389  1  0.87063793  0.12028994  0.86997548  1
  O  O390  1  0.87369349  0.61937243  0.36336545  1
  O  O391  1  0.86923370  0.61823284  0.87010341  1
  O  O392  1  0.13091204  0.38214614  0.13019390  1
  O  O393  1  0.13074369  0.38073346  0.62996807  1
  O  O394  1  0.13001723  0.88144847  0.13218868  1
  O  O395  1  0.13182288  0.88112708  0.63155225  1
  O  O396  1  0.62475611  0.38173660  0.13074067  1
  O  O397  1  0.62963605  0.37807514  0.62970754  1
  O  O398  1  0.63024074  0.87899614  0.12957924  1
  O  O399  1  0.63067830  0.88144879  0.63014065  1
  O  O400  1  0.11559309  0.25613836  0.24965745  1
  O  O401  1  0.11999190  0.25626827  0.75574121  1
  O  O402  1  0.11590311  0.75570388  0.25183373  1
  O  O403  1  0.12445585  0.75780864  0.76095345  1
  O  O404  1  0.61941349  0.25441961  0.25461634  1
  O  O405  1  0.62024734  0.25562167  0.75714974  1
  O  O406  1  0.61779220  0.75523324  0.24939426  1
  O  O407  1  0.62166430  0.75877673  0.75059765  1
  O  O408  1  0.37995414  0.24460919  0.24419033  1
  O  O409  1  0.38453175  0.24824165  0.74832522  1
  O  O410  1  0.38010373  0.74263180  0.24509329  1
  O  O411  1  0.37879316  0.74756717  0.74017478  1
  O  O412  1  0.88281843  0.25290218  0.24079133  1
  O  O413  1  0.88060002  0.24558256  0.74544974  1
  O  O414  1  0.88170687  0.74321705  0.24993453  1
  O  O415  1  0.87566459  0.74453718  0.74324492  1
  O  O416  1  0.38070762  0.49365930  0.49350836  1
  O  O417  1  0.38013867  0.49402321  0.99532051  1
  O  O418  1  0.38106385  0.99369045  0.49450941  1
  O  O419  1  0.38359469  0.99729711  0.99446315  1
  O  O420  1  0.87655276  0.49246813  0.49195379  1
  O  O421  1  0.87288526  0.49248010  0.99292953  1
  O  O422  1  0.88425433  0.99225656  0.50449993  1
  O  O423  1  0.87984735  0.99500492  0.99438200  1
  O  O424  1  0.11944263  0.00550103  0.00622339  1
  O  O425  1  0.11611573  0.00075495  0.50798629  1
  O  O426  1  0.12295343  0.49887985  0.01181177  1
  O  O427  1  0.12388518  0.50711596  0.50707640  1
  O  O428  1  0.61520871  -0.00047363  0.00441837  1
  O  O429  1  0.61795293  -0.00105082  0.50661461  1
  O  O430  1  0.61924298  0.50450917  0.00476647  1
  O  O431  1  0.61851917  0.49818175  0.50556551  1
  O  O432  1  0.36968093  0.36919630  0.11929263  1
  O  O433  1  0.36966760  0.37481017  0.61843646  1
  O  O434  1  0.36749334  0.86738667  0.12613313  1
  O  O435  1  0.37075993  0.87071609  0.61921452  1
  O  O436  1  0.87412383  0.36646163  0.11630636  1
  O  O437  1  0.87057533  0.37045584  0.62020579  1
  O  O438  1  0.86720068  0.87305563  0.11557252  1
  O  O439  1  0.87045591  0.87135254  0.61790644  1
  O  O440  1  0.13512032  0.12786116  0.37883776  1
  O  O441  1  0.13073326  0.13107791  0.88195338  1
  O  O442  1  0.13222994  0.62530353  0.38153339  1
  O  O443  1  0.13101504  0.63408893  0.87383457  1
  O  O444  1  0.62423984  0.13510811  0.37366673  1
  O  O445  1  0.63262560  0.13191991  0.87674927  1
  O  O446  1  0.62945518  0.62991126  0.38051559  1
  O  O447  1  0.62967760  0.62337387  0.88023129  1
