# generated using pymatgen
data_V3Zn3O8
_symmetry_space_group_name_H-M   'P 1'
_cell_length_a   17.08844126
_cell_length_b   17.08720589
_cell_length_c   17.08705513
_cell_angle_alpha   89.99738968
_cell_angle_beta   89.99482221
_cell_angle_gamma   90.00111828
_symmetry_Int_Tables_number   1
_chemical_formula_structural   V3Zn3O8
_chemical_formula_sum   'V96 Zn96 O256'
_cell_volume   4989.31266489
_cell_formula_units_Z   32
loop_
 _symmetry_equiv_pos_site_id
 _symmetry_equiv_pos_as_xyz
  1  'x, y, z'
loop_
 _atom_site_type_symbol
 _atom_site_label
 _atom_site_symmetry_multiplicity
 _atom_site_fract_x
 _atom_site_fract_y
 _atom_site_fract_z
 _atom_site_occupancy
  V  V0  1  0.49970272  -0.00035125  0.49940018  1
  V  V1  1  0.62461639  0.12535934  0.50023217  1
  V  V2  1  0.74929665  0.37653556  0.62450842  1
  V  V3  1  0.25028763  0.87494520  0.62590044  1
  V  V4  1  0.50040766  0.49898489  -0.00043201  1
  V  V5  1  0.87469635  0.75123902  0.62541424  1
  V  V6  1  0.62586503  0.87551153  0.24902608  1
  V  V7  1  0.87404414  0.49961313  0.87436357  1
  V  V8  1  0.12419247  0.37432888  0.75025175  1
  V  V9  1  0.74969420  0.24864168  -0.00039270  1
  V  V10  1  0.37598605  0.74964134  0.62647404  1
  V  V11  1  0.50000469  0.24953878  0.24898995  1
  V  V12  1  0.24940624  0.12494308  0.87490259  1
  V  V13  1  0.87416075  0.62422064  0.75119109  1
  V  V14  1  0.75029368  0.37482259  0.12572467  1
  V  V15  1  -0.00047547  0.12440265  0.12442031  1
  V  V16  1  0.12485884  0.00095132  0.62488681  1
  V  V17  1  0.00138364  0.25198934  0.25025241  1
  V  V18  1  0.75008707  0.25083146  0.49948224  1
  V  V19  1  0.49970162  0.00015211  0.00080898  1
  V  V20  1  0.37420275  0.87481014  0.00007266  1
  V  V21  1  0.87575869  0.87661677  0.50028390  1
  V  V22  1  0.12497076  0.62617467  0.50105142  1
  V  V23  1  0.37445750  0.12445514  0.74995865  1
  V  V24  1  0.37456956  0.50120785  0.37459961  1
  V  V25  1  0.49834335  0.37464332  0.87475375  1
  V  V26  1  0.62422464  0.87493307  0.74969961  1
  V  V27  1  0.74966731  0.74750469  -0.00015182  1
  V  V28  1  0.62371509  0.74823975  0.87460966  1
  V  V29  1  0.12467241  0.50045518  0.62557836  1
  V  V30  1  0.74941191  0.87556122  0.62538659  1
  V  V31  1  0.25025243  0.37543245  0.12483426  1
  V  V32  1  0.12515229  0.24915456  0.87418722  1
  V  V33  1  0.24967361  0.87523515  0.12621094  1
  V  V34  1  0.50008853  0.12483237  0.12491302  1
  V  V35  1  0.12566366  0.49995397  0.12624233  1
  V  V36  1  0.75122250  0.62483680  0.37364173  1
  V  V37  1  0.75101333  0.50023234  0.24951900  1
  V  V38  1  0.00015495  0.37308880  0.87427776  1
  V  V39  1  0.50044438  0.87497513  0.37550201  1
  V  V40  1  0.50076473  0.62347002  0.12429374  1
  V  V41  1  0.50087779  0.50010611  0.50021094  1
  V  V42  1  0.12544971  0.75155275  0.37645594  1
  V  V43  1  -0.00059964  0.75046136  0.75053078  1
  V  V44  1  0.87472764  0.00066463  0.37488934  1
  V  V45  1  -0.00082089  0.87501623  0.87625690  1
  V  V46  1  0.49937575  0.12542826  0.62482311  1
  V  V47  1  0.25126956  0.12600029  0.37396849  1
  V  V48  1  0.62599485  0.75052730  0.37497485  1
  V  V49  1  0.24976244  0.37581597  0.62492389  1
  V  V50  1  0.00030306  0.87612837  0.37619637  1
  V  V51  1  0.37548881  0.24964747  0.62519454  1
  V  V52  1  0.12464137  0.12570316  0.50077377  1
  V  V53  1  0.87540461  0.37620183  0.49954762  1
  V  V54  1  0.87452996  0.12559307  0.74894612  1
  V  V55  1  0.12451914  0.62466591  0.00113885  1
  V  V56  1  0.87536201  0.24930691  0.12429527  1
  V  V57  1  0.75125403  0.12438383  0.37402012  1
  V  V58  1  0.87377964  0.00007206  0.87418723  1
  V  V59  1  0.87418271  0.87429015  -0.00012820  1
  V  V60  1  0.37331182  0.00001493  0.87514784  1
  V  V61  1  0.49892620  0.87433873  0.87487041  1
  V  V62  1  0.62548383  0.49978395  0.62467630  1
  V  V63  1  0.37505764  0.25000563  0.12475419  1
  V  V64  1  0.24967792  0.24899318  -0.00030899  1
  V  V65  1  -0.00073362  0.74856790  0.24989150  1
  V  V66  1  0.24915202  0.74952181  0.00110081  1
  V  V67  1  0.12425374  0.00061028  0.12461773  1
  V  V68  1  0.00023455  0.49986641  0.00051181  1
  V  V69  1  -0.00045265  0.62593219  0.62507890  1
  V  V70  1  0.25016120  0.25075418  0.49923183  1
  V  V71  1  0.74941523  0.87460401  0.12459146  1
  V  V72  1  0.62449911  -0.00074175  0.12416830  1
  V  V73  1  0.25004589  0.50105800  0.75127922  1
  V  V74  1  0.25033943  0.75073808  0.50078901  1
  V  V75  1  0.62516038  -0.00029800  0.62568397  1
  V  V76  1  0.75004028  0.75041163  0.49924909  1
  V  V77  1  0.62523198  0.24732600  0.87545466  1
  V  V78  1  0.25014625  0.62402439  0.87453049  1
  V  V79  1  0.50028191  0.62562459  0.62636672  1
  V  V80  1  0.62549950  0.37498716  0.74902621  1
  V  V81  1  0.87500559  0.37448144  -0.00080673  1
  V  V82  1  0.37508299  0.74930253  0.12571815  1
  V  V83  1  0.12426925  0.75034218  0.87641887  1
  V  V84  1  0.62629048  0.37494919  0.24961265  1
  V  V85  1  0.00077836  0.37576479  0.37513523  1
  V  V86  1  0.12520230  0.87575009  0.75037153  1
  V  V87  1  0.25212034  0.62489685  0.37557622  1
  V  V88  1  -0.00047230  0.50043354  0.49944806  1
  V  V89  1  0.37473473  0.37550964  0.49998566  1
  V  V90  1  0.49987446  0.37535652  0.37455165  1
  V  V91  1  0.87524085  0.25001012  0.62531959  1
  V  V92  1  0.25153750  0.00070379  0.25059268  1
  V  V93  1  0.62518622  0.24995438  0.37491703  1
  V  V94  1  0.49989602  0.74927598  0.24958661  1
  V  V95  1  0.37606002  0.87563164  0.50025201  1
  Zn  Zn96  1  0.00065944  0.24909588  0.74834860  1
  Zn  Zn97  1  0.37617808  0.12585954  0.25044261  1
  Zn  Zn98  1  0.62647129  0.62498320  0.50090066  1
  Zn  Zn99  1  -0.00014586  0.00186017  0.49861486  1
  Zn  Zn100  1  -0.00115903  -0.00133967  0.00185774  1
  Zn  Zn101  1  0.12348034  0.12410781  -0.00303758  1
  Zn  Zn102  1  0.75082463  0.00104799  0.24856045  1
  Zn  Zn103  1  0.75009984  0.50109506  0.75077137  1
  Zn  Zn104  1  0.37478185  0.50100688  0.87318713  1
  Zn  Zn105  1  -0.00083119  0.12657793  0.62359276  1
  Zn  Zn106  1  0.12663089  0.37735316  0.25324565  1
  Zn  Zn107  1  0.74863565  0.12292610  0.87559512  1
  Zn  Zn108  1  0.49745038  0.74919996  0.75098838  1
  Zn  Zn109  1  0.62620769  0.12284496  -0.00056246  1
  Zn  Zn110  1  0.62607128  0.49954940  0.12381732  1
  Zn  Zn111  1  0.12531335  0.87442523  0.25236613  1
  Zn  Zn112  1  0.49988257  0.24972249  0.74969864  1
  Zn  Zn113  1  0.37648921  0.00013925  0.37462957  1
  Zn  Zn114  1  0.24953880  -0.00041982  0.75194419  1
  Zn  Zn115  1  0.74896468  0.00013261  0.74987457  1
  Zn  Zn116  1  0.37492986  0.62381269  0.25127279  1
  Zn  Zn117  1  0.37404497  0.62510802  0.75161014  1
  Zn  Zn118  1  0.62595096  0.62233690  -0.00178314  1
  Zn  Zn119  1  0.87380396  0.12263849  0.25005402  1
  Zn  Zn120  1  -0.00172977  0.62492154  0.12640777  1
  Zn  Zn121  1  0.25175432  0.50184326  0.24989457  1
  Zn  Zn122  1  0.87714380  0.50148622  0.37293326  1
  Zn  Zn123  1  0.37454232  0.37473239  -0.00179643  1
  Zn  Zn124  1  0.87729488  0.74857393  0.12437458  1
  Zn  Zn125  1  0.12595570  0.25262895  0.37424101  1
  Zn  Zn126  1  0.87470214  0.62492731  0.24613458  1
  Zn  Zn127  1  0.74874020  0.62149880  0.87423681  1
  Zn  Zn128  1  0.18586724  0.18782011  0.18685713  1
  Zn  Zn129  1  0.18993639  0.18790217  0.68889392  1
  Zn  Zn130  1  0.18710821  0.68609799  0.19065066  1
  Zn  Zn131  1  0.18728899  0.68803773  0.68884028  1
  Zn  Zn132  1  0.68712854  0.18541615  0.18775783  1
  Zn  Zn133  1  0.68880407  0.18786516  0.68857362  1
  Zn  Zn134  1  0.68557899  0.68712265  0.18672098  1
  Zn  Zn135  1  0.68780248  0.68692646  0.68896803  1
  Zn  Zn136  1  0.31325438  0.31340997  0.31023940  1
  Zn  Zn137  1  0.31224690  0.31145928  0.81104177  1
  Zn  Zn138  1  0.31414047  0.81231154  0.31281360  1
  Zn  Zn139  1  0.31179894  0.81104433  0.81162291  1
  Zn  Zn140  1  0.81513640  0.31251608  0.31274471  1
  Zn  Zn141  1  0.81093827  0.31271973  0.81171145  1
  Zn  Zn142  1  0.81423714  0.81399420  0.31121825  1
  Zn  Zn143  1  0.81032330  0.81265414  0.81211625  1
  Zn  Zn144  1  0.18655462  0.43917688  0.43724850  1
  Zn  Zn145  1  0.18689286  0.43683724  0.93787869  1
  Zn  Zn146  1  0.18817981  0.93810328  0.43798791  1
  Zn  Zn147  1  0.18734394  0.93819989  0.93909479  1
  Zn  Zn148  1  0.68742468  0.43918802  0.43728365  1
  Zn  Zn149  1  0.68755252  0.43595926  0.93714271  1
  Zn  Zn150  1  0.68833186  0.93841719  0.43746263  1
  Zn  Zn151  1  0.68744066  0.93582656  0.93747946  1
  Zn  Zn152  1  0.31309956  0.06491323  0.06189405  1
  Zn  Zn153  1  0.31239296  0.06152191  0.56277975  1
  Zn  Zn154  1  0.31481112  0.56182851  0.05989932  1
  Zn  Zn155  1  0.31367868  0.56287757  0.56269916  1
  Zn  Zn156  1  0.81125612  0.06212811  0.06115293  1
  Zn  Zn157  1  0.81120155  0.06237880  0.56179622  1
  Zn  Zn158  1  0.81478432  0.56389585  0.06394285  1
  Zn  Zn159  1  0.81283750  0.56272605  0.56195604  1
  Zn  Zn160  1  0.43597397  0.43751662  0.18835277  1
  Zn  Zn161  1  0.43675372  0.43888209  0.68925967  1
  Zn  Zn162  1  0.43757545  0.93710334  0.18786293  1
  Zn  Zn163  1  0.43806715  0.93806768  0.68877935  1
  Zn  Zn164  1  0.93679534  0.43775082  0.18799377  1
  Zn  Zn165  1  0.93727084  0.43741310  0.68781966  1
  Zn  Zn166  1  0.93538907  0.93446115  0.19023848  1
  Zn  Zn167  1  0.93933820  0.93912038  0.68759701  1
  Zn  Zn168  1  0.06237093  0.06327795  0.31193214  1
  Zn  Zn169  1  0.05986531  0.06286413  0.81108118  1
  Zn  Zn170  1  0.06469465  0.56387951  0.31309897  1
  Zn  Zn171  1  0.06179209  0.56202368  0.81340479  1
  Zn  Zn172  1  0.56407552  0.06207676  0.31129033  1
  Zn  Zn173  1  0.55972777  0.06158547  0.81143218  1
  Zn  Zn174  1  0.56450130  0.56240440  0.31141515  1
  Zn  Zn175  1  0.56330367  0.56139566  0.81056465  1
  Zn  Zn176  1  0.43685972  0.18777221  0.43752343  1
  Zn  Zn177  1  0.43653925  0.18676456  0.93932854  1
  Zn  Zn178  1  0.43803371  0.68762125  0.43959616  1
  Zn  Zn179  1  0.43593698  0.68585950  0.93817130  1
  Zn  Zn180  1  0.93744156  0.18823086  0.43685786  1
  Zn  Zn181  1  0.93807362  0.18664315  0.93685049  1
  Zn  Zn182  1  0.93640973  0.68844142  0.43651544  1
  Zn  Zn183  1  0.93691284  0.68534053  0.93772600  1
  Zn  Zn184  1  0.06419856  0.31240416  0.06069878  1
  Zn  Zn185  1  0.06118048  0.31175802  0.56303447  1
  Zn  Zn186  1  0.06234703  0.81382899  0.06449756  1
  Zn  Zn187  1  0.06169990  0.81418684  0.56219580  1
  Zn  Zn188  1  0.56414626  0.31200088  0.06204473  1
  Zn  Zn189  1  0.56188042  0.31248647  0.56222067  1
  Zn  Zn190  1  0.56241655  0.81240925  0.06148372  1
  Zn  Zn191  1  0.56353743  0.81125732  0.56194580  1
  O  O192  1  0.11687142  0.11683097  0.12410016  1
  O  O193  1  0.12781471  0.11777519  0.61718903  1
  O  O194  1  0.12585035  0.61486962  0.11918406  1
  O  O195  1  0.11882666  0.62094827  0.62033175  1
  O  O196  1  0.61793991  0.11787830  0.12305309  1
  O  O197  1  0.62016163  0.12077692  0.61964747  1
  O  O198  1  0.61165413  0.62345337  0.12173322  1
  O  O199  1  0.61662266  0.62000425  0.62379607  1
  O  O200  1  0.38027331  0.37983413  0.38091013  1
  O  O201  1  0.38758315  0.37474359  0.87543145  1
  O  O202  1  0.38236976  0.87593453  0.38239899  1
  O  O203  1  0.37862499  0.87924118  0.88073927  1
  O  O204  1  0.88216889  0.37690729  0.38266328  1
  O  O205  1  0.88020324  0.37872364  0.88018907  1
  O  O206  1  0.87992969  0.88067880  0.38179699  1
  O  O207  1  0.87944021  0.88207207  0.87793346  1
  O  O208  1  0.25027441  0.00816199  0.36694997  1
  O  O209  1  0.25586860  0.00584124  0.87525048  1
  O  O210  1  0.25650509  0.50674167  0.37588291  1
  O  O211  1  0.24921939  0.50574567  0.86982028  1
  O  O212  1  0.75616400  0.00657521  0.37453546  1
  O  O213  1  0.76175736  -0.00066330  0.87279742  1
  O  O214  1  0.75010313  0.50887192  0.36851162  1
  O  O215  1  0.75770847  0.50047333  0.87325490  1
  O  O216  1  0.24308290  0.49234203  0.12235811  1
  O  O217  1  0.24363060  0.49514737  0.62921949  1
  O  O218  1  0.24337327  0.99748398  0.13188808  1
  O  O219  1  0.23997825  0.99400043  0.62605702  1
  O  O220  1  0.74865414  0.49356591  0.13148646  1
  O  O221  1  0.74336166  0.49387226  0.62435720  1
  O  O222  1  0.74290022  0.99228574  0.12432946  1
  O  O223  1  0.74236280  0.99303606  0.62520375  1
  O  O224  1  0.00118831  0.36660100  0.25506551  1
  O  O225  1  0.00678029  0.37403905  0.75647343  1
  O  O226  1  0.00281650  0.86564483  0.25764804  1
  O  O227  1  0.00545990  0.86930254  0.75582492  1
  O  O228  1  0.50599868  0.36962126  0.25541839  1
  O  O229  1  0.50605107  0.37389735  0.75922347  1
  O  O230  1  0.50535357  0.86907610  0.25523878  1
  O  O231  1  0.50612935  0.87264168  0.75714502  1
  O  O232  1  0.49908988  0.13175103  0.24425352  1
  O  O233  1  0.49250826  0.12655674  0.74235426  1
  O  O234  1  0.49967138  0.63039548  0.24072713  1
  O  O235  1  0.49812195  0.62524093  0.73734572  1
  O  O236  1  0.99976855  0.13396472  0.24057306  1
  O  O237  1  0.98659493  0.12679257  0.74677468  1
  O  O238  1  0.99929405  0.63660601  0.25187135  1
  O  O239  1  0.99550934  0.63126607  0.74436429  1
  O  O240  1  0.36788852  0.25234152  0.00702056  1
  O  O241  1  0.36946415  0.25601128  0.50505877  1
  O  O242  1  0.36854346  0.75548224  0.00609344  1
  O  O243  1  0.36964390  0.75656326  0.50635362  1
  O  O244  1  0.87009604  0.25526913  0.00451355  1
  O  O245  1  0.86932669  0.25581888  0.50496233  1
  O  O246  1  0.86434634  0.75547643  -0.00238045  1
  O  O247  1  0.86986436  0.75639017  0.50621925  1
  O  O248  1  0.13227391  0.24067019  0.50058368  1
  O  O249  1  0.13176461  0.24784406  0.99246823  1
  O  O250  1  0.13056496  0.74528131  0.49677529  1
  O  O251  1  0.12994153  0.74547051  0.99593307  1
  O  O252  1  0.63003314  0.24525024  0.49430417  1
  O  O253  1  0.63054059  0.24937984  0.99012201  1
  O  O254  1  0.63291729  0.74945929  0.49269913  1
  O  O255  1  0.63246932  0.75105927  0.99007920  1
  O  O256  1  0.49568011  0.24560114  0.12938640  1
  O  O257  1  0.49330450  0.24349405  0.62486386  1
  O  O258  1  0.49522490  0.74265791  0.12818018  1
  O  O259  1  0.49559903  0.74108508  0.62491939  1
  O  O260  1  0.99640851  0.24386006  0.13041406  1
  O  O261  1  0.99103093  0.24751090  0.62740509  1
  O  O262  1  1.00249666  0.74882984  0.13741139  1
  O  O263  1  0.99477357  0.74579342  0.63073446  1
  O  O264  1  0.00148297  0.25526424  0.36543576  1
  O  O265  1  0.00658323  0.25599160  0.87358765  1
  O  O266  1  0.00545234  0.75549069  0.36968768  1
  O  O267  1  0.00513172  0.75516965  0.87001450  1
  O  O268  1  0.50501800  0.25560991  0.37036199  1
  O  O269  1  0.50824805  0.25811645  0.87592078  1
  O  O270  1  0.50591116  0.75477425  0.37049277  1
  O  O271  1  0.50822244  0.75526181  0.87633314  1
  O  O272  1  0.24384166  0.12948227  0.49278149  1
  O  O273  1  0.24771309  0.13139695  0.99292400  1
  O  O274  1  0.24434074  0.63155823  0.49677034  1
  O  O275  1  0.24425496  0.63060325  0.99530276  1
  O  O276  1  0.74352878  0.13186429  0.49490133  1
  O  O277  1  0.74704907  0.13309487  0.99620192  1
  O  O278  1  0.74943679  0.63153923  0.49098301  1
  O  O279  1  0.74687908  0.63565032  0.99772556  1
  O  O280  1  0.25106027  0.36908626  0.00932862  1
  O  O281  1  0.25515067  0.37070988  0.50544545  1
  O  O282  1  0.25462236  0.86919285  0.00648608  1
  O  O283  1  0.25565286  0.86991841  0.50594945  1
  O  O284  1  0.75556455  0.36860758  0.00593125  1
  O  O285  1  0.75489235  0.36985724  0.50430342  1
  O  O286  1  0.75413774  0.86569058  0.00423837  1
  O  O287  1  0.75568707  0.86966871  0.50551154  1
  O  O288  1  0.12792151  0.49910549  0.23783403  1
  O  O289  1  0.12933398  0.49441211  0.74417010  1
  O  O290  1  0.13501680  1.00000824  0.24146579  1
  O  O291  1  0.12565563  0.99471100  0.74098482  1
  O  O292  1  0.63355947  0.49235384  0.24866826  1
  O  O293  1  0.62692280  0.49255060  0.74264539  1
  O  O294  1  0.62626142  0.99220122  0.24241072  1
  O  O295  1  0.62571309  0.99364055  0.74372813  1
  O  O296  1  0.36271847  0.00273407  0.25079249  1
  O  O297  1  0.37286972  0.00585859  0.75703896  1
  O  O298  1  0.37308287  0.50234123  0.25911287  1
  O  O299  1  0.36538205  0.50269754  0.75209935  1
  O  O300  1  0.87157379  0.00121736  0.25915677  1
  O  O301  1  0.87457778  0.00705088  0.75743996  1
  O  O302  1  0.86494589  0.50165387  0.25249430  1
  O  O303  1  0.87520282  0.50623599  0.75625226  1
  O  O304  1  0.11803922  0.37227060  0.37334565  1
  O  O305  1  0.12012774  0.36932815  0.86960927  1
  O  O306  1  0.11946880  0.86901559  0.37593880  1
  O  O307  1  0.11973493  0.87032703  0.87106154  1
  O  O308  1  0.61963238  0.36914130  0.37016242  1
  O  O309  1  0.61712579  0.36661649  0.87001021  1
  O  O310  1  0.62009701  0.86986176  0.36979067  1
  O  O311  1  0.61886874  0.86727480  0.87046210  1
  O  O312  1  0.38154430  0.13199260  0.12733613  1
  O  O313  1  0.37926432  0.12975926  0.62894514  1
  O  O314  1  0.38539270  0.63028567  0.12492810  1
  O  O315  1  0.38440307  0.63062507  0.62469538  1
  O  O316  1  0.88420143  0.12973071  0.12597858  1
  O  O317  1  0.87457246  0.12985917  0.63242417  1
  O  O318  1  0.88044567  0.63070735  0.12825265  1
  O  O319  1  0.88082772  0.63169916  0.62971010  1
  O  O320  1  0.25326615  0.25689639  0.12067980  1
  O  O321  1  0.25608823  0.25632044  0.61907971  1
  O  O322  1  0.25412821  0.75506632  0.12099045  1
  O  O323  1  0.25444928  0.75527705  0.61977279  1
  O  O324  1  0.75592540  0.25472123  0.12041323  1
  O  O325  1  0.75438567  0.25624869  0.61798964  1
  O  O326  1  0.74720719  0.75549000  0.11357946  1
  O  O327  1  0.75526492  0.75563046  0.61945682  1
  O  O328  1  0.24906030  0.24197358  0.37926155  1
  O  O329  1  0.24493904  0.24511374  0.87977090  1
  O  O330  1  0.24570434  0.74622785  0.38217190  1
  O  O331  1  0.24298992  0.74556572  0.88164658  1
  O  O332  1  0.74476945  0.24563412  0.38035367  1
  O  O333  1  0.73963114  0.25071699  0.88065492  1
  O  O334  1  0.74567617  0.74369602  0.37864957  1
  O  O335  1  0.74024716  0.75105831  0.88392502  1
  O  O336  1  0.00125300  0.12272719  0.01314165  1
  O  O337  1  0.01354039  0.12492319  0.50036367  1
  O  O338  1  0.00756444  0.61796457  0.00111981  1
  O  O339  1  0.00492547  0.62170961  0.50567152  1
  O  O340  1  0.50129141  0.11742298  0.00676342  1
  O  O341  1  0.50529669  0.12017397  0.50474385  1
  O  O342  1  0.50060159  0.61652343  0.00749455  1
  O  O343  1  0.50236666  0.61931083  0.51040948  1
  O  O344  1  0.49430593  0.37992252  0.49407189  1
  O  O345  1  0.50056485  0.38210603  0.99151261  1
  O  O346  1  0.49581687  0.87997656  0.49518217  1
  O  O347  1  0.49282221  0.87986782  0.99497939  1
  O  O348  1  0.99536893  0.38071238  0.49521574  1
  O  O349  1  0.99445224  0.37965813  0.99449803  1
  O  O350  1  0.99335698  0.87631890  0.49397064  1
  O  O351  1  0.99264770  0.87497862  0.99386536  1
  O  O352  1  0.49606617  0.49480223  0.38028910  1
  O  O353  1  0.50125442  0.49075871  0.88182059  1
  O  O354  1  0.49960466  0.99369435  0.38127972  1
  O  O355  1  0.49304382  0.99389313  0.88102007  1
  O  O356  1  1.00004632  0.49533540  0.38187062  1
  O  O357  1  0.99545760  0.49288049  0.88141448  1
  O  O358  1  0.99492343  0.99442617  0.37606987  1
  O  O359  1  0.99005482  0.99394269  0.87672417  1
  O  O360  1  0.00775796  0.00689899  0.12851456  1
  O  O361  1  0.01355958  0.00195152  0.62164235  1
  O  O362  1  0.01037693  0.49850940  0.11934315  1
  O  O363  1  0.00549456  0.50619643  0.61951556  1
  O  O364  1  0.50416816  0.00412982  0.11994521  1
  O  O365  1  0.50552328  0.00563065  0.61876925  1
  O  O366  1  0.50035154  0.50618373  0.11737352  1
  O  O367  1  0.50461178  0.50632708  0.61972162  1
  O  O368  1  0.24734162  0.37660594  0.23673056  1
  O  O369  1  0.24375410  0.38035867  0.74404924  1
  O  O370  1  0.24902606  0.88444171  0.24538103  1
  O  O371  1  0.24226684  0.87617540  0.74389138  1
  O  O372  1  0.74635695  0.38029910  0.24580358  1
  O  O373  1  0.74334357  0.37632435  0.74151756  1
  O  O374  1  0.74270215  0.87421699  0.24243179  1
  O  O375  1  0.74273265  0.87593571  0.74247793  1
  O  O376  1  0.24939728  0.11864450  0.25791452  1
  O  O377  1  0.25720111  0.12266750  0.75692748  1
  O  O378  1  0.25417841  0.62369494  0.25969884  1
  O  O379  1  0.24804350  0.61861232  0.75666545  1
  O  O380  1  0.75280087  0.12344096  0.25831818  1
  O  O381  1  0.76201061  0.12224848  0.75252486  1
  O  O382  1  0.74824695  0.61915462  0.25764466  1
  O  O383  1  0.75893832  0.62306567  0.75247663  1
  O  O384  1  0.36280289  0.12312389  0.37431005  1
  O  O385  1  0.36998730  0.11971264  0.87012393  1
  O  O386  1  0.36986951  0.61910710  0.37685716  1
  O  O387  1  0.36606973  0.62304747  0.87295904  1
  O  O388  1  0.86906402  0.11900329  0.37513367  1
  O  O389  1  0.87485687  0.11662329  0.86742604  1
  O  O390  1  0.86175444  0.62496779  0.37234872  1
  O  O391  1  0.87489437  0.61766917  0.86849140  1
  O  O392  1  0.13381557  0.38403647  0.12361356  1
  O  O393  1  0.13036395  0.38072703  0.62927222  1
  O  O394  1  0.13121944  0.88516001  0.12771556  1
  O  O395  1  0.12983269  0.88232503  0.62911681  1
  O  O396  1  0.63260263  0.37460669  0.13216042  1
  O  O397  1  0.62914807  0.37955073  0.62896603  1
  O  O398  1  0.62856944  0.87960128  0.12946050  1
  O  O399  1  0.62916697  0.87984551  0.62967909  1
  O  O400  1  0.11228577  0.25261208  0.25017353  1
  O  O401  1  0.12454331  0.25671082  0.75556254  1
  O  O402  1  0.11724754  0.75156380  0.25834475  1
  O  O403  1  0.11883977  0.75591494  0.75607089  1
  O  O404  1  0.61974024  0.25561541  0.25608887  1
  O  O405  1  0.62334682  0.25536716  0.75924282  1
  O  O406  1  0.61884099  0.75621194  0.25519296  1
  O  O407  1  0.62359840  0.75567753  0.76027324  1
  O  O408  1  0.38265563  0.24923621  0.24315311  1
  O  O409  1  0.37655320  0.24326200  0.74248055  1
  O  O410  1  0.38257694  0.74908360  0.24305941  1
  O  O411  1  0.37719067  0.74704090  0.74207852  1
  O  O412  1  0.88646933  0.24911337  0.24331064  1
  O  O413  1  0.87447599  0.24134214  0.74454731  1
  O  O414  1  0.88758746  0.74994373  0.24909375  1
  O  O415  1  0.88071918  0.74595117  0.74500716  1
  O  O416  1  0.38097128  0.49381322  0.49536455  1
  O  O417  1  0.38829596  0.49653445  0.99610372  1
  O  O418  1  0.38156254  0.99336149  0.49920513  1
  O  O419  1  0.37927902  0.99380451  0.99537179  1
  O  O420  1  0.88250896  0.49410977  0.49861252  1
  O  O421  1  0.88074768  0.49350544  0.99510749  1
  O  O422  1  0.87727756  0.99419141  0.49431600  1
  O  O423  1  0.87577453  0.99350357  0.99009832  1
  O  O424  1  0.12224741  0.00139631  0.01305903  1
  O  O425  1  0.12673944  0.00940953  0.50807981  1
  O  O426  1  0.12017360  0.50437583  0.00777209  1
  O  O427  1  0.11943709  0.50672963  0.50687162  1
  O  O428  1  0.61728007  -0.00102928  0.00529006  1
  O  O429  1  0.61930161  0.00579315  0.50574260  1
  O  O430  1  0.61315381  0.50062495  0.00125213  1
  O  O431  1  0.61798645  0.50099697  0.50639773  1
  O  O432  1  0.36552686  0.36973974  0.12295411  1
  O  O433  1  0.36976976  0.37040675  0.61925529  1
  O  O434  1  0.36945845  0.86944781  0.11934354  1
  O  O435  1  0.37028245  0.87028785  0.62015490  1
  O  O436  1  0.87010602  0.36889745  0.11860734  1
  O  O437  1  0.86943019  0.37043867  0.61903836  1
  O  O438  1  0.86814824  0.87191905  0.11747886  1
  O  O439  1  0.87050207  0.87040288  0.62098634  1
  O  O440  1  0.13501315  0.12567035  0.38372422  1
  O  O441  1  0.13015014  0.12994684  0.87467682  1
  O  O442  1  0.13152939  0.63134751  0.38320459  1
  O  O443  1  0.12919450  0.63129231  0.88128059  1
  O  O444  1  0.62982025  0.13085616  0.38116749  1
  O  O445  1  0.62462186  0.13554105  0.87486364  1
  O  O446  1  0.63526196  0.63132531  0.37621993  1
  O  O447  1  0.62521976  0.63625882  0.87576633  1
