# generated using pymatgen
data_V3Zn3O8
_symmetry_space_group_name_H-M   'P 1'
_cell_length_a   17.08838402
_cell_length_b   17.08915249
_cell_length_c   17.08693087
_cell_angle_alpha   90.01190085
_cell_angle_beta   89.99749124
_cell_angle_gamma   90.01040668
_symmetry_Int_Tables_number   1
_chemical_formula_structural   V3Zn3O8
_chemical_formula_sum   'V96 Zn96 O256'
_cell_volume   4989.82788621
_cell_formula_units_Z   32
loop_
 _symmetry_equiv_pos_site_id
 _symmetry_equiv_pos_as_xyz
  1  'x, y, z'
loop_
 _atom_site_type_symbol
 _atom_site_label
 _atom_site_symmetry_multiplicity
 _atom_site_fract_x
 _atom_site_fract_y
 _atom_site_fract_z
 _atom_site_occupancy
  V  V0  1  0.37530957  0.24902596  0.62645805  1
  V  V1  1  0.50005803  0.87464018  0.37491223  1
  V  V2  1  0.37454425  0.50068198  0.87531880  1
  V  V3  1  0.12509052  0.87513447  0.74982669  1
  V  V4  1  0.24988373  0.25028432  0.00009307  1
  V  V5  1  0.75021993  0.87343172  0.62362650  1
  V  V6  1  0.00018355  0.49980895  -0.00010964  1
  V  V7  1  0.12513902  0.00078270  0.12532131  1
  V  V8  1  0.50001249  0.62366700  0.62525706  1
  V  V9  1  0.62531488  -0.00047067  0.12576489  1
  V  V10  1  0.87506906  0.87390002  0.00037225  1
  V  V11  1  0.25046613  0.62631360  0.37655563  1
  V  V12  1  -0.00023263  0.75145365  0.24982530  1
  V  V13  1  0.49999946  0.37523099  0.37552062  1
  V  V14  1  0.25045025  0.87588865  0.12549616  1
  V  V15  1  -0.00003582  0.12655277  0.12553629  1
  V  V16  1  -0.00152582  0.24982151  0.74934529  1
  V  V17  1  0.00102880  0.25048962  0.24968283  1
  V  V18  1  0.50049520  0.62598296  0.12546320  1
  V  V19  1  0.12493223  0.37428234  0.75020846  1
  V  V20  1  0.87589900  0.62595753  0.24946390  1
  V  V21  1  0.87354567  0.87454273  0.50027935  1
  V  V22  1  0.12349331  0.00073146  0.62404666  1
  V  V23  1  0.37601264  0.50025673  0.37667218  1
  V  V24  1  0.75177390  0.25069373  -0.00007755  1
  V  V25  1  0.24965506  0.75048189  -0.00032062  1
  V  V26  1  0.75063254  0.87390933  0.12487848  1
  V  V27  1  0.00022559  0.00017488  -0.00049281  1
  V  V28  1  0.62610005  0.12407285  -0.00102190  1
  V  V29  1  0.12570877  0.75014639  0.87589716  1
  V  V30  1  0.62351987  0.12480812  0.49940876  1
  V  V31  1  0.50047886  -0.00011514  0.00001121  1
  V  V32  1  0.12406548  0.24976826  0.87460886  1
  V  V33  1  0.62441545  0.25046574  0.37410431  1
  V  V34  1  0.87465755  0.24941963  0.62516009  1
  V  V35  1  0.37566069  0.12547614  0.74950672  1
  V  V36  1  0.37592037  0.24977589  0.12540187  1
  V  V37  1  0.75011958  0.12497747  0.37380003  1
  V  V38  1  0.62575867  0.75050760  0.37536915  1
  V  V39  1  0.25041493  0.00017835  0.25100113  1
  V  V40  1  0.87458075  0.00151540  0.37514799  1
  V  V41  1  -0.00043766  0.87591503  0.37430099  1
  V  V42  1  0.37564486  0.12599890  0.24945535  1
  V  V43  1  0.62569427  0.74846175  0.87492254  1
  V  V44  1  0.62546635  0.62475365  -0.00053822  1
  V  V45  1  0.75034545  0.12297416  0.87450196  1
  V  V46  1  0.37534395  0.37542260  0.00085587  1
  V  V47  1  0.25107696  0.50140768  0.25029737  1
  V  V48  1  0.25005783  0.50040578  0.75180676  1
  V  V49  1  0.37481125  0.37547216  0.50023119  1
  V  V50  1  0.75098211  0.49906298  0.74987351  1
  V  V51  1  0.12556971  0.62667970  0.49890589  1
  V  V52  1  0.62573231  0.49970503  0.12534366  1
  V  V53  1  0.37610056  0.62605458  0.25072162  1
  V  V54  1  0.12562755  0.50152185  0.12529548  1
  V  V55  1  0.24893273  -0.00092318  0.74910406  1
  V  V56  1  0.75028622  0.62376710  0.87461051  1
  V  V57  1  0.62384766  0.00005942  0.62413990  1
  V  V58  1  0.74993337  -0.00118137  0.75049782  1
  V  V59  1  0.62458806  0.49895969  0.62493628  1
  V  V60  1  0.50016157  0.87413921  0.87452808  1
  V  V61  1  0.25110808  0.37625445  0.12512948  1
  V  V62  1  -0.00045923  0.62615400  0.12581937  1
  V  V63  1  0.87610609  0.12609519  0.25033118  1
  V  V64  1  -0.00072479  0.37545724  0.87605250  1
  V  V65  1  0.49991832  0.50019254  -0.00030560  1
  V  V66  1  0.12635773  0.25058893  0.37620966  1
  V  V67  1  0.62515874  0.87423631  0.74926613  1
  V  V68  1  0.12476287  0.12505973  -0.00024335  1
  V  V69  1  0.87554210  0.49957372  0.87499300  1
  V  V70  1  0.74886171  0.37472391  0.62451055  1
  V  V71  1  0.12564279  0.62617089  0.00014388  1
  V  V72  1  0.37603142  0.75019948  0.12590908  1
  V  V73  1  0.49983655  0.74961493  0.74953512  1
  V  V74  1  -0.00014069  0.37652892  0.37434864  1
  V  V75  1  0.37319703  0.75136175  0.62370656  1
  V  V76  1  -0.00005580  0.74869058  0.74975892  1
  V  V77  1  0.50236554  0.37215621  0.87351922  1
  V  V78  1  0.24874444  0.25023909  0.49948336  1
  V  V79  1  0.37470982  0.00004132  0.37515703  1
  V  V80  1  0.49889907  0.00148493  0.49972363  1
  V  V81  1  0.24977458  0.12490352  0.87487463  1
  V  V82  1  0.87526233  0.50062229  0.37367506  1
  V  V83  1  0.00001909  0.87457158  0.87504264  1
  V  V84  1  -0.00153165  0.62486138  0.62571609  1
  V  V85  1  0.12407875  0.87583923  0.25068410  1
  V  V86  1  0.62655705  0.37522262  0.24848988  1
  V  V87  1  0.87470621  -0.00123206  0.87367108  1
  V  V88  1  0.12593549  0.37607030  0.25025048  1
  V  V89  1  0.37482133  -0.00011882  0.87463386  1
  V  V90  1  0.00001622  0.00108038  0.50098399  1
  V  V91  1  -0.00054367  0.50048275  0.49868698  1
  V  V92  1  0.74952367  0.62487185  0.37474374  1
  V  V93  1  0.74951563  0.25027891  0.50022953  1
  V  V94  1  0.37508217  0.87535073  0.00027887  1
  V  V95  1  0.24960075  0.37469388  0.62607785  1
  Zn  Zn96  1  0.12689002  0.75240678  0.37540735  1
  Zn  Zn97  1  0.75193854  0.49940022  0.24721736  1
  Zn  Zn98  1  0.87459075  0.37562762  0.49790878  1
  Zn  Zn99  1  0.24940807  0.87376985  0.62242216  1
  Zn  Zn100  1  0.62575595  0.24802472  0.87273291  1
  Zn  Zn101  1  0.12443666  0.49907551  0.62543209  1
  Zn  Zn102  1  0.87523793  0.25256227  0.12531961  1
  Zn  Zn103  1  0.75158807  0.74790998  0.00000348  1
  Zn  Zn104  1  0.50024360  0.49923715  0.50110415  1
  Zn  Zn105  1  0.37277321  0.62627516  0.75189288  1
  Zn  Zn106  1  0.87488021  0.62527331  0.74986792  1
  Zn  Zn107  1  0.37050856  0.87627076  0.50001655  1
  Zn  Zn108  1  0.50073198  0.24961812  0.24740750  1
  Zn  Zn109  1  0.75244445  0.37581008  0.12325242  1
  Zn  Zn110  1  0.50071350  0.75052428  0.25046632  1
  Zn  Zn111  1  0.25025005  0.75157920  0.49976840  1
  Zn  Zn112  1  0.62649580  0.87561246  0.25012190  1
  Zn  Zn113  1  0.75115270  0.74949422  0.50142711  1
  Zn  Zn114  1  0.87497118  0.37443076  0.00269377  1
  Zn  Zn115  1  0.50086841  0.12648789  0.12354100  1
  Zn  Zn116  1  0.87356300  0.74916059  0.12369498  1
  Zn  Zn117  1  0.25140235  0.62598745  0.87535893  1
  Zn  Zn118  1  0.62463037  0.36980732  0.74975090  1
  Zn  Zn119  1  0.87534120  0.12329563  0.74947430  1
  Zn  Zn120  1  0.75040884  0.00051196  0.25025219  1
  Zn  Zn121  1  0.50247419  0.24729604  0.74940248  1
  Zn  Zn122  1  0.62601042  0.62424640  0.49966197  1
  Zn  Zn123  1  0.12448691  0.12587569  0.49908946  1
  Zn  Zn124  1  0.87270891  0.74926610  0.62480472  1
  Zn  Zn125  1  -0.00110564  0.12591071  0.62464097  1
  Zn  Zn126  1  0.49981593  0.12603231  0.62644340  1
  Zn  Zn127  1  0.24892769  0.12460513  0.37743342  1
  Zn  Zn128  1  0.18880477  0.18804351  0.18846167  1
  Zn  Zn129  1  0.18763760  0.18629246  0.68675834  1
  Zn  Zn130  1  0.18744431  0.68947714  0.18861313  1
  Zn  Zn131  1  0.18642785  0.68610992  0.68747554  1
  Zn  Zn132  1  0.68929261  0.18768753  0.18634180  1
  Zn  Zn133  1  0.68597052  0.18621266  0.68906083  1
  Zn  Zn134  1  0.68701061  0.68864698  0.18952596  1
  Zn  Zn135  1  0.68854767  0.68624960  0.68840022  1
  Zn  Zn136  1  0.31249152  0.31269895  0.31321151  1
  Zn  Zn137  1  0.31438536  0.31256627  0.81282825  1
  Zn  Zn138  1  0.31234426  0.81166331  0.31346260  1
  Zn  Zn139  1  0.31186556  0.81308688  0.81057333  1
  Zn  Zn140  1  0.81309967  0.31192713  0.31222953  1
  Zn  Zn141  1  0.81181929  0.31344571  0.81279210  1
  Zn  Zn142  1  0.81289128  0.81267189  0.31091412  1
  Zn  Zn143  1  0.81308591  0.81011695  0.81100398  1
  Zn  Zn144  1  0.18792964  0.43893076  0.43813711  1
  Zn  Zn145  1  0.18662394  0.43742450  0.93726035  1
  Zn  Zn146  1  0.18872005  0.93618218  0.43877649  1
  Zn  Zn147  1  0.18743149  0.93738172  0.93707696  1
  Zn  Zn148  1  0.68824959  0.43789694  0.43796693  1
  Zn  Zn149  1  0.68757510  0.43721171  0.93753169  1
  Zn  Zn150  1  0.68773929  0.93856679  0.43848593  1
  Zn  Zn151  1  0.68822056  0.93590682  0.93856669  1
  Zn  Zn152  1  0.31246813  0.06298274  0.06320717  1
  Zn  Zn153  1  0.31112495  0.06412297  0.56204825  1
  Zn  Zn154  1  0.31313446  0.56402148  0.06248377  1
  Zn  Zn155  1  0.31256570  0.56230546  0.56421611  1
  Zn  Zn156  1  0.81380431  0.06310550  0.06231150  1
  Zn  Zn157  1  0.81091734  0.06272749  0.56234140  1
  Zn  Zn158  1  0.81252788  0.56091306  0.06196861  1
  Zn  Zn159  1  0.81307922  0.56192442  0.56011762  1
  Zn  Zn160  1  0.43961315  0.43863552  0.18893202  1
  Zn  Zn161  1  0.43603094  0.43571454  0.68940128  1
  Zn  Zn162  1  0.43890752  0.93780583  0.18894304  1
  Zn  Zn163  1  0.43762509  0.93751672  0.68672391  1
  Zn  Zn164  1  0.93613952  0.43735953  0.18625585  1
  Zn  Zn165  1  0.93642832  0.43701163  0.68734361  1
  Zn  Zn166  1  0.93647904  0.93946181  0.18773823  1
  Zn  Zn167  1  0.93700353  0.93533862  0.68683921  1
  Zn  Zn168  1  0.06293417  0.06427644  0.31424786  1
  Zn  Zn169  1  0.06045610  0.06393766  0.81014338  1
  Zn  Zn170  1  0.06277673  0.56424030  0.31267859  1
  Zn  Zn171  1  0.06381692  0.56284288  0.81366348  1
  Zn  Zn172  1  0.56163311  0.06229753  0.31140011  1
  Zn  Zn173  1  0.56276464  0.06241517  0.81227595  1
  Zn  Zn174  1  0.56208908  0.56126214  0.31175412  1
  Zn  Zn175  1  0.56291152  0.56073205  0.81060202  1
  Zn  Zn176  1  0.43720737  0.18877101  0.43683733  1
  Zn  Zn177  1  0.43777135  0.18680822  0.93818471  1
  Zn  Zn178  1  0.43887052  0.68706871  0.44030265  1
  Zn  Zn179  1  0.43684383  0.68640841  0.93759456  1
  Zn  Zn180  1  0.93919382  0.18739768  0.43877460  1
  Zn  Zn181  1  0.93525661  0.18671497  0.93654819  1
  Zn  Zn182  1  0.93706881  0.69031508  0.43672795  1
  Zn  Zn183  1  0.93634505  0.68692998  0.93805163  1
  Zn  Zn184  1  0.06290302  0.31347431  0.06311030  1
  Zn  Zn185  1  0.06203614  0.31418122  0.56222785  1
  Zn  Zn186  1  0.06195787  0.81255104  0.06384405  1
  Zn  Zn187  1  0.06033465  0.81275053  0.56250523  1
  Zn  Zn188  1  0.56377585  0.31035835  0.06163502  1
  Zn  Zn189  1  0.56039147  0.31140031  0.56239049  1
  Zn  Zn190  1  0.56316668  0.81148352  0.06098393  1
  Zn  Zn191  1  0.56228949  0.81243014  0.55975030  1
  O  O192  1  0.12095892  0.12001759  0.11955671  1
  O  O193  1  0.12271383  0.11202380  0.62464666  1
  O  O194  1  0.12028783  0.62032312  0.12044671  1
  O  O195  1  0.11551675  0.62263317  0.61665282  1
  O  O196  1  0.62508998  0.11426196  0.11886561  1
  O  O197  1  0.62390416  0.11763267  0.61730673  1
  O  O198  1  0.61987748  0.62058351  0.12037296  1
  O  O199  1  0.61714701  0.61670460  0.62471726  1
  O  O200  1  0.37990182  0.38079915  0.37962042  1
  O  O201  1  0.38208280  0.38014274  0.88238607  1
  O  O202  1  0.38464632  0.88050608  0.37512915  1
  O  O203  1  0.38028002  0.88009054  0.88028212  1
  O  O204  1  0.88194897  0.38194408  0.37435902  1
  O  O205  1  0.88262852  0.38174574  0.87709289  1
  O  O206  1  0.87977673  0.88214683  0.37939638  1
  O  O207  1  0.88083881  0.87958216  0.88005052  1
  O  O208  1  0.25657580  0.00031056  0.36778754  1
  O  O209  1  0.25488129  0.00512209  0.87016374  1
  O  O210  1  0.25613903  0.50592943  0.36907615  1
  O  O211  1  0.25536025  0.49839171  0.86709210  1
  O  O212  1  0.75617673  0.00731544  0.37374232  1
  O  O213  1  0.75531189  0.00210451  0.87012657  1
  O  O214  1  0.75499496  0.50975382  0.37304803  1
  O  O215  1  0.75485770  0.50419403  0.86987042  1
  O  O216  1  0.24553607  0.49578469  0.13036792  1
  O  O217  1  0.24916733  0.49372260  0.63609877  1
  O  O218  1  0.24457121  0.99455368  0.13000613  1
  O  O219  1  0.23984344  0.99863043  0.63103983  1
  O  O220  1  0.74077520  0.49747281  0.12721360  1
  O  O221  1  0.74338790  0.49602567  0.62853250  1
  O  O222  1  0.74110857  0.99180916  0.12332818  1
  O  O223  1  0.74334135  0.99390898  0.63034975  1
  O  O224  1  0.00745941  0.37093864  0.25455591  1
  O  O225  1  0.00571071  0.36990807  0.75599417  1
  O  O226  1  0.00468296  0.87204659  0.25415711  1
  O  O227  1  0.00568641  0.86907964  0.75635259  1
  O  O228  1  0.51029845  0.37417523  0.25610742  1
  O  O229  1  0.49939628  0.37352588  0.76299835  1
  O  O230  1  0.50244462  0.87396714  0.26330698  1
  O  O231  1  0.50594100  0.86987305  0.75569314  1
  O  O232  1  0.48693552  0.12540535  0.24691172  1
  O  O233  1  0.49042858  0.12520242  0.74946507  1
  O  O234  1  0.49325887  0.62594100  0.24343734  1
  O  O235  1  0.49921561  0.63004002  0.73960970  1
  O  O236  1  0.99652624  0.13131533  0.24491251  1
  O  O237  1  0.99587784  0.13402787  0.74684646  1
  O  O238  1  0.99598789  0.63110317  0.24507512  1
  O  O239  1  1.00222010  0.62893873  0.74009275  1
  O  O240  1  0.36813478  0.25503797  0.00516839  1
  O  O241  1  0.36866803  0.25630569  0.50519963  1
  O  O242  1  0.36994686  0.75615240  0.00570462  1
  O  O243  1  0.37534220  0.75060104  0.51300628  1
  O  O244  1  0.86456652  0.25010224  0.00134943  1
  O  O245  1  0.86888114  0.25146929  0.50867932  1
  O  O246  1  0.87294501  0.75814876  0.00288467  1
  O  O247  1  0.87292562  0.75974020  0.50173333  1
  O  O248  1  0.13113698  0.25115854  0.49420035  1
  O  O249  1  0.13053241  0.24469830  0.99462366  1
  O  O250  1  0.12448071  0.73686762  0.49910513  1
  O  O251  1  0.13032178  0.74654661  0.99578052  1
  O  O252  1  0.62993100  0.24478587  0.49417662  1
  O  O253  1  0.63421801  0.24214552  0.99753714  1
  O  O254  1  0.62733961  0.74745694  0.48693730  1
  O  O255  1  0.62547189  0.74236812  0.99194974  1
  O  O256  1  0.49161337  0.24710301  0.12606686  1
  O  O257  1  0.49026891  0.24757286  0.62700666  1
  O  O258  1  0.49401403  0.74449912  0.12627214  1
  O  O259  1  0.49509176  0.74248030  0.62942118  1
  O  O260  1  1.00183304  0.24347828  0.13176257  1
  O  O261  1  0.99026492  0.25149073  0.62979516  1
  O  O262  1  0.99870985  0.74385076  0.13147977  1
  O  O263  1  0.99991020  0.74000339  0.63098797  1
  O  O264  1  0.00612882  0.25687698  0.36964349  1
  O  O265  1  0.00523770  0.25483831  0.87031527  1
  O  O266  1  0.00197786  0.75833405  0.36750770  1
  O  O267  1  0.00644721  0.75535082  0.87039601  1
  O  O268  1  0.50702882  0.25735848  0.37225490  1
  O  O269  1  0.50001215  0.26182689  0.87727787  1
  O  O270  1  0.50741900  0.75788656  0.37601095  1
  O  O271  1  0.50472566  0.75462531  0.86958345  1
  O  O272  1  0.24687270  0.13477153  0.49745027  1
  O  O273  1  0.24432330  0.13015740  0.99471632  1
  O  O274  1  0.24015232  0.62432146  0.49607439  1
  O  O275  1  0.24348097  0.63244564  1.00004206  1
  O  O276  1  0.74314028  0.13050311  0.49341920  1
  O  O277  1  0.74604196  0.13035163  0.99420108  1
  O  O278  1  0.74931611  0.62695735  0.48633573  1
  O  O279  1  0.74266553  0.62510973  0.99297086  1
  O  O280  1  0.25512693  0.37015581  0.00563124  1
  O  O281  1  0.25494947  0.37104209  0.50633224  1
  O  O282  1  0.25545250  0.87100541  0.00594343  1
  O  O283  1  0.25278997  0.86911595  0.50442709  1
  O  O284  1  0.75024284  0.36289090  -0.00077041  1
  O  O285  1  0.75143209  0.36793228  0.50595370  1
  O  O286  1  0.75593338  0.87379235  0.00901948  1
  O  O287  1  0.75610016  0.87512197  0.50639012  1
  O  O288  1  0.13132327  0.49614979  0.24486324  1
  O  O289  1  0.13453358  0.49280962  0.75146195  1
  O  O290  1  0.12995428  0.99583445  0.24436354  1
  O  O291  1  0.12846006  0.99499171  0.74331183  1
  O  O292  1  0.62557495  0.49038329  0.24414021  1
  O  O293  1  0.63096851  0.49758202  0.73846343  1
  O  O294  1  0.62637968  0.99915752  0.23739093  1
  O  O295  1  0.62971233  0.99270356  0.74464779  1
  O  O296  1  0.37022011  0.00731701  0.25378930  1
  O  O297  1  0.36907066  0.00399582  0.75575041  1
  O  O298  1  0.36977923  0.50592958  0.25579140  1
  O  O299  1  0.36401433  0.49905479  0.75616558  1
  O  O300  1  0.87510687  0.00852026  0.25756005  1
  O  O301  1  0.86794286  -0.00142502  0.75625974  1
  O  O302  1  0.87430618  0.50794832  0.25654194  1
  O  O303  1  0.86877399  0.50135625  0.75676781  1
  O  O304  1  0.12026989  0.37189832  0.36854506  1
  O  O305  1  0.11957690  0.36818531  0.87036304  1
  O  O306  1  0.11757979  0.87567658  0.36786274  1
  O  O307  1  0.11912531  0.87032047  0.87036825  1
  O  O308  1  0.62060494  0.37104637  0.36780240  1
  O  O309  1  0.61225425  0.37534260  0.87469575  1
  O  O310  1  0.61784419  0.86862069  0.37418674  1
  O  O311  1  0.61954379  0.86935171  0.86970134  1
  O  O312  1  0.37505053  0.12985355  0.13321655  1
  O  O313  1  0.37488243  0.13103243  0.63250949  1
  O  O314  1  0.38069125  0.63039999  0.13021583  1
  O  O315  1  0.38422928  0.63168845  0.62807462  1
  O  O316  1  0.88325773  0.12569357  0.13153285  1
  O  O317  1  0.87380999  0.13784711  0.62651210  1
  O  O318  1  0.88164349  0.62528382  0.13122759  1
  O  O319  1  0.88814348  0.62544489  0.62460384  1
  O  O320  1  0.25466868  0.25702119  0.11920465  1
  O  O321  1  0.25460733  0.25622696  0.62051583  1
  O  O322  1  0.25571406  0.75689037  0.11980277  1
  O  O323  1  0.26160534  0.74869359  0.62607653  1
  O  O324  1  0.75143776  0.25006212  0.11204520  1
  O  O325  1  0.75611246  0.25466167  0.62022178  1
  O  O326  1  0.74981668  0.76160900  0.12315999  1
  O  O327  1  0.75086680  0.75672932  0.62257819  1
  O  O328  1  0.24354452  0.25154088  0.38176177  1
  O  O329  1  0.24430346  0.24504036  0.88077356  1
  O  O330  1  0.24777965  0.74134567  0.37754365  1
  O  O331  1  0.24388850  0.75038853  0.88182101  1
  O  O332  1  0.74417735  0.24489624  0.38068733  1
  O  O333  1  0.75001158  0.24251593  0.88337380  1
  O  O334  1  0.74243867  0.74228982  0.37447735  1
  O  O335  1  0.74269775  0.74287521  0.87523252  1
  O  O336  1  0.00613916  0.11963785  0.00426633  1
  O  O337  1  0.00284218  0.11657411  0.50352681  1
  O  O338  1  0.00667356  0.61982937  0.00583780  1
  O  O339  1  0.00693574  0.62099342  0.50558865  1
  O  O340  1  0.50636101  0.11679027  0.00074384  1
  O  O341  1  0.50651063  0.11861592  0.49943540  1
  O  O342  1  0.50535121  0.61923376  0.00550068  1
  O  O343  1  0.50289010  0.62149671  0.51416684  1
  O  O344  1  0.49228745  0.37672178  0.49351363  1
  O  O345  1  0.49469331  0.38096848  0.99360068  1
  O  O346  1  0.49895150  0.88200236  0.48823125  1
  O  O347  1  0.49418438  0.87991430  0.99377791  1
  O  O348  1  0.99944654  0.38293777  0.49216202  1
  O  O349  1  1.00189386  0.38232758  0.99343266  1
  O  O350  1  0.99418868  0.88117788  0.49415024  1
  O  O351  1  0.99611660  0.88124553  0.99494348  1
  O  O352  1  0.49362440  0.49426445  0.37786383  1
  O  O353  1  0.49482055  0.49285693  0.88022009  1
  O  O354  1  0.49573200  0.99246667  0.37937496  1
  O  O355  1  0.49423501  0.99296678  0.88022928  1
  O  O356  1  0.99513821  0.49618072  0.37876590  1
  O  O357  1  0.99643526  0.49511422  0.88026042  1
  O  O358  1  0.99453893  0.99533232  0.38057847  1
  O  O359  1  0.99586303  0.99417636  0.87991163  1
  O  O360  1  0.00631424  0.00604035  0.11905543  1
  O  O361  1  0.00829426  -0.00006744  0.62082106  1
  O  O362  1  0.00730660  0.50632312  0.12059290  1
  O  O363  1  0.00156733  0.50837801  0.61938172  1
  O  O364  1  0.50985183  -0.00170291  0.11824948  1
  O  O365  1  0.50642240  0.00060858  0.61790999  1
  O  O366  1  0.50507050  0.50597881  0.11899305  1
  O  O367  1  0.50701319  0.50708154  0.62765220  1
  O  O368  1  0.24584505  0.38196143  0.24443156  1
  O  O369  1  0.24500614  0.38143729  0.74662328  1
  O  O370  1  0.24506792  0.88062648  0.24434645  1
  O  O371  1  0.24233014  0.88211692  0.74853109  1
  O  O372  1  0.73672106  0.37583083  0.24994801  1
  O  O373  1  0.74739230  0.38194801  0.74281421  1
  O  O374  1  0.74892753  0.87911330  0.23807638  1
  O  O375  1  0.74353572  0.87930406  0.74473608  1
  O  O376  1  0.26051996  0.11905873  0.25007975  1
  O  O377  1  0.25455403  0.11889129  0.75677740  1
  O  O378  1  0.25575097  0.61992092  0.25500475  1
  O  O379  1  0.24934218  0.61227317  0.75260008  1
  O  O380  1  0.75739227  0.12456169  0.25647454  1
  O  O381  1  0.75098032  0.11576269  0.75667448  1
  O  O382  1  0.75576483  0.62458007  0.26041220  1
  O  O383  1  0.75142416  0.61676012  0.75658387  1
  O  O384  1  0.37357528  0.11988994  0.36454068  1
  O  O385  1  0.36827275  0.11886628  0.87115343  1
  O  O386  1  0.37114888  0.62019915  0.37110154  1
  O  O387  1  0.37253524  0.61724194  0.87241216  1
  O  O388  1  0.87011171  0.12099781  0.37046013  1
  O  O389  1  0.86866241  0.11549094  0.87328431  1
  O  O390  1  0.86825244  0.62135400  0.36938753  1
  O  O391  1  0.86906869  0.61726672  0.87395510  1
  O  O392  1  0.13180249  0.38167647  0.13054120  1
  O  O393  1  0.13115068  0.37707009  0.63241869  1
  O  O394  1  0.13058919  0.88195175  0.13007755  1
  O  O395  1  0.12389229  0.88453160  0.63150952  1
  O  O396  1  0.62417830  0.38031543  0.13388313  1
  O  O397  1  0.62940884  0.38369856  0.62530219  1
  O  O398  1  0.63272659  0.88291338  0.12355384  1
  O  O399  1  0.62909776  0.87976486  0.62978249  1
  O  O400  1  0.12149658  0.25720610  0.25493967  1
  O  O401  1  0.12018904  0.25465305  0.75555412  1
  O  O402  1  0.11852037  0.75850001  0.25069683  1
  O  O403  1  0.12006430  0.75506527  0.75580174  1
  O  O404  1  0.62378669  0.25803996  0.25489923  1
  O  O405  1  0.62074888  0.25226853  0.75505593  1
  O  O406  1  0.62197964  0.75291533  0.26299448  1
  O  O407  1  0.61904245  0.75511923  0.75529434  1
  O  O408  1  0.37447343  0.24163706  0.24452900  1
  O  O409  1  0.37467768  0.24287758  0.74442567  1
  O  O410  1  0.37639070  0.74364166  0.24311630  1
  O  O411  1  0.38170652  0.74885618  0.74180020  1
  O  O412  1  0.88337712  0.24359271  0.24990494  1
  O  O413  1  0.87924147  0.25005318  0.74022898  1
  O  O414  1  0.88211346  0.74371466  0.24730071  1
  O  O415  1  0.88471848  0.74577966  0.74731815  1
  O  O416  1  0.37493649  0.49305584  0.49456747  1
  O  O417  1  0.38007266  0.49464618  0.99603096  1
  O  O418  1  0.38082269  1.00006484  0.49285954  1
  O  O419  1  0.37933328  0.99471026  0.99449530  1
  O  O420  1  0.88213722  0.49875542  0.49143299  1
  O  O421  1  0.88331426  0.49891428  0.99315121  1
  O  O422  1  0.87998780  0.99515196  0.49478506  1
  O  O423  1  0.88171432  0.99426089  0.99383392  1
  O  O424  1  0.12027310  0.00546668  0.00505022  1
  O  O425  1  0.11905065  -0.00079885  0.50984169  1
  O  O426  1  0.12084888  0.50582942  0.00594826  1
  O  O427  1  0.11909635  0.51125987  0.50099291  1
  O  O428  1  0.62047085  0.00331548  0.00761291  1
  O  O429  1  0.61902319  0.00573600  0.50446968  1
  O  O430  1  0.61878180  0.50559439  0.00521550  1
  O  O431  1  0.62329806  0.50158394  0.51346430  1
  O  O432  1  0.37021622  0.37142683  0.12047971  1
  O  O433  1  0.36874370  0.36945269  0.62025596  1
  O  O434  1  0.37025073  0.87117158  0.12011905  1
  O  O435  1  0.37521212  0.86330116  0.62413376  1
  O  O436  1  0.87104477  0.37108476  0.12144626  1
  O  O437  1  0.86865559  0.36507451  0.62255022  1
  O  O438  1  0.86601043  0.87683903  0.11928869  1
  O  O439  1  0.86798531  0.87426187  0.61796974  1
  O  O440  1  0.12840091  0.13443879  0.37637345  1
  O  O441  1  0.13001143  0.12993402  0.88023218  1
  O  O442  1  0.13074456  0.62603831  0.38398971  1
  O  O443  1  0.12647421  0.63252722  0.88281534  1
  O  O444  1  0.62967801  0.13041945  0.37872218  1
  O  O445  1  0.63289198  0.12209891  0.88261525  1
  O  O446  1  0.63217280  0.63151638  0.37480336  1
  O  O447  1  0.62927026  0.62842742  0.87944650  1
