# generated using pymatgen
data_V3Zn3O8
_symmetry_space_group_name_H-M   'P 1'
_cell_length_a   17.08644326
_cell_length_b   17.08782222
_cell_length_c   17.08597087
_cell_angle_alpha   90.00204466
_cell_angle_beta   90.00741158
_cell_angle_gamma   90.00220661
_symmetry_Int_Tables_number   1
_chemical_formula_structural   V3Zn3O8
_chemical_formula_sum   'V96 Zn96 O256'
_cell_volume   4988.59265722
_cell_formula_units_Z   32
loop_
 _symmetry_equiv_pos_site_id
 _symmetry_equiv_pos_as_xyz
  1  'x, y, z'
loop_
 _atom_site_type_symbol
 _atom_site_label
 _atom_site_symmetry_multiplicity
 _atom_site_fract_x
 _atom_site_fract_y
 _atom_site_fract_z
 _atom_site_occupancy
  V  V0  1  0.87507073  0.24984428  0.12534943  1
  V  V1  1  -0.00030627  0.37544756  0.37534242  1
  V  V2  1  0.74995160  0.62455565  0.87538895  1
  V  V3  1  0.12446286  0.49983464  0.62423071  1
  V  V4  1  0.74919475  0.24923736  -0.00010382  1
  V  V5  1  0.24875130  0.62483850  0.87318588  1
  V  V6  1  0.00034158  0.00023378  0.00001581  1
  V  V7  1  0.24940910  0.37561872  0.62549877  1
  V  V8  1  0.87457940  0.62464451  0.75037766  1
  V  V9  1  0.75064836  0.87429200  0.62483322  1
  V  V10  1  0.62602216  0.87484332  0.74984520  1
  V  V11  1  -0.00083997  0.49929687  0.50013650  1
  V  V12  1  0.62607294  0.74827288  0.37511679  1
  V  V13  1  0.37431489  0.50020952  0.37433105  1
  V  V14  1  0.74835798  0.12484679  0.87719797  1
  V  V15  1  -0.00062960  0.00026108  0.49926728  1
  V  V16  1  0.49978572  0.25088833  0.75139374  1
  V  V17  1  0.24911536  0.37588761  0.12459452  1
  V  V18  1  0.37539943  0.37512351  0.49943577  1
  V  V19  1  0.12394848  0.37657169  0.24959611  1
  V  V20  1  0.37591962  0.00007181  0.87422659  1
  V  V21  1  0.00049927  0.75056480  0.24942223  1
  V  V22  1  0.12643660  0.00080569  0.12606665  1
  V  V23  1  0.50120238  0.00030243  0.00047283  1
  V  V24  1  0.25237895  0.12405633  0.37331683  1
  V  V25  1  0.75003969  0.24948637  0.50042095  1
  V  V26  1  0.25019518  0.00034943  0.74947253  1
  V  V27  1  0.62695233  0.62472852  0.50041394  1
  V  V28  1  0.00040276  0.87631419  0.87539575  1
  V  V29  1  0.74976331  0.74944909  0.00071058  1
  V  V30  1  0.62472048  0.75032747  0.87536438  1
  V  V31  1  0.00029812  0.24973520  0.75028430  1
  V  V32  1  0.50026330  0.87512403  0.37555504  1
  V  V33  1  0.74959401  0.50030708  0.25127737  1
  V  V34  1  0.87540492  0.75028645  0.12529794  1
  V  V35  1  0.49864992  0.50077674  -0.00120508  1
  V  V36  1  0.37431064  0.87456793  -0.00062606  1
  V  V37  1  0.12613644  0.87599935  0.24984475  1
  V  V38  1  0.62358953  0.62466731  0.00028924  1
  V  V39  1  0.00085968  0.25163679  0.25027456  1
  V  V40  1  0.62555233  0.49918391  0.62559739  1
  V  V41  1  -0.00101285  0.75022306  0.74972192  1
  V  V42  1  0.62503510  0.37434118  0.75019552  1
  V  V43  1  0.37340101  0.50113524  0.87363944  1
  V  V44  1  0.50004881  0.87514436  0.87398154  1
  V  V45  1  0.12492158  0.62591066  0.49912454  1
  V  V46  1  0.50069614  0.12446636  0.62502064  1
  V  V47  1  0.62500909  0.00026585  0.62429853  1
  V  V48  1  0.25156506  0.87498846  0.12422373  1
  V  V49  1  0.00025760  0.87651278  0.37513151  1
  V  V50  1  0.12529549  0.12585987  0.49991164  1
  V  V51  1  0.24981400  0.12620739  0.87504082  1
  V  V52  1  0.49931444  0.62539944  0.62503552  1
  V  V53  1  0.24950995  0.25061835  -0.00020850  1
  V  V54  1  0.62533101  0.87355854  0.24984181  1
  V  V55  1  0.49950269  0.74845007  0.24943233  1
  V  V56  1  0.49900953  0.62450177  0.12432636  1
  V  V57  1  0.74909206  0.37431154  0.12545352  1
  V  V58  1  0.87481601  0.37505066  0.50055285  1
  V  V59  1  0.87442371  0.12316375  0.25240401  1
  V  V60  1  0.00138275  0.12598184  0.12469956  1
  V  V61  1  0.74984858  0.87433446  0.12578992  1
  V  V62  1  -0.00156601  0.50000469  -0.00017851  1
  V  V63  1  0.12526272  0.50081150  0.12529638  1
  V  V64  1  0.12474523  0.62613470  -0.00107550  1
  V  V65  1  0.25105067  0.87391537  0.62390116  1
  V  V66  1  0.37559203  0.62448324  0.25032165  1
  V  V67  1  0.87422933  0.62454080  0.25004544  1
  V  V68  1  0.75039965  -0.00005269  0.75129387  1
  V  V69  1  0.24969626  0.24955306  0.50048295  1
  V  V70  1  0.62536587  0.37343710  0.25086924  1
  V  V71  1  0.37596715  0.87441641  0.49953089  1
  V  V72  1  0.24850560  0.50034387  0.74921766  1
  V  V73  1  -0.00031731  0.12508387  0.62557556  1
  V  V74  1  0.37644255  0.24912967  0.12693441  1
  V  V75  1  -0.00054728  0.37429889  0.87495691  1
  V  V76  1  0.12475043  0.87545870  0.74982489  1
  V  V77  1  0.00082797  0.62579612  0.12441648  1
  V  V78  1  0.50048851  0.74948433  0.74863010  1
  V  V79  1  0.87643908  0.87487805  0.00049647  1
  V  V80  1  0.75092505  0.75000068  0.50002150  1
  V  V81  1  0.37475449  0.25008495  0.62517070  1
  V  V82  1  0.87463594  0.12354584  0.75038873  1
  V  V83  1  0.62534843  0.24889282  0.37522656  1
  V  V84  1  0.87423377  0.37534618  0.00100271  1
  V  V85  1  0.12533696  0.12590687  -0.00014652  1
  V  V86  1  0.87550746  0.87486600  0.49973754  1
  V  V87  1  0.62593645  0.12487981  0.50003641  1
  V  V88  1  0.12577253  0.75015205  0.87487859  1
  V  V89  1  0.12513374  -0.00009868  0.62489311  1
  V  V90  1  0.74936810  0.37417155  0.62608063  1
  V  V91  1  0.12569024  0.74983038  0.37543918  1
  V  V92  1  0.62462823  0.00058138  0.12475495  1
  V  V93  1  0.37499271  0.12498949  0.74934052  1
  V  V94  1  0.50020257  0.37313709  0.37464382  1
  V  V95  1  0.49901563  0.37588904  0.87459100  1
  Zn  Zn96  1  0.25332937  0.00123683  0.25103053  1
  Zn  Zn97  1  0.49977835  0.12552028  0.12602889  1
  Zn  Zn98  1  0.37268729  0.74862764  0.62507623  1
  Zn  Zn99  1  0.50102195  0.24755731  0.24885460  1
  Zn  Zn100  1  0.87320418  -0.00010886  0.37476707  1
  Zn  Zn101  1  0.12377002  0.37520963  0.74993375  1
  Zn  Zn102  1  0.12627206  0.25044447  0.87550060  1
  Zn  Zn103  1  0.62266691  0.25050073  0.87792597  1
  Zn  Zn104  1  0.62246307  0.49848311  0.12496354  1
  Zn  Zn105  1  0.75094049  -0.00130471  0.25172618  1
  Zn  Zn106  1  0.50114348  0.00031391  0.49833282  1
  Zn  Zn107  1  0.87596369  0.74938628  0.62388405  1
  Zn  Zn108  1  0.87400255  0.24957001  0.62452817  1
  Zn  Zn109  1  -0.00210618  0.62527873  0.62510915  1
  Zn  Zn110  1  0.37826826  0.00015810  0.37222708  1
  Zn  Zn111  1  0.24868401  0.50199343  0.24947307  1
  Zn  Zn112  1  0.74950732  0.12209542  0.37560125  1
  Zn  Zn113  1  0.87460331  0.50172234  0.37630079  1
  Zn  Zn114  1  0.75142564  0.62439181  0.37644209  1
  Zn  Zn115  1  0.87508483  -0.00097570  0.87661258  1
  Zn  Zn116  1  0.37401458  0.37617280  -0.00000326  1
  Zn  Zn117  1  0.37305592  0.62715130  0.74763641  1
  Zn  Zn118  1  0.87254793  0.49981458  0.87573469  1
  Zn  Zn119  1  0.50128586  0.49942763  0.50033521  1
  Zn  Zn120  1  0.25091035  0.74948460  0.49948787  1
  Zn  Zn121  1  0.37427533  0.74897074  0.12310595  1
  Zn  Zn122  1  0.12614822  0.25167243  0.37510974  1
  Zn  Zn123  1  0.25077562  0.62689734  0.37334107  1
  Zn  Zn124  1  0.37930969  0.12217061  0.25065222  1
  Zn  Zn125  1  0.75097202  0.49786844  0.75268994  1
  Zn  Zn126  1  0.25151279  0.74954869  -0.00163439  1
  Zn  Zn127  1  0.62261247  0.12720515  0.00158825  1
  Zn  Zn128  1  0.18911701  0.19009742  0.18870688  1
  Zn  Zn129  1  0.18633851  0.18806239  0.68747364  1
  Zn  Zn130  1  0.19025473  0.68846096  0.18817188  1
  Zn  Zn131  1  0.18651092  0.68783593  0.68539783  1
  Zn  Zn132  1  0.68830823  0.18659762  0.18858077  1
  Zn  Zn133  1  0.68663597  0.18882477  0.68835168  1
  Zn  Zn134  1  0.68618477  0.68577256  0.18698607  1
  Zn  Zn135  1  0.68848951  0.68731437  0.68681444  1
  Zn  Zn136  1  0.31063474  0.31214257  0.31069567  1
  Zn  Zn137  1  0.31300865  0.31406622  0.81211814  1
  Zn  Zn138  1  0.31212417  0.81108159  0.31319043  1
  Zn  Zn139  1  0.31332777  0.81092998  0.81057867  1
  Zn  Zn140  1  0.81274378  0.31192973  0.31515589  1
  Zn  Zn141  1  0.81287047  0.31040664  0.81273339  1
  Zn  Zn142  1  0.81223243  0.81233249  0.31395436  1
  Zn  Zn143  1  0.81349203  0.81109750  0.81362297  1
  Zn  Zn144  1  0.18756559  0.43798859  0.43682791  1
  Zn  Zn145  1  0.18591328  0.43768588  0.93768575  1
  Zn  Zn146  1  0.18909476  0.93856264  0.43767338  1
  Zn  Zn147  1  0.18780986  0.93871598  0.93790199  1
  Zn  Zn148  1  0.68730026  0.43681063  0.43830738  1
  Zn  Zn149  1  0.68562902  0.43848598  0.93641973  1
  Zn  Zn150  1  0.68915955  0.93898004  0.43583879  1
  Zn  Zn151  1  0.68821320  0.93748762  0.93843192  1
  Zn  Zn152  1  0.31324338  0.06309404  0.06191708  1
  Zn  Zn153  1  0.31390184  0.06040674  0.56004649  1
  Zn  Zn154  1  0.31223161  0.56284886  0.06138538  1
  Zn  Zn155  1  0.31189570  0.56147928  0.56045169  1
  Zn  Zn156  1  0.81283018  0.06149463  0.06414933  1
  Zn  Zn157  1  0.81282444  0.06217089  0.56282996  1
  Zn  Zn158  1  0.81171124  0.56177707  0.06434483  1
  Zn  Zn159  1  0.81182506  0.56081461  0.56531527  1
  Zn  Zn160  1  0.43777880  0.43584666  0.18765061  1
  Zn  Zn161  1  0.43651035  0.43962700  0.68851333  1
  Zn  Zn162  1  0.43683277  0.93858468  0.18961642  1
  Zn  Zn163  1  0.43782977  0.93726496  0.68545118  1
  Zn  Zn164  1  0.93673586  0.43840977  0.18758950  1
  Zn  Zn165  1  0.93562298  0.43861923  0.68594294  1
  Zn  Zn166  1  0.93933622  0.93844763  0.18678323  1
  Zn  Zn167  1  0.93602661  0.93802687  0.68693326  1
  Zn  Zn168  1  0.06450024  0.06307059  0.31356324  1
  Zn  Zn169  1  0.06352033  0.06277484  0.81392843  1
  Zn  Zn170  1  0.06106297  0.56177409  0.31368398  1
  Zn  Zn171  1  0.06151683  0.56163900  0.81193232  1
  Zn  Zn172  1  0.56039049  0.06316114  0.31101352  1
  Zn  Zn173  1  0.56354325  0.06255153  0.81152405  1
  Zn  Zn174  1  0.56201642  0.56120273  0.31324695  1
  Zn  Zn175  1  0.56292453  0.56127764  0.81119637  1
  Zn  Zn176  1  0.43878683  0.18800416  0.43808641  1
  Zn  Zn177  1  0.43669921  0.18761891  0.94068917  1
  Zn  Zn178  1  0.43927337  0.68848452  0.43859099  1
  Zn  Zn179  1  0.43514078  0.68747163  0.93619263  1
  Zn  Zn180  1  0.93818948  0.19019000  0.43690686  1
  Zn  Zn181  1  0.93514177  0.18726702  0.93702768  1
  Zn  Zn182  1  0.93741835  0.68742616  0.43566393  1
  Zn  Zn183  1  0.93747419  0.68858853  0.93590861  1
  Zn  Zn184  1  0.06308501  0.31227403  0.06287357  1
  Zn  Zn185  1  0.06275449  0.31242700  0.56284478  1
  Zn  Zn186  1  0.06441630  0.81274408  0.06225774  1
  Zn  Zn187  1  0.06093443  0.81133262  0.56376835  1
  Zn  Zn188  1  0.56241075  0.31416968  0.06113561  1
  Zn  Zn189  1  0.56203220  0.31187560  0.56180027  1
  Zn  Zn190  1  0.56056235  0.81232306  0.06284483  1
  Zn  Zn191  1  0.56322942  0.81157662  0.56148175  1
  O  O192  1  0.12062021  0.12082981  0.12009946  1
  O  O193  1  0.11984766  0.11876665  0.62029003  1
  O  O194  1  0.11938334  0.62146921  0.11972894  1
  O  O195  1  0.12231039  0.61893753  0.61479478  1
  O  O196  1  0.62680858  0.11125948  0.12365430  1
  O  O197  1  0.61991510  0.12004671  0.62107205  1
  O  O198  1  0.61740483  0.62340856  0.11730875  1
  O  O199  1  0.61841031  0.61962087  0.62060311  1
  O  O200  1  0.37922741  0.38122553  0.37902693  1
  O  O201  1  0.38107173  0.38317748  0.87575621  1
  O  O202  1  0.38112434  0.87389993  0.38401721  1
  O  O203  1  0.38041491  0.88146383  0.87810693  1
  O  O204  1  0.88194377  0.37696862  0.38238622  1
  O  O205  1  0.88459771  0.37474542  0.88172496  1
  O  O206  1  0.88341382  0.87561122  0.38089726  1
  O  O207  1  0.88211994  0.87536489  0.88292348  1
  O  O208  1  0.25106588  0.01244178  0.37486563  1
  O  O209  1  0.25582610  0.00566905  0.86882916  1
  O  O210  1  0.26367085  0.50098858  0.37327123  1
  O  O211  1  0.25249135  0.50490780  0.86907291  1
  O  O212  1  0.75510457  0.00405638  0.36924629  1
  O  O213  1  0.75131184  0.00787418  0.87033139  1
  O  O214  1  0.75132245  0.50021367  0.36219767  1
  O  O215  1  0.75260397  0.50847952  0.87328463  1
  O  O216  1  0.24220940  0.49405829  0.12477872  1
  O  O217  1  0.24483167  0.49454543  0.62908547  1
  O  O218  1  0.24415758  0.99064515  0.12456965  1
  O  O219  1  0.24458569  0.99538601  0.63076067  1
  O  O220  1  0.74833186  0.49348816  0.13554071  1
  O  O221  1  0.74260903  0.49189887  0.62890431  1
  O  O222  1  0.74113486  0.99189346  0.12555749  1
  O  O223  1  0.74428321  0.99430311  0.63187976  1
  O  O224  1  0.00377364  0.37083204  0.25427731  1
  O  O225  1  -0.00197691  0.36665806  0.75785241  1
  O  O226  1  0.00600444  0.86966859  0.25392620  1
  O  O227  1  0.00545641  0.87174984  0.75545407  1
  O  O228  1  0.50796088  0.37279855  0.25678285  1
  O  O229  1  0.50425110  0.36987475  0.75443191  1
  O  O230  1  0.50585680  0.86770748  0.25497041  1
  O  O231  1  0.50683882  0.87069958  0.75472775  1
  O  O232  1  0.49749654  0.13053526  0.24411538  1
  O  O233  1  0.49424656  0.13020790  0.74532044  1
  O  O234  1  0.49528880  0.62898280  0.24435963  1
  O  O235  1  0.50118904  0.63077551  0.73954700  1
  O  O236  1  0.99429868  0.13104072  0.24403309  1
  O  O237  1  0.99562743  0.13096927  0.74681170  1
  O  O238  1  0.99520334  0.63089465  0.24338763  1
  O  O239  1  0.99036818  0.63125136  0.75156470  1
  O  O240  1  0.36711308  0.25244318  0.00898551  1
  O  O241  1  0.36933383  0.25564890  0.50712442  1
  O  O242  1  0.37229441  0.75911959  0.00107555  1
  O  O243  1  0.37377962  0.76150702  0.50234028  1
  O  O244  1  0.86967142  0.25541593  0.00649600  1
  O  O245  1  0.86875627  0.25659507  0.50223528  1
  O  O246  1  0.87002692  0.75495276  0.00624059  1
  O  O247  1  0.86940400  0.75638575  0.50083268  1
  O  O248  1  0.13216166  0.24310506  0.50057769  1
  O  O249  1  0.13088682  0.24262342  0.99965763  1
  O  O250  1  0.12255575  0.74067858  0.49417680  1
  O  O251  1  0.12537873  0.74369884  0.99225342  1
  O  O252  1  0.63068255  0.24454349  0.49533214  1
  O  O253  1  0.63359166  0.24700592  0.99827902  1
  O  O254  1  0.63154239  0.74481694  0.49465093  1
  O  O255  1  0.62990795  0.74541224  0.99439765  1
  O  O256  1  0.48831524  0.25071454  0.12356006  1
  O  O257  1  0.49364667  0.24461007  0.63120660  1
  O  O258  1  0.49784719  0.74320263  0.13156836  1
  O  O259  1  0.50256064  0.73978204  0.63091466  1
  O  O260  1  0.99439633  0.24513315  0.12980324  1
  O  O261  1  0.99909524  0.24410168  0.63494016  1
  O  O262  1  0.99538188  0.74561975  0.12982826  1
  O  O263  1  0.99709695  0.74728415  0.63479856  1
  O  O264  1  0.00331628  0.25784069  0.36816004  1
  O  O265  1  -0.00018037  0.25716513  0.86778776  1
  O  O266  1  0.00598113  0.75664119  0.36808510  1
  O  O267  1  0.00644723  0.75712472  0.86988620  1
  O  O268  1  0.50727547  0.25689980  0.37443759  1
  O  O269  1  0.49882381  0.25633602  0.86898246  1
  O  O270  1  0.50719300  0.75465972  0.36889365  1
  O  O271  1  0.50603166  0.75568673  0.86924646  1
  O  O272  1  0.24520312  0.12984143  0.49456593  1
  O  O273  1  0.24448160  0.12986923  0.99385023  1
  O  O274  1  0.23644350  0.62529650  0.49768760  1
  O  O275  1  0.24180662  0.62639290  0.99231690  1
  O  O276  1  0.74383438  0.13182036  0.50087604  1
  O  O277  1  0.75126924  0.12937570  0.99167664  1
  O  O278  1  0.74444044  0.63095907  0.49990420  1
  O  O279  1  0.74469337  0.63086492  0.99643504  1
  O  O280  1  0.24898214  0.36871644  0.00637761  1
  O  O281  1  0.25563306  0.36977983  0.50537501  1
  O  O282  1  0.25490637  0.87531276  0.00799733  1
  O  O283  1  0.25885929  0.87518664  0.50582208  1
  O  O284  1  0.75478484  0.37005049  0.00507445  1
  O  O285  1  0.75457106  0.36942457  0.50604157  1
  O  O286  1  0.75593520  0.86835944  0.00532908  1
  O  O287  1  0.75543623  0.86990925  0.50548106  1
  O  O288  1  0.12458707  0.49493927  0.24247503  1
  O  O289  1  0.12988670  0.49847595  0.74238223  1
  O  O290  1  0.12647902  0.99361048  0.24288490  1
  O  O291  1  0.13050384  0.99516770  0.74454681  1
  O  O292  1  0.63412151  0.49361000  0.24897821  1
  O  O293  1  0.62672883  0.49219447  0.74344623  1
  O  O294  1  0.62545322  0.99191428  0.23926487  1
  O  O295  1  0.63110141  0.99388813  0.74463326  1
  O  O296  1  0.37056177  0.00379485  0.25425109  1
  O  O297  1  0.36993355  0.00524847  0.75467552  1
  O  O298  1  0.37539079  0.50603766  0.25930113  1
  O  O299  1  0.36640201  0.50338138  0.75535152  1
  O  O300  1  0.87634203  0.01179694  0.24881597  1
  O  O301  1  0.86783350  0.00557747  0.75320258  1
  O  O302  1  0.86537090  0.50577547  0.24947697  1
  O  O303  1  0.87385383  0.51193450  0.75320544  1
  O  O304  1  0.11844265  0.37485832  0.36824017  1
  O  O305  1  0.11083662  0.37236184  0.87380655  1
  O  O306  1  0.11991361  0.87040944  0.36998836  1
  O  O307  1  0.12029900  0.87125602  0.86902888  1
  O  O308  1  0.61975716  0.36914635  0.37090192  1
  O  O309  1  0.61730662  0.37361727  0.86802030  1
  O  O310  1  0.62055449  0.86794268  0.36965822  1
  O  O311  1  0.62011949  0.86992239  0.86979488  1
  O  O312  1  0.37381975  0.13704668  0.12562370  1
  O  O313  1  0.37968466  0.12985627  0.63006909  1
  O  O314  1  0.38068475  0.62590683  0.13211848  1
  O  O315  1  0.38715912  0.62571938  0.62337422  1
  O  O316  1  0.88165413  0.13040881  0.13213444  1
  O  O317  1  0.88242889  0.12606072  0.63235310  1
  O  O318  1  0.88129524  0.63150277  0.12961994  1
  O  O319  1  0.87579467  0.62751260  0.63743829  1
  O  O320  1  0.25641470  0.25605436  0.11908266  1
  O  O321  1  0.25565181  0.25486483  0.62104592  1
  O  O322  1  0.25095574  0.76302222  0.12162041  1
  O  O323  1  0.25133381  0.75847795  0.62145218  1
  O  O324  1  0.75622865  0.25479899  0.11954659  1
  O  O325  1  0.75075617  0.25638724  0.61883296  1
  O  O326  1  0.75527891  0.75430884  0.11955344  1
  O  O327  1  0.75047090  0.75764432  0.61811989  1
  O  O328  1  0.24875626  0.24239380  0.38281543  1
  O  O329  1  0.24943974  0.24392446  0.88017959  1
  O  O330  1  0.24049511  0.74746207  0.37871193  1
  O  O331  1  0.24254075  0.74389677  0.87425169  1
  O  O332  1  0.74311841  0.24788819  0.38285557  1
  O  O333  1  0.74956306  0.23995421  0.88102895  1
  O  O334  1  0.74303243  0.74807207  0.38163866  1
  O  O335  1  0.74363858  0.74530161  0.88209589  1
  O  O336  1  0.00419215  0.12089970  0.00546643  1
  O  O337  1  0.00510309  0.12104847  0.50575851  1
  O  O338  1  0.00423904  0.62045585  0.00488814  1
  O  O339  1  0.00906274  0.61892119  0.50010250  1
  O  O340  1  0.50279634  0.11546540  0.00278953  1
  O  O341  1  0.50714317  0.12434217  0.50828843  1
  O  O342  1  0.50441336  0.62089260  0.00375370  1
  O  O343  1  0.50789419  0.62511709  0.51042957  1
  O  O344  1  0.49270921  0.37609437  0.49389516  1
  O  O345  1  0.49856607  0.38311207  0.99213496  1
  O  O346  1  0.49242318  0.87437327  0.49480335  1
  O  O347  1  0.49477041  0.87984675  0.99269724  1
  O  O348  1  0.99512600  0.37936151  0.49557346  1
  O  O349  1  0.99458728  0.37868426  0.99347835  1
  O  O350  1  0.99590033  0.88044686  0.49518736  1
  O  O351  1  0.99628924  0.88020612  0.99565325  1
  O  O352  1  0.48980771  0.49285782  0.37674022  1
  O  O353  1  0.49345716  0.49615520  0.87866574  1
  O  O354  1  0.50022188  0.98980832  0.37825022  1
  O  O355  1  0.49548790  0.99411936  0.87858291  1
  O  O356  1  0.99744955  0.49289901  0.38202433  1
  O  O357  1  0.99780780  0.48969388  0.88096664  1
  O  O358  1  0.99964771  0.99393863  0.38197817  1
  O  O359  1  0.99909143  0.99415102  0.88212551  1
  O  O360  1  0.00720843  0.00604338  0.11899508  1
  O  O361  1  0.00625571  0.00538232  0.62029722  1
  O  O362  1  0.00491564  0.50622686  0.11934323  1
  O  O363  1  0.00684119  0.50142599  0.61774748  1
  O  O364  1  0.51031548  -0.00313797  0.11838778  1
  O  O365  1  0.50780121  0.00712087  0.62518292  1
  O  O366  1  0.50022385  0.50620541  0.11757373  1
  O  O367  1  0.50596876  0.50990351  0.62466502  1
  O  O368  1  0.24160131  0.37782567  0.24270830  1
  O  O369  1  0.24683347  0.38082598  0.74318591  1
  O  O370  1  0.24417613  0.87555741  0.24062114  1
  O  O371  1  0.24441947  0.88154688  0.74500660  1
  O  O372  1  0.74661832  0.38181571  0.24535559  1
  O  O373  1  0.74410985  0.37374947  0.74471451  1
  O  O374  1  0.74360844  0.87384358  0.24251470  1
  O  O375  1  0.74507696  0.87939303  0.74643978  1
  O  O376  1  0.25027334  0.12591679  0.26277113  1
  O  O377  1  0.25548340  0.12000980  0.75417793  1
  O  O378  1  0.25929532  0.62240978  0.25223626  1
  O  O379  1  0.24938010  0.61845219  0.75502532  1
  O  O380  1  0.76426870  0.12398233  0.24960123  1
  O  O381  1  0.75419946  0.12057634  0.75777590  1
  O  O382  1  0.75468027  0.61562464  0.24915874  1
  O  O383  1  0.75861795  0.62609592  0.75695574  1
  O  O384  1  0.36378254  0.12450899  0.37739199  1
  O  O385  1  0.36984094  0.11912864  0.86886661  1
  O  O386  1  0.37705986  0.61577865  0.37045232  1
  O  O387  1  0.36685713  0.61886673  0.87175911  1
  O  O388  1  0.87639539  0.12492603  0.36272766  1
  O  O389  1  0.86402577  0.12253417  0.86999052  1
  O  O390  1  0.87221092  0.62239078  0.36532608  1
  O  O391  1  0.86881306  0.62522757  0.86724585  1
  O  O392  1  0.12826926  0.38172925  0.12962009  1
  O  O393  1  0.13198519  0.38200239  0.62530540  1
  O  O394  1  0.13223144  0.88057147  0.12921186  1
  O  O395  1  0.13006272  0.88101819  0.63039259  1
  O  O396  1  0.63239004  0.37614954  0.13210783  1
  O  O397  1  0.62898870  0.37953492  0.63016168  1
  O  O398  1  0.62996649  0.88068100  0.12939907  1
  O  O399  1  0.63054541  0.87988497  0.63076246  1
  O  O400  1  0.11730002  0.25852247  0.24966371  1
  O  O401  1  0.11170285  0.25046707  0.75231775  1
  O  O402  1  0.11905051  0.75563935  0.25463168  1
  O  O403  1  0.11920956  0.75646614  0.75532825  1
  O  O404  1  0.62699579  0.25694585  0.25688149  1
  O  O405  1  0.61660348  0.25634807  0.75228976  1
  O  O406  1  0.61970041  0.75386198  0.25487766  1
  O  O407  1  0.62077945  0.75581099  0.75610637  1
  O  O408  1  0.37521278  0.24930483  0.23773295  1
  O  O409  1  0.37967625  0.24397470  0.74390141  1
  O  O410  1  0.38253183  0.74159122  0.25021059  1
  O  O411  1  0.38476337  0.74760170  0.74598227  1
  O  O412  1  0.88074765  0.24304546  0.24434172  1
  O  O413  1  0.88626835  0.24288396  0.74934269  1
  O  O414  1  0.88065059  0.74527879  0.24368173  1
  O  O415  1  0.88050990  0.74096228  0.75038428  1
  O  O416  1  0.37732511  0.49392603  0.49065868  1
  O  O417  1  0.38090630  0.49949897  0.99145760  1
  O  O418  1  0.37892475  0.98663783  0.49798813  1
  O  O419  1  0.38069170  0.99450893  0.99305830  1
  O  O420  1  0.88083750  0.49358784  0.49952369  1
  O  O421  1  0.88126534  0.49325945  1.00068024  1
  O  O422  1  0.88265983  0.99335511  0.49943037  1
  O  O423  1  0.88274949  0.99255088  1.00114044  1
  O  O424  1  0.11968891  0.00636818  0.00588234  1
  O  O425  1  0.11904198  0.00547615  0.50635040  1
  O  O426  1  0.11729590  0.50651054  0.00527302  1
  O  O427  1  0.11970664  0.50736748  0.50376889  1
  O  O428  1  0.61988473  -0.00206070  0.00972788  1
  O  O429  1  0.62513779  0.00616008  0.50791128  1
  O  O430  1  0.61744079  0.50774020  0.00115933  1
  O  O431  1  0.62338364  0.50622128  0.50708537  1
  O  O432  1  0.36779221  0.36706175  0.12326868  1
  O  O433  1  0.36968855  0.37004888  0.61984040  1
  O  O434  1  0.36626892  0.87511717  0.11871698  1
  O  O435  1  0.37013180  0.87392759  0.61653238  1
  O  O436  1  0.86941197  0.36883139  0.12053852  1
  O  O437  1  0.86776414  0.37289582  0.61879545  1
  O  O438  1  0.87092050  0.86901180  0.12021667  1
  O  O439  1  0.86800653  0.87375782  0.61849364  1
  O  O440  1  0.13380096  0.12788349  0.38218626  1
  O  O441  1  0.13227457  0.12626084  0.88172220  1
  O  O442  1  0.12464931  0.63012735  0.38342617  1
  O  O443  1  0.12855900  0.63005815  0.87972877  1
  O  O444  1  0.62590633  0.13127728  0.38205767  1
  O  O445  1  0.63787840  0.12560249  0.87617725  1
  O  O446  1  0.62548769  0.63073719  0.38219670  1
  O  O447  1  0.62927344  0.63133314  0.88016007  1
