# generated using pymatgen
data_V3Zn3O8
_symmetry_space_group_name_H-M   'P 1'
_cell_length_a   17.08380664
_cell_length_b   17.08330966
_cell_length_c   17.08404527
_cell_angle_alpha   89.99766318
_cell_angle_beta   89.99478815
_cell_angle_gamma   90.00579172
_symmetry_Int_Tables_number   1
_chemical_formula_structural   V3Zn3O8
_chemical_formula_sum   'V96 Zn96 O256'
_cell_volume   4985.94369453
_cell_formula_units_Z   32
loop_
 _symmetry_equiv_pos_site_id
 _symmetry_equiv_pos_as_xyz
  1  'x, y, z'
loop_
 _atom_site_type_symbol
 _atom_site_label
 _atom_site_symmetry_multiplicity
 _atom_site_fract_x
 _atom_site_fract_y
 _atom_site_fract_z
 _atom_site_occupancy
  V  V0  1  -0.00131207  0.12623480  0.12344095  1
  V  V1  1  0.74961690  0.37577543  0.62507908  1
  V  V2  1  0.37451241  0.24908931  0.12646202  1
  V  V3  1  0.24985598  0.49908724  0.24953010  1
  V  V4  1  0.87725525  0.74981238  0.62494021  1
  V  V5  1  0.87411391  0.25081612  0.12356196  1
  V  V6  1  0.62431678  0.12551919  -0.00025132  1
  V  V7  1  0.87438544  0.00031390  0.87415559  1
  V  V8  1  0.12513962  0.25003347  0.37557699  1
  V  V9  1  0.50010096  0.37455738  0.37534093  1
  V  V10  1  0.25027732  0.62569889  0.37389080  1
  V  V11  1  0.37394821  0.74961200  0.12464096  1
  V  V12  1  0.24969653  0.12439886  0.87601486  1
  V  V13  1  -0.00010067  0.74933938  0.24859461  1
  V  V14  1  0.12539946  0.87539533  0.24867079  1
  V  V15  1  0.62490777  0.37458319  0.25031363  1
  V  V16  1  0.87440931  0.37510160  -0.00076362  1
  V  V17  1  0.00032675  0.50043090  0.00006604  1
  V  V18  1  0.74888275  0.12548756  0.87453806  1
  V  V19  1  0.12389059  0.00032061  0.62451115  1
  V  V20  1  0.62416201  0.87413359  0.25053509  1
  V  V21  1  0.74910917  0.00032115  0.24941926  1
  V  V22  1  0.37524598  0.75154875  0.62475564  1
  V  V23  1  0.24926269  0.12545185  0.37553951  1
  V  V24  1  0.12300736  0.12543080  -0.00004240  1
  V  V25  1  0.62586212  -0.00047192  0.62650174  1
  V  V26  1  0.62637237  0.62527116  -0.00072059  1
  V  V27  1  0.49954458  0.24970332  0.74998188  1
  V  V28  1  0.75031310  0.62511889  0.37501593  1
  V  V29  1  0.87584307  0.62528887  0.24994937  1
  V  V30  1  0.49951247  0.12615680  0.62575351  1
  V  V31  1  0.87561210  0.62546745  0.74890383  1
  V  V32  1  0.87655187  0.12518441  0.74793782  1
  V  V33  1  -0.00015966  0.37468195  0.37499388  1
  V  V34  1  0.50067177  0.74955053  0.25056928  1
  V  V35  1  0.74963600  0.75003370  -0.00049362  1
  V  V36  1  0.62367250  0.00036177  0.12545374  1
  V  V37  1  0.62610549  0.12505936  0.49969985  1
  V  V38  1  0.87539428  0.49911613  0.37574617  1
  V  V39  1  0.50025791  0.87413466  0.87449923  1
  V  V40  1  0.37433852  0.12403333  0.25128477  1
  V  V41  1  0.25091612  0.37506433  0.62417622  1
  V  V42  1  0.37488979  0.25082349  0.62509924  1
  V  V43  1  0.37574480  0.49947547  0.87601170  1
  V  V44  1  0.00011751  0.62415408  0.12519823  1
  V  V45  1  0.25012484  0.62518997  0.87524907  1
  V  V46  1  0.74994271  0.12522950  0.37479218  1
  V  V47  1  0.49846756  -0.00007495  0.00102933  1
  V  V48  1  0.12515911  0.37457171  0.25081476  1
  V  V49  1  0.75031949  0.87531743  0.62524541  1
  V  V50  1  0.24999641  0.37411550  0.12610533  1
  V  V51  1  0.74991063  0.24924578  0.49921278  1
  V  V52  1  0.74967913  -0.00048031  0.74899180  1
  V  V53  1  0.75041876  0.37517284  0.12407792  1
  V  V54  1  0.37554166  0.62513548  0.75015254  1
  V  V55  1  0.12513893  0.62563702  0.50012216  1
  V  V56  1  0.24990150  0.25019054  0.50038412  1
  V  V57  1  0.12501898  0.37553186  0.74990260  1
  V  V58  1  0.62391417  0.24971721  0.87403501  1
  V  V59  1  0.37586019  0.49996708  0.37571628  1
  V  V60  1  0.75076918  0.75067989  0.50008604  1
  V  V61  1  -0.00098456  0.87693626  0.37354099  1
  V  V62  1  0.87500770  0.50037307  0.87399555  1
  V  V63  1  0.49998627  0.37450700  0.87525746  1
  V  V64  1  0.87649590  0.24859364  0.62487495  1
  V  V65  1  0.50072739  0.62427028  0.12486958  1
  V  V66  1  0.49876854  0.12473112  0.12706374  1
  V  V67  1  0.74958496  0.49903922  0.74869866  1
  V  V68  1  0.62497812  0.75022658  0.37461086  1
  V  V69  1  0.00072119  0.87350455  0.87502662  1
  V  V70  1  0.25042583  0.87594630  0.62591876  1
  V  V71  1  0.49793224  -0.00194232  0.49992823  1
  V  V72  1  0.62529532  0.49971543  0.12473052  1
  V  V73  1  0.24994676  0.25050404  0.00112587  1
  V  V74  1  0.87439247  0.12619725  0.24806235  1
  V  V75  1  0.25018926  0.50052634  0.75013600  1
  V  V76  1  0.12424666  0.75040094  0.87457039  1
  V  V77  1  -0.00093867  0.00118713  -0.00048217  1
  V  V78  1  0.37539266  0.62475786  0.25017599  1
  V  V79  1  0.12581294  0.75001767  0.37396095  1
  V  V80  1  0.87586634  -0.00046794  0.37429381  1
  V  V81  1  0.37278634  0.00085983  0.87545446  1
  V  V82  1  0.12504542  0.25067030  0.87406241  1
  V  V83  1  0.50157096  0.62376819  0.62541667  1
  V  V84  1  0.74997319  0.62566683  0.87538335  1
  V  V85  1  0.87355816  0.87516460  -0.00005764  1
  V  V86  1  0.74951871  0.87505336  0.12371876  1
  V  V87  1  0.24865885  -0.00079551  0.24953506  1
  V  V88  1  0.62492124  0.62451778  0.50095028  1
  V  V89  1  0.12549121  0.50162686  0.62434077  1
  V  V90  1  0.87517065  0.37503150  0.49919834  1
  V  V91  1  0.25055593  0.74959463  0.00117895  1
  V  V92  1  0.75033193  0.50039383  0.25004466  1
  V  V93  1  0.50011737  0.49915931  -0.00051482  1
  V  V94  1  0.12430645  0.62365991  0.00031059  1
  V  V95  1  0.00041078  0.37498501  0.87360054  1
  Zn  Zn96  1  0.50043904  0.49933504  0.50078526  1
  Zn  Zn97  1  0.37293587  0.87403818  0.00200567  1
  Zn  Zn98  1  0.00169247  0.12469805  0.62314985  1
  Zn  Zn99  1  0.37603643  0.37699653  0.50024865  1
  Zn  Zn100  1  0.87649072  0.87616639  0.49889803  1
  Zn  Zn101  1  -0.00091610  0.50073339  0.50134723  1
  Zn  Zn102  1  0.25136679  0.75272430  0.49786895  1
  Zn  Zn103  1  0.24929794  0.87477247  0.12404536  1
  Zn  Zn104  1  0.37517917  0.37425068  0.00139200  1
  Zn  Zn105  1  0.50345226  0.75058980  0.75193918  1
  Zn  Zn106  1  0.00228581  0.74917257  0.74956793  1
  Zn  Zn107  1  0.49781339  0.87415867  0.37623800  1
  Zn  Zn108  1  0.62425031  0.75044711  0.87359143  1
  Zn  Zn109  1  -0.00044447  0.00079296  0.49970264  1
  Zn  Zn110  1  -0.00022396  0.25026502  0.24972646  1
  Zn  Zn111  1  0.37447245  -0.00315879  0.37638833  1
  Zn  Zn112  1  0.24828045  0.00085090  0.75122907  1
  Zn  Zn113  1  0.74871263  0.25092765  -0.00177114  1
  Zn  Zn114  1  0.12274293  0.12467991  0.50047434  1
  Zn  Zn115  1  0.62414362  0.24927648  0.37387350  1
  Zn  Zn116  1  0.62490966  0.37566505  0.74831635  1
  Zn  Zn117  1  0.37573618  0.87509825  0.49879667  1
  Zn  Zn118  1  0.37285140  0.12513676  0.74998807  1
  Zn  Zn119  1  0.12528134  0.49828740  0.12520009  1
  Zn  Zn120  1  0.62467645  0.49834227  0.62490843  1
  Zn  Zn121  1  0.12407056  0.87372292  0.75031087  1
  Zn  Zn122  1  0.12402635  -0.00086879  0.12354020  1
  Zn  Zn123  1  0.87498447  0.75038333  0.12499693  1
  Zn  Zn124  1  0.50099727  0.24775541  0.25160148  1
  Zn  Zn125  1  0.62616050  0.87312171  0.75179345  1
  Zn  Zn126  1  0.00151182  0.24833174  0.74770438  1
  Zn  Zn127  1  0.00129839  0.62504407  0.62572674  1
  Zn  Zn128  1  0.18599666  0.18720173  0.18801293  1
  Zn  Zn129  1  0.18871224  0.18591097  0.68897813  1
  Zn  Zn130  1  0.18658080  0.68653389  0.18659383  1
  Zn  Zn131  1  0.18890055  0.68952229  0.68796746  1
  Zn  Zn132  1  0.68673508  0.18984208  0.18729545  1
  Zn  Zn133  1  0.68764592  0.18802646  0.68735896  1
  Zn  Zn134  1  0.68803275  0.68839568  0.18659628  1
  Zn  Zn135  1  0.68731830  0.68939012  0.69027416  1
  Zn  Zn136  1  0.31316356  0.31160498  0.31269848  1
  Zn  Zn137  1  0.31367803  0.31246718  0.81235828  1
  Zn  Zn138  1  0.31428177  0.81422276  0.31349957  1
  Zn  Zn139  1  0.31305441  0.81324202  0.81109100  1
  Zn  Zn140  1  0.81246177  0.31141822  0.31207764  1
  Zn  Zn141  1  0.81236992  0.31131411  0.81043682  1
  Zn  Zn142  1  0.81294304  0.81253111  0.31129085  1
  Zn  Zn143  1  0.81279548  0.81200757  0.81193128  1
  Zn  Zn144  1  0.18790077  0.43739844  0.43773136  1
  Zn  Zn145  1  0.18780497  0.43674299  0.93854536  1
  Zn  Zn146  1  0.18706061  0.93717182  0.43898771  1
  Zn  Zn147  1  0.18645956  0.93578698  0.94002746  1
  Zn  Zn148  1  0.68581259  0.43857214  0.43935706  1
  Zn  Zn149  1  0.68681582  0.43706398  0.93601680  1
  Zn  Zn150  1  0.68758283  0.93686627  0.43847109  1
  Zn  Zn151  1  0.68604461  0.93889614  0.93766126  1
  Zn  Zn152  1  0.31160555  0.06317444  0.06300550  1
  Zn  Zn153  1  0.31129755  0.06456568  0.56315439  1
  Zn  Zn154  1  0.31271480  0.56163747  0.06277702  1
  Zn  Zn155  1  0.31269589  0.56270776  0.56023051  1
  Zn  Zn156  1  0.81120887  0.06331080  0.06099176  1
  Zn  Zn157  1  0.81447493  0.06151642  0.56085578  1
  Zn  Zn158  1  0.81411976  0.56238804  0.06257857  1
  Zn  Zn159  1  0.81165917  0.56259602  0.56258581  1
  Zn  Zn160  1  0.43709283  0.43613243  0.18884840  1
  Zn  Zn161  1  0.43738294  0.43668532  0.68939484  1
  Zn  Zn162  1  0.43505631  0.93538331  0.18852171  1
  Zn  Zn163  1  0.43751483  0.93876223  0.68990884  1
  Zn  Zn164  1  0.93866536  0.43729744  0.18785188  1
  Zn  Zn165  1  0.93880842  0.43794051  0.68554961  1
  Zn  Zn166  1  0.93719475  0.93871256  0.18645948  1
  Zn  Zn167  1  0.93934955  0.93541707  0.68885795  1
  Zn  Zn168  1  0.06249327  0.06434500  0.31084441  1
  Zn  Zn169  1  0.06267798  0.06081956  0.80928596  1
  Zn  Zn170  1  0.06233121  0.56052677  0.31310655  1
  Zn  Zn171  1  0.06170122  0.56387394  0.81138455  1
  Zn  Zn172  1  0.56239284  0.06158109  0.31441940  1
  Zn  Zn173  1  0.56119342  0.06235863  0.81152218  1
  Zn  Zn174  1  0.56283991  0.56180202  0.31321382  1
  Zn  Zn175  1  0.56417600  0.56137006  0.81155437  1
  Zn  Zn176  1  0.43556754  0.18764193  0.43818574  1
  Zn  Zn177  1  0.43683477  0.18742084  0.93903538  1
  Zn  Zn178  1  0.43843478  0.68733334  0.43902334  1
  Zn  Zn179  1  0.43729425  0.68721969  0.93862360  1
  Zn  Zn180  1  0.93993982  0.18568176  0.43896084  1
  Zn  Zn181  1  0.93691802  0.18921089  0.93584621  1
  Zn  Zn182  1  0.93901380  0.68874031  0.43695509  1
  Zn  Zn183  1  0.93658050  0.68863996  0.93822794  1
  Zn  Zn184  1  0.06219986  0.31273345  0.06266102  1
  Zn  Zn185  1  0.06209032  0.31250623  0.56196053  1
  Zn  Zn186  1  0.06293938  0.81244886  0.06262309  1
  Zn  Zn187  1  0.06235007  0.81506478  0.55938675  1
  Zn  Zn188  1  0.56139521  0.31112079  0.06228762  1
  Zn  Zn189  1  0.56360509  0.31227810  0.56147748  1
  Zn  Zn190  1  0.56187984  0.81242736  0.06088789  1
  Zn  Zn191  1  0.56446090  0.81228954  0.56416666  1
  O  O192  1  0.11684629  0.12547732  0.11724007  1
  O  O193  1  0.12592795  0.11315764  0.62515686  1
  O  O194  1  0.11798261  0.62182664  0.11837689  1
  O  O195  1  0.12684192  0.62168939  0.61553927  1
  O  O196  1  0.61924148  0.11921507  0.12073712  1
  O  O197  1  0.62016077  0.11930438  0.61901438  1
  O  O198  1  0.62052958  0.61865774  0.11989907  1
  O  O199  1  0.61570436  0.62672639  0.62017595  1
  O  O200  1  0.38451661  0.38118853  0.37351450  1
  O  O201  1  0.38134398  0.38198409  0.87729039  1
  O  O202  1  0.37990889  0.87784401  0.38111749  1
  O  O203  1  0.38197896  0.88407062  0.87761015  1
  O  O204  1  0.87915249  0.37992956  0.37941493  1
  O  O205  1  0.87982210  0.38086562  0.87929450  1
  O  O206  1  0.88147694  0.88159649  0.37244920  1
  O  O207  1  0.87914264  0.88118682  0.88097321  1
  O  O208  1  0.24939637  0.00549750  0.36479392  1
  O  O209  1  0.25835773  0.00468834  0.87780262  1
  O  O210  1  0.25641000  0.50517817  0.36851384  1
  O  O211  1  0.25544202  0.50557152  0.87003708  1
  O  O212  1  0.75451581  0.00508291  0.36811166  1
  O  O213  1  0.75501232  0.00560802  0.86952880  1
  O  O214  1  0.75526844  0.50566230  0.36912253  1
  O  O215  1  0.75660435  0.50545022  0.86988414  1
  O  O216  1  0.24941399  0.49311709  0.13203446  1
  O  O217  1  0.24595709  0.49583575  0.63117430  1
  O  O218  1  0.24772305  1.00000574  0.13765162  1
  O  O219  1  0.24469304  0.99172220  0.62659858  1
  O  O220  1  0.74500158  0.49523908  0.13047551  1
  O  O221  1  0.75053582  0.49363169  0.63163331  1
  O  O222  1  0.74307699  0.99531915  0.12966736  1
  O  O223  1  0.74562629  0.99489497  0.62928704  1
  O  O224  1  0.00641249  0.37376317  0.25682361  1
  O  O225  1  0.00762451  0.37552245  0.75687255  1
  O  O226  1  0.00518833  0.86963942  0.25385986  1
  O  O227  1  0.00126978  0.87035832  0.76116084  1
  O  O228  1  0.50643773  0.37475491  0.25916774  1
  O  O229  1  0.50175614  0.36819113  0.75732568  1
  O  O230  1  0.50737568  0.86748198  0.25060104  1
  O  O231  1  0.50140163  0.87581788  0.76305071  1
  O  O232  1  0.49309709  0.12342816  0.24445735  1
  O  O233  1  0.49793236  0.13169138  0.74304113  1
  O  O234  1  0.49548785  0.62936835  0.24413158  1
  O  O235  1  0.49374267  0.62599391  0.74160681  1
  O  O236  1  0.99181985  0.12709145  0.24174219  1
  O  O237  1  0.99036827  0.12642352  0.74727511  1
  O  O238  1  0.99540808  0.62926777  0.24579703  1
  O  O239  1  0.99099706  0.62825987  0.74727571  1
  O  O240  1  0.36758918  0.25013190  0.00815373  1
  O  O241  1  0.36793446  0.25314856  0.50742224  1
  O  O242  1  0.36778481  0.74801929  0.00740752  1
  O  O243  1  0.37374908  0.75007512  0.51368767  1
  O  O244  1  0.87215585  0.25770605  0.00484103  1
  O  O245  1  0.86866033  0.25510529  0.50469649  1
  O  O246  1  0.86760008  0.75739854  0.00207683  1
  O  O247  1  0.86904361  0.74989139  0.50844462  1
  O  O248  1  0.13288964  0.24990817  0.49345001  1
  O  O249  1  0.13003340  0.24516476  0.99368138  1
  O  O250  1  0.12686532  0.74116856  0.49268962  1
  O  O251  1  0.13035160  0.74249432  0.99468462  1
  O  O252  1  0.63247440  0.24220267  0.49823443  1
  O  O253  1  0.62523579  0.24258428  0.99290767  1
  O  O254  1  0.63125051  0.74438812  0.49470558  1
  O  O255  1  0.63152386  0.74252413  0.99854191  1
  O  O256  1  0.49316182  0.24233203  0.12729473  1
  O  O257  1  0.49508077  0.24562104  0.62951969  1
  O  O258  1  0.49554746  0.74281681  0.13008519  1
  O  O259  1  0.49215821  0.74145670  0.62690964  1
  O  O260  1  0.99168308  0.24418585  0.12492143  1
  O  O261  1  0.99156143  0.24879793  0.62734179  1
  O  O262  1  0.99827227  0.74259030  0.13133068  1
  O  O263  1  0.98807447  0.74972821  0.62460496  1
  O  O264  1  0.00628329  0.25719842  0.37318362  1
  O  O265  1  0.00714441  0.25769220  0.87307386  1
  O  O266  1  0.00555350  0.75592602  0.36715875  1
  O  O267  1  0.00632132  0.75633104  0.87655645  1
  O  O268  1  0.50110175  0.26110765  0.37329090  1
  O  O269  1  0.50376111  0.25412249  0.87053470  1
  O  O270  1  0.50775861  0.74869186  0.36841305  1
  O  O271  1  0.49878110  0.76159692  0.87537363  1
  O  O272  1  0.24795484  0.13235724  0.49275233  1
  O  O273  1  0.24290592  0.13079931  0.99554303  1
  O  O274  1  0.24014136  0.62692872  0.49315675  1
  O  O275  1  0.24443943  0.62859952  0.99406880  1
  O  O276  1  0.74536367  0.12934734  0.49404645  1
  O  O277  1  0.74183614  0.12546788  0.99232123  1
  O  O278  1  0.74462597  0.63096446  0.49392412  1
  O  O279  1  0.74611296  0.62929251  0.99526804  1
  O  O280  1  0.25110849  0.36804595  0.00715440  1
  O  O281  1  0.25164861  0.36904915  0.50694120  1
  O  O282  1  0.25170393  0.86510682  0.00337940  1
  O  O283  1  0.25351147  0.87313182  0.51260076  1
  O  O284  1  0.75665709  0.37575695  0.00626188  1
  O  O285  1  0.75574635  0.36952046  0.50410023  1
  O  O286  1  0.75376645  0.87098451  0.00445093  1
  O  O287  1  0.75178147  0.86771336  0.50654833  1
  O  O288  1  0.13257683  0.49294519  0.24974088  1
  O  O289  1  0.13173224  0.49629868  0.74504562  1
  O  O290  1  0.13388996  0.99511746  0.24829184  1
  O  O291  1  0.12825031  0.99492280  0.73989620  1
  O  O292  1  0.63130715  0.49567108  0.24379898  1
  O  O293  1  0.63470864  0.49740717  0.74703990  1
  O  O294  1  0.62983831  0.99455467  0.24447364  1
  O  O295  1  0.63225363  0.99997789  0.74337584  1
  O  O296  1  0.36485054  0.00528633  0.25134555  1
  O  O297  1  0.37332818  0.00270872  0.76462131  1
  O  O298  1  0.36978015  0.50639169  0.25547180  1
  O  O299  1  0.36903374  0.50537235  0.75619513  1
  O  O300  1  0.86758508  0.00637576  0.25352640  1
  O  O301  1  0.86924730  0.00523957  0.75514381  1
  O  O302  1  0.86924676  0.50525825  0.25581568  1
  O  O303  1  0.86993262  0.50538432  0.75497780  1
  O  O304  1  0.12022678  0.37014239  0.37009074  1
  O  O305  1  0.12069051  0.37055071  0.86952808  1
  O  O306  1  0.11963309  0.86932101  0.36841013  1
  O  O307  1  0.11824419  0.86781579  0.87621106  1
  O  O308  1  0.61630636  0.37623618  0.36901866  1
  O  O309  1  0.61779540  0.36795941  0.87374226  1
  O  O310  1  0.62451099  0.86769470  0.36800255  1
  O  O311  1  0.61228834  0.87616909  0.87548171  1
  O  O312  1  0.37956707  0.12942546  0.13114873  1
  O  O313  1  0.38136954  0.13278859  0.62709275  1
  O  O314  1  0.38159966  0.62881397  0.13113205  1
  O  O315  1  0.38113527  0.63220893  0.62954621  1
  O  O316  1  0.87827547  0.13079621  0.12808102  1
  O  O317  1  0.87439280  0.13040897  0.63161905  1
  O  O318  1  0.88164881  0.62554836  0.13252183  1
  O  O319  1  0.87481671  0.63486786  0.62913358  1
  O  O320  1  0.25479218  0.25407212  0.12030661  1
  O  O321  1  0.25494113  0.25577718  0.62073283  1
  O  O322  1  0.25662983  0.74793344  0.11919802  1
  O  O323  1  0.25968753  0.75761273  0.62406048  1
  O  O324  1  0.75573032  0.25769540  0.12183384  1
  O  O325  1  0.75631968  0.25505772  0.61866260  1
  O  O326  1  0.75135424  0.75719095  0.11837456  1
  O  O327  1  0.75843920  0.75458423  0.62004420  1
  O  O328  1  0.24501327  0.24559912  0.38040883  1
  O  O329  1  0.24497144  0.24553337  0.88146232  1
  O  O330  1  0.24375959  0.74333273  0.37486939  1
  O  O331  1  0.24596927  0.74359890  0.88032469  1
  O  O332  1  0.74904692  0.24303752  0.38151377  1
  O  O333  1  0.74268385  0.24308588  0.87523590  1
  O  O334  1  0.74504408  0.74412104  0.37941786  1
  O  O335  1  0.74978507  0.74322509  0.88213703  1
  O  O336  1  0.00343924  0.12033948  0.00318486  1
  O  O337  1  0.00462373  0.11922541  0.50410393  1
  O  O338  1  0.00423546  0.61945947  0.00480987  1
  O  O339  1  0.01408584  0.62403425  0.49941818  1
  O  O340  1  0.50484167  0.11889208  0.00694437  1
  O  O341  1  0.50574402  0.11811813  0.50584926  1
  O  O342  1  0.50631323  0.61887275  0.00553531  1
  O  O343  1  0.50613792  0.62509326  0.51009954  1
  O  O344  1  0.49932301  0.37772369  0.48839887  1
  O  O345  1  0.49858663  0.38202027  0.99406531  1
  O  O346  1  0.50117119  0.88698485  0.50175085  1
  O  O347  1  0.49708759  0.88183087  0.99199736  1
  O  O348  1  0.99282062  0.37711089  0.49274788  1
  O  O349  1  0.99457434  0.38089380  0.99379758  1
  O  O350  1  0.99754119  0.87728502  0.48700640  1
  O  O351  1  0.99345478  0.88111353  0.99518199  1
  O  O352  1  0.49411266  0.49165749  0.37458183  1
  O  O353  1  0.49501311  0.49518399  0.87992541  1
  O  O354  1  0.49977627  0.99887450  0.38838089  1
  O  O355  1  0.49180097  0.99505200  0.88115482  1
  O  O356  1  0.99266848  0.49307791  0.37684866  1
  O  O357  1  0.99411729  0.49500955  0.88020353  1
  O  O358  1  0.99345676  0.99304179  0.37099234  1
  O  O359  1  0.99357571  0.99464931  0.88057585  1
  O  O360  1  -0.00074379  0.00822931  0.11666493  1
  O  O361  1  0.01182141  -0.00284963  0.62353933  1
  O  O362  1  0.00150265  0.50578941  0.11782700  1
  O  O363  1  0.00941473  0.50366813  0.62146550  1
  O  O364  1  0.50418150  0.00458909  0.12095611  1
  O  O365  1  0.50528598  0.00584116  0.61942679  1
  O  O366  1  0.50560883  0.50489430  0.12037646  1
  O  O367  1  0.49941257  0.51305451  0.62436179  1
  O  O368  1  0.24499137  0.38000324  0.24566294  1
  O  O369  1  0.24465910  0.38159803  0.74491205  1
  O  O370  1  0.24413403  0.88404961  0.24984100  1
  O  O371  1  0.24898061  0.87668405  0.73752749  1
  O  O372  1  0.74545049  0.38178965  0.24438344  1
  O  O373  1  0.75033903  0.38171634  0.74297362  1
  O  O374  1  0.74394105  0.88039909  0.24370583  1
  O  O375  1  0.75020836  0.88308139  0.74399356  1
  O  O376  1  0.25380643  0.11708267  0.25499761  1
  O  O377  1  0.25301530  0.12241462  0.76160414  1
  O  O378  1  0.25566986  0.61954356  0.25493975  1
  O  O379  1  0.25582407  0.61956690  0.75563194  1
  O  O380  1  0.75411736  0.11914348  0.25375056  1
  O  O381  1  0.75627184  0.11889972  0.75507679  1
  O  O382  1  0.75499559  0.61986140  0.25526702  1
  O  O383  1  0.75647740  0.61929587  0.75586201  1
  O  O384  1  0.36718792  0.12288402  0.36874549  1
  O  O385  1  0.36889156  0.11553853  0.87709948  1
  O  O386  1  0.37045828  0.62084130  0.36920075  1
  O  O387  1  0.37032466  0.61941496  0.86953103  1
  O  O388  1  0.86905734  0.12001625  0.36757666  1
  O  O389  1  0.86917061  0.11961923  0.86917118  1
  O  O390  1  0.86974842  0.61994876  0.36986717  1
  O  O391  1  0.86966555  0.61936440  0.87011100  1
  O  O392  1  0.13172465  0.37533958  0.13219468  1
  O  O393  1  0.13153408  0.38124888  0.63015299  1
  O  O394  1  0.12694553  0.87767724  0.13348626  1
  O  O395  1  0.13436279  0.88026888  0.62519307  1
  O  O396  1  0.62998123  0.38098062  0.12946200  1
  O  O397  1  0.63372289  0.37678858  0.62664643  1
  O  O398  1  0.62960084  0.88116201  0.12987539  1
  O  O399  1  0.63254555  0.88176042  0.62742106  1
  O  O400  1  0.12400340  0.25720192  0.25747879  1
  O  O401  1  0.12527479  0.25791647  0.75661105  1
  O  O402  1  0.11953631  0.75421177  0.25523455  1
  O  O403  1  0.12344359  0.75128542  0.75924491  1
  O  O404  1  0.62253657  0.25882431  0.25274613  1
  O  O405  1  0.61749729  0.25046169  0.75662161  1
  O  O406  1  0.62024522  0.75426547  0.25469467  1
  O  O407  1  0.62153014  0.75482292  0.75592140  1
  O  O408  1  0.37540599  0.24133692  0.24348603  1
  O  O409  1  0.38185247  0.24854170  0.74350575  1
  O  O410  1  0.38086073  0.74301042  0.24494067  1
  O  O411  1  0.37656052  0.74354232  0.73981281  1
  O  O412  1  0.87504072  0.24367892  0.24168734  1
  O  O413  1  0.87558544  0.24229711  0.74282584  1
  O  O414  1  0.88158646  0.74270973  0.24870254  1
  O  O415  1  0.87395822  0.74383718  0.73940490  1
  O  O416  1  0.37776423  0.49868806  0.49071940  1
  O  O417  1  0.38246870  0.49935881  0.99356375  1
  O  O418  1  0.38777266  1.00053070  0.50155115  1
  O  O419  1  0.37972568  0.99957677  0.99147932  1
  O  O420  1  0.87498409  0.49387474  0.49282505  1
  O  O421  1  0.88074233  0.49493715  0.99355673  1
  O  O422  1  0.87613710  0.99650339  0.48911262  1
  O  O423  1  0.87867847  0.99535828  0.99308251  1
  O  O424  1  0.11715595  0.00764738  0.00083197  1
  O  O425  1  0.12490816  0.00099646  0.51212820  1
  O  O426  1  0.11817971  0.50618932  0.00037607  1
  O  O427  1  0.12613945  0.51025379  0.50494093  1
  O  O428  1  0.61870031  0.00625857  0.00650775  1
  O  O429  1  0.61835582  0.00565275  0.50663883  1
  O  O430  1  0.62027240  0.50551637  0.00567140  1
  O  O431  1  0.62278135  0.51007813  0.50357704  1
  O  O432  1  0.36822724  0.36756019  0.12524399  1
  O  O433  1  0.36848570  0.36941709  0.62428457  1
  O  O434  1  0.37208068  0.86470169  0.12323465  1
  O  O435  1  0.36948947  0.86700013  0.62614818  1
  O  O436  1  0.86988722  0.37124188  0.11938346  1
  O  O437  1  0.86957225  0.36952080  0.61858633  1
  O  O438  1  0.86723702  0.87538604  0.11784891  1
  O  O439  1  0.86925413  0.86535930  0.62372072  1
  O  O440  1  0.13223035  0.13268005  0.37434507  1
  O  O441  1  0.12920410  0.13035499  0.88064971  1
  O  O442  1  0.13058849  0.62945952  0.38092266  1
  O  O443  1  0.13090501  0.62945479  0.88077136  1
  O  O444  1  0.63255279  0.12525346  0.38139843  1
  O  O445  1  0.62878752  0.12932015  0.88025030  1
  O  O446  1  0.63116050  0.63029373  0.37983039  1
  O  O447  1  0.63216059  0.62456051  0.88267466  1
