# generated using pymatgen
data_V3Zn3O8
_symmetry_space_group_name_H-M   'P 1'
_cell_length_a   17.08900472
_cell_length_b   17.09006999
_cell_length_c   17.08898862
_cell_angle_alpha   90.00894212
_cell_angle_beta   90.00642522
_cell_angle_gamma   90.00515394
_symmetry_Int_Tables_number   1
_chemical_formula_structural   V3Zn3O8
_chemical_formula_sum   'V96 Zn96 O256'
_cell_volume   4990.87809320
_cell_formula_units_Z   32
loop_
 _symmetry_equiv_pos_site_id
 _symmetry_equiv_pos_as_xyz
  1  'x, y, z'
loop_
 _atom_site_type_symbol
 _atom_site_label
 _atom_site_symmetry_multiplicity
 _atom_site_fract_x
 _atom_site_fract_y
 _atom_site_fract_z
 _atom_site_occupancy
  V  V0  1  0.25150812  0.00200724  0.74938879  1
  V  V1  1  0.62438145  0.62476340  0.50076924  1
  V  V2  1  0.00046273  0.74977060  0.24988231  1
  V  V3  1  0.37340327  0.87406894  0.00220746  1
  V  V4  1  0.12553670  0.00143201  0.62516178  1
  V  V5  1  0.37505978  0.49975633  0.87560066  1
  V  V6  1  0.62322377  0.50064270  0.62587605  1
  V  V7  1  -0.00144716  0.87505048  0.37554044  1
  V  V8  1  0.87681821  0.24827933  0.12438078  1
  V  V9  1  0.50024529  0.87539971  0.37640762  1
  V  V10  1  0.87350370  0.25069653  0.62244699  1
  V  V11  1  0.24919087  0.37513755  0.62467697  1
  V  V12  1  0.24989562  0.75027450  0.50047131  1
  V  V13  1  0.37464743  0.25177409  0.62526153  1
  V  V14  1  0.62601364  0.25013967  0.87460182  1
  V  V15  1  0.00165124  0.12467433  0.12483934  1
  V  V16  1  0.37551742  0.12601412  0.75050678  1
  V  V17  1  0.87498309  0.37394437  -0.00030081  1
  V  V18  1  0.37396592  0.62586393  0.75052450  1
  V  V19  1  0.12327425  0.49969501  0.62538543  1
  V  V20  1  0.37468326  0.62528049  0.24973762  1
  V  V21  1  0.62545705  0.87354676  0.25024587  1
  V  V22  1  0.50110691  0.00007409  0.00015716  1
  V  V23  1  0.50085239  0.12461631  0.12586734  1
  V  V24  1  -0.00185985  0.62756614  0.62618201  1
  V  V25  1  0.24865820  0.50022462  0.25039406  1
  V  V26  1  0.24920074  0.62500085  0.87529956  1
  V  V27  1  0.87263867  0.62237749  0.25232944  1
  V  V28  1  0.24933202  0.50037327  0.74964697  1
  V  V29  1  0.49914962  0.62473481  0.62611306  1
  V  V30  1  0.74953235  0.37490270  0.62410341  1
  V  V31  1  0.00026679  0.12592817  0.62414805  1
  V  V32  1  0.25126596  0.37381730  0.12454934  1
  V  V33  1  0.87526808  -0.00167677  0.37498244  1
  V  V34  1  0.49944601  0.62568143  0.12593329  1
  V  V35  1  0.62536046  0.37508127  0.24877501  1
  V  V36  1  0.62562997  0.87691073  0.74947897  1
  V  V37  1  0.62769624  0.00008591  0.62607139  1
  V  V38  1  0.49972896  0.24920311  0.25001869  1
  V  V39  1  0.37386696  0.49798897  0.37534599  1
  V  V40  1  0.49928776  0.49938911  0.00039520  1
  V  V41  1  0.24848162  0.62457575  0.37464182  1
  V  V42  1  0.37333438  0.75038449  0.62475703  1
  V  V43  1  0.87662381  0.87463199  -0.00094559  1
  V  V44  1  -0.00058830  0.25010698  0.74893206  1
  V  V45  1  0.12488940  0.75107104  0.87438637  1
  V  V46  1  0.25002427  0.12459269  0.37480124  1
  V  V47  1  -0.00323400  0.49929253  0.49906877  1
  V  V48  1  0.62457807  0.75106572  0.87492806  1
  V  V49  1  0.75195019  0.12393954  0.87483707  1
  V  V50  1  0.37606189  0.00184399  0.87367944  1
  V  V51  1  0.62442987  0.62544563  0.00131812  1
  V  V52  1  0.75025873  0.74937548  -0.00053548  1
  V  V53  1  0.49792703  0.37458348  0.37488291  1
  V  V54  1  0.62657863  0.74772916  0.37763099  1
  V  V55  1  0.62506306  0.24927959  0.37493415  1
  V  V56  1  0.49932878  0.00052619  0.49947988  1
  V  V57  1  -0.00007233  0.49933671  -0.00035648  1
  V  V58  1  0.62462548  0.37503405  0.75103822  1
  V  V59  1  -0.00152104  0.37535257  0.37518779  1
  V  V60  1  0.37498933  0.12336959  0.25102040  1
  V  V61  1  0.25044053  -0.00080079  0.25096370  1
  V  V62  1  0.75002495  0.87425368  0.12553595  1
  V  V63  1  0.75084011  0.24940762  -0.00009138  1
  V  V64  1  -0.00034977  0.37468815  0.87460224  1
  V  V65  1  0.12600499  0.87506435  0.24877937  1
  V  V66  1  0.87424285  0.49976178  0.87526978  1
  V  V67  1  0.62607743  0.12458994  0.00067578  1
  V  V68  1  0.49871161  0.74866411  0.25059516  1
  V  V69  1  0.24953691  0.25092974  0.50052377  1
  V  V70  1  0.37435925  0.25008777  0.12436181  1
  V  V71  1  0.12567360  0.24944765  0.87533879  1
  V  V72  1  0.50042828  0.87573890  0.87499796  1
  V  V73  1  0.12448597  0.37474474  0.24955992  1
  V  V74  1  0.87703353  -0.00016806  0.87467566  1
  V  V75  1  0.75024354  0.12558508  0.37352335  1
  V  V76  1  0.12427244  0.24943799  0.37477603  1
  V  V77  1  0.87511194  0.62663292  0.74990713  1
  V  V78  1  0.74915925  0.37470405  0.12596880  1
  V  V79  1  0.50107956  0.25150937  0.75020674  1
  V  V80  1  0.49860348  0.75110195  0.75029407  1
  V  V81  1  0.74898823  0.50054678  0.75069502  1
  V  V82  1  0.12549502  0.62542509  -0.00100034  1
  V  V83  1  0.12500602  0.74968260  0.37432913  1
  V  V84  1  0.12431069  0.37493847  0.75052899  1
  V  V85  1  0.62652773  -0.00152498  0.12578508  1
  V  V86  1  0.12612383  -0.00069091  0.12512014  1
  V  V87  1  0.12432557  0.12420870  0.50023720  1
  V  V88  1  0.00005995  0.62451719  0.12445812  1
  V  V89  1  0.87520011  0.74969033  0.12432645  1
  V  V90  1  0.12806882  0.12506705  -0.00103079  1
  V  V91  1  0.74996715  0.62528946  0.87551028  1
  V  V92  1  0.00014367  0.24923469  0.24917390  1
  V  V93  1  0.12511098  0.49972138  0.12464021  1
  V  V94  1  0.50085405  0.12655175  0.62445954  1
  V  V95  1  0.12617881  0.87536692  0.74966839  1
  Zn  Zn96  1  0.25150841  0.87678638  0.62291064  1
  Zn  Zn97  1  0.25065414  0.74991496  0.00278824  1
  Zn  Zn98  1  0.49643133  0.49788002  0.50110180  1
  Zn  Zn99  1  0.37493448  0.87511067  0.50052755  1
  Zn  Zn100  1  0.75043218  0.62170553  0.37679038  1
  Zn  Zn101  1  0.87600863  0.12309105  0.24801673  1
  Zn  Zn102  1  0.62580892  0.12714484  0.50004295  1
  Zn  Zn103  1  0.75248743  0.00033037  0.74847798  1
  Zn  Zn104  1  -0.00006410  -0.00239203  0.50115591  1
  Zn  Zn105  1  0.37453261  0.37618120  0.50003540  1
  Zn  Zn106  1  0.12312251  0.62513568  0.49993674  1
  Zn  Zn107  1  0.25195686  0.12805994  0.87524934  1
  Zn  Zn108  1  0.00285834  -0.00316270  0.00037713  1
  Zn  Zn109  1  0.37502378  0.37284001  -0.00127877  1
  Zn  Zn110  1  0.75107973  -0.00098857  0.24959447  1
  Zn  Zn111  1  0.37457024  -0.00183640  0.37612997  1
  Zn  Zn112  1  0.87050923  0.49739745  0.37397746  1
  Zn  Zn113  1  0.25074259  0.87304948  0.12630625  1
  Zn  Zn114  1  0.74735987  0.49986555  0.25148778  1
  Zn  Zn115  1  0.62616430  0.50005404  0.12675155  1
  Zn  Zn116  1  0.87438370  0.12375320  0.74891402  1
  Zn  Zn117  1  0.87423136  0.87149362  0.50348279  1
  Zn  Zn118  1  0.25322117  0.25231755  -0.00242208  1
  Zn  Zn119  1  0.87170465  0.75442009  0.62570026  1
  Zn  Zn120  1  0.87013257  0.37606079  0.49611547  1
  Zn  Zn121  1  0.75228617  0.75269837  0.50430675  1
  Zn  Zn122  1  0.37259395  0.75005857  0.12566583  1
  Zn  Zn123  1  0.00115362  0.87557388  0.87612475  1
  Zn  Zn124  1  -0.00169975  0.75284414  0.74849950  1
  Zn  Zn125  1  0.75519702  0.87454199  0.62483031  1
  Zn  Zn126  1  0.74764613  0.25253496  0.49855603  1
  Zn  Zn127  1  0.49937919  0.37443076  0.87658898  1
  Zn  Zn128  1  0.18850382  0.18709673  0.18669006  1
  Zn  Zn129  1  0.18802016  0.18748222  0.68801418  1
  Zn  Zn130  1  0.18937871  0.68934185  0.18577471  1
  Zn  Zn131  1  0.18597309  0.68676313  0.68634060  1
  Zn  Zn132  1  0.68900436  0.18767694  0.18903277  1
  Zn  Zn133  1  0.68934483  0.18572700  0.68879619  1
  Zn  Zn134  1  0.68704669  0.68760028  0.18745853  1
  Zn  Zn135  1  0.68782941  0.68981797  0.68741257  1
  Zn  Zn136  1  0.31219494  0.31150348  0.31157293  1
  Zn  Zn137  1  0.31270160  0.31383472  0.81333388  1
  Zn  Zn138  1  0.31401726  0.81371984  0.31493248  1
  Zn  Zn139  1  0.31101338  0.81399083  0.81398584  1
  Zn  Zn140  1  0.81338179  0.31165083  0.31065292  1
  Zn  Zn141  1  0.81221132  0.31175955  0.81036449  1
  Zn  Zn142  1  0.81160130  0.81086512  0.31361530  1
  Zn  Zn143  1  0.81164576  0.81448325  0.80898135  1
  Zn  Zn144  1  0.18494499  0.43720931  0.43853323  1
  Zn  Zn145  1  0.18872569  0.43653829  0.93829164  1
  Zn  Zn146  1  0.18608329  0.93704440  0.43664779  1
  Zn  Zn147  1  0.19099569  0.94027047  0.93588917  1
  Zn  Zn148  1  0.68655858  0.43894376  0.43600658  1
  Zn  Zn149  1  0.68657240  0.43722773  0.93883200  1
  Zn  Zn150  1  0.68998057  0.93700779  0.44009112  1
  Zn  Zn151  1  0.69036023  0.93730269  0.93739584  1
  Zn  Zn152  1  0.31201743  0.06133338  0.06418138  1
  Zn  Zn153  1  0.31263041  0.06436277  0.56325740  1
  Zn  Zn154  1  0.31271640  0.56275598  0.06300824  1
  Zn  Zn155  1  0.31197976  0.56309756  0.56132840  1
  Zn  Zn156  1  0.81372669  0.06081393  0.06102568  1
  Zn  Zn157  1  0.81325081  0.06392454  0.55756011  1
  Zn  Zn158  1  0.81135498  0.56065889  0.06467671  1
  Zn  Zn159  1  0.81132255  0.56417104  0.56349710  1
  Zn  Zn160  1  0.43724348  0.43751653  0.18743553  1
  Zn  Zn161  1  0.43699241  0.43705447  0.68878469  1
  Zn  Zn162  1  0.43878238  0.93749741  0.18866564  1
  Zn  Zn163  1  0.43778231  0.93691272  0.68509133  1
  Zn  Zn164  1  0.93701478  0.43647684  0.18687956  1
  Zn  Zn165  1  0.93548026  0.43748559  0.68664157  1
  Zn  Zn166  1  0.93848228  0.93839967  0.18828760  1
  Zn  Zn167  1  0.93978714  0.93844526  0.68833293  1
  Zn  Zn168  1  0.06215804  0.06174746  0.31187665  1
  Zn  Zn169  1  0.06103927  0.06331197  0.81207432  1
  Zn  Zn170  1  0.06104032  0.56282434  0.31307439  1
  Zn  Zn171  1  0.06180549  0.56260816  0.81206662  1
  Zn  Zn172  1  0.56443751  0.06157161  0.31226271  1
  Zn  Zn173  1  0.56262492  0.06428453  0.81221843  1
  Zn  Zn174  1  0.56085112  0.55933567  0.31283344  1
  Zn  Zn175  1  0.56184552  0.56362241  0.81364725  1
  Zn  Zn176  1  0.43628863  0.18752327  0.43816085  1
  Zn  Zn177  1  0.43913480  0.18813472  0.93791292  1
  Zn  Zn178  1  0.43701336  0.68555284  0.43756988  1
  Zn  Zn179  1  0.43746583  0.68772302  0.93753791  1
  Zn  Zn180  1  0.93659037  0.18575746  0.43757217  1
  Zn  Zn181  1  0.94024618  0.18523375  0.93842083  1
  Zn  Zn182  1  0.93617176  0.68877626  0.43928342  1
  Zn  Zn183  1  0.93899503  0.68796997  0.93602789  1
  Zn  Zn184  1  0.06408746  0.31129243  0.06175535  1
  Zn  Zn185  1  0.06120258  0.31291498  0.56134486  1
  Zn  Zn186  1  0.06251012  0.81272726  0.06198977  1
  Zn  Zn187  1  0.06280193  0.81433705  0.56091115  1
  Zn  Zn188  1  0.56243312  0.31245632  0.06272129  1
  Zn  Zn189  1  0.56265116  0.31398830  0.55975514  1
  Zn  Zn190  1  0.56078362  0.81164769  0.06355556  1
  Zn  Zn191  1  0.56237159  0.81415275  0.56347915  1
  O  O192  1  0.12154831  0.12025286  0.11741544  1
  O  O193  1  0.12020899  0.12153417  0.61987134  1
  O  O194  1  0.11945037  0.61934976  0.11963815  1
  O  O195  1  0.11472297  0.61715936  0.62544978  1
  O  O196  1  0.62084110  0.11950812  0.12004204  1
  O  O197  1  0.61866049  0.11686886  0.62469134  1
  O  O198  1  0.61812672  0.62458657  0.11839403  1
  O  O199  1  0.61828076  0.62062174  0.61965916  1
  O  O200  1  0.37941941  0.38029097  0.37429915  1
  O  O201  1  0.37807759  0.38437840  0.87693274  1
  O  O202  1  0.38496119  0.87789353  0.37928504  1
  O  O203  1  0.38128307  0.88155353  0.88179040  1
  O  O204  1  0.88363661  0.37627162  0.37617556  1
  O  O205  1  0.87963286  0.37994587  0.87988591  1
  O  O206  1  0.88061738  0.88309109  0.37243143  1
  O  O207  1  0.87555961  0.88326511  0.87997872  1
  O  O208  1  0.25086381  0.00725348  0.36963906  1
  O  O209  1  0.25881101  0.00446697  0.86696505  1
  O  O210  1  0.25209461  0.50444900  0.36915249  1
  O  O211  1  0.25397427  0.50525762  0.86862012  1
  O  O212  1  0.75695768  0.00764008  0.37248943  1
  O  O213  1  0.76043345  0.00609876  0.87644524  1
  O  O214  1  0.75320813  0.50448836  0.37007417  1
  O  O215  1  0.75486922  0.50548924  0.87125205  1
  O  O216  1  0.24386500  0.49538788  0.13142603  1
  O  O217  1  0.24359084  0.49600665  0.63054217  1
  O  O218  1  0.24352490  0.99776314  0.13337024  1
  O  O219  1  0.24389847  0.99957413  0.63131810  1
  O  O220  1  0.74705940  0.49003695  0.12689497  1
  O  O221  1  0.74331458  0.49581264  0.63208755  1
  O  O222  1  0.74437455  0.99237676  0.12558893  1
  O  O223  1  0.73645841  1.00345081  0.62437944  1
  O  O224  1  0.00611832  0.36957410  0.25423870  1
  O  O225  1  0.00486402  0.37090161  0.75545788  1
  O  O226  1  0.00604700  0.86810117  0.25462085  1
  O  O227  1  0.01590904  0.87433566  0.75377816  1
  O  O228  1  0.50466636  0.36772811  0.25425816  1
  O  O229  1  0.50737339  0.36927152  0.75229266  1
  O  O230  1  0.50634194  0.86901802  0.25587196  1
  O  O231  1  0.50433150  0.86996561  0.75639022  1
  O  O232  1  0.49561371  0.12921591  0.24475151  1
  O  O233  1  0.49514104  0.13207537  0.74420055  1
  O  O234  1  0.49426787  0.62907798  0.24564007  1
  O  O235  1  0.49371593  0.63177499  0.74633442  1
  O  O236  1  1.00136696  0.13266979  0.24249928  1
  O  O237  1  0.99889198  0.13332612  0.74227217  1
  O  O238  1  0.99289432  0.62998404  0.24357813  1
  O  O239  1  0.99406505  0.62273137  0.74067090  1
  O  O240  1  0.37440104  0.25121591  0.00827542  1
  O  O241  1  0.36697277  0.25117716  0.50755942  1
  O  O242  1  0.37508786  0.76239078  -0.00088230  1
  O  O243  1  0.36527166  0.74833400  0.50534067  1
  O  O244  1  0.87101062  0.25520882  0.00405479  1
  O  O245  1  0.87484653  0.25265481  0.51258668  1
  O  O246  1  0.86979689  0.75329781  0.00433908  1
  O  O247  1  0.87082226  0.75104726  0.50454236  1
  O  O248  1  0.12981454  0.24467951  0.49454573  1
  O  O249  1  0.12650131  0.24102713  0.99418364  1
  O  O250  1  0.13411797  0.74813491  0.49363714  1
  O  O251  1  0.12589063  0.74418974  0.99027565  1
  O  O252  1  0.62640041  0.24704818  0.49072429  1
  O  O253  1  0.63076883  0.24387892  0.99501570  1
  O  O254  1  0.62076533  0.74111988  0.49223579  1
  O  O255  1  0.62980016  0.74556333  0.99431477  1
  O  O256  1  0.49543843  0.24330746  0.13052118  1
  O  O257  1  0.49519808  0.24636134  0.63047129  1
  O  O258  1  0.49794082  0.74337945  0.13267524  1
  O  O259  1  0.49401856  0.74463172  0.63141906  1
  O  O260  1  0.99630057  0.24504203  0.12941369  1
  O  O261  1  0.99261776  0.24692616  0.62954182  1
  O  O262  1  0.99498150  0.74359535  0.12986614  1
  O  O263  1  1.00308662  0.73591455  0.62616746  1
  O  O264  1  0.00561629  0.25455474  0.36983777  1
  O  O265  1  0.00470063  0.25602037  0.86926942  1
  O  O266  1  0.00590489  0.75445690  0.36849363  1
  O  O267  1  0.01414035  0.74961274  0.87142709  1
  O  O268  1  0.50394199  0.25354262  0.36827098  1
  O  O269  1  0.50841056  0.25088129  0.86858010  1
  O  O270  1  0.50802915  0.75405152  0.37102064  1
  O  O271  1  0.50521014  0.75563134  0.86968783  1
  O  O272  1  0.24416962  0.13149476  0.49501126  1
  O  O273  1  0.23863671  0.12694384  0.99959766  1
  O  O274  1  0.24680284  0.63422557  0.49385453  1
  O  O275  1  0.24276810  0.62449846  0.99270183  1
  O  O276  1  0.74773338  0.12824638  0.48518998  1
  O  O277  1  0.74467484  0.13079748  0.99549382  1
  O  O278  1  0.73389169  0.62613589  0.50043334  1
  O  O279  1  0.74533552  0.62999593  0.99509977  1
  O  O280  1  0.25290466  0.37408296  0.00932275  1
  O  O281  1  0.24871025  0.36827852  0.50717495  1
  O  O282  1  0.26349832  0.87598562  -0.00009036  1
  O  O283  1  0.25112338  0.86186869  0.49961862  1
  O  O284  1  0.75581692  0.36854195  0.00445080  1
  O  O285  1  0.75078361  0.37376599  0.50869956  1
  O  O286  1  0.75566132  0.86753081  0.00563917  1
  O  O287  1  0.75317985  0.87183901  0.50496964  1
  O  O288  1  0.12866765  0.49481888  0.24408768  1
  O  O289  1  0.12978827  0.49400457  0.74597094  1
  O  O290  1  0.13088855  0.99463594  0.24512295  1
  O  O291  1  0.13094177  0.99387505  0.74640362  1
  O  O292  1  0.62508108  0.49062462  0.24687751  1
  O  O293  1  0.63000011  0.49630200  0.74623839  1
  O  O294  1  0.62604962  0.99122809  0.24286267  1
  O  O295  1  0.62267034  0.99573469  0.74075669  1
  O  O296  1  0.36962588  0.00627694  0.25182784  1
  O  O297  1  0.37231018  0.00579900  0.75385362  1
  O  O298  1  0.36766096  0.50551106  0.25507952  1
  O  O299  1  0.36886004  0.50666097  0.75517944  1
  O  O300  1  0.87286872  0.00195071  0.26074396  1
  O  O301  1  0.87444950  0.00232479  0.76249581  1
  O  O302  1  0.87614967  0.51181972  0.24913244  1
  O  O303  1  0.86841461  0.50475002  0.75655613  1
  O  O304  1  0.11911141  0.36886552  0.36880033  1
  O  O305  1  0.11856751  0.37072518  0.87004842  1
  O  O306  1  0.11898066  0.86923207  0.36788329  1
  O  O307  1  0.12730045  0.86751908  0.86795747  1
  O  O308  1  0.61828593  0.36861649  0.36836715  1
  O  O309  1  0.62535463  0.36786394  0.86871040  1
  O  O310  1  0.61988718  0.86599004  0.37091000  1
  O  O311  1  0.61945140  0.87054225  0.87120547  1
  O  O312  1  0.38167767  0.12894310  0.13102145  1
  O  O313  1  0.38110678  0.13226482  0.63117046  1
  O  O314  1  0.38108031  0.62602465  0.13246973  1
  O  O315  1  0.37907890  0.63013610  0.63185229  1
  O  O316  1  0.88266189  0.13063162  0.12376461  1
  O  O317  1  0.88026609  0.13406806  0.62483508  1
  O  O318  1  0.88078606  0.63025930  0.13072578  1
  O  O319  1  0.88471552  0.62304145  0.63241292  1
  O  O320  1  0.25682633  0.25630070  0.12513332  1
  O  O321  1  0.25441943  0.25577266  0.62058066  1
  O  O322  1  0.25459973  0.75485240  0.12037303  1
  O  O323  1  0.25406064  0.74847320  0.61533290  1
  O  O324  1  0.75659515  0.25367361  0.11840077  1
  O  O325  1  0.75842153  0.25484487  0.62489537  1
  O  O326  1  0.75538747  0.75460555  0.11825222  1
  O  O327  1  0.75162649  0.75428056  0.62386561  1
  O  O328  1  0.24324819  0.24477756  0.37969337  1
  O  O329  1  0.24170996  0.24822506  0.87637734  1
  O  O330  1  0.24535347  0.74427440  0.38199393  1
  O  O331  1  0.23980975  0.74383988  0.87611910  1
  O  O332  1  0.74512600  0.24172415  0.37432149  1
  O  O333  1  0.74616150  0.24470820  0.88083911  1
  O  O334  1  0.73469719  0.74550449  0.37521640  1
  O  O335  1  0.74411803  0.74463257  0.88027405  1
  O  O336  1  0.01308471  0.12400054  0.00638345  1
  O  O337  1  0.00795369  0.12407899  0.50626240  1
  O  O338  1  0.00519868  0.61868338  0.00469963  1
  O  O339  1  0.00104965  0.61578720  0.50879505  1
  O  O340  1  0.50687905  0.11922363  0.00623242  1
  O  O341  1  0.50115263  0.11663357  0.50563629  1
  O  O342  1  0.50459111  0.61850702  0.00480083  1
  O  O343  1  0.50850913  0.62350609  0.50746492  1
  O  O344  1  0.49555397  0.37712397  0.49102567  1
  O  O345  1  0.49922013  0.38732489  0.99890797  1
  O  O346  1  0.49984507  0.88485876  0.49531130  1
  O  O347  1  0.49351696  0.88060954  0.99457479  1
  O  O348  1  0.99900647  0.38466016  0.49471188  1
  O  O349  1  0.99491882  0.37978481  0.99444772  1
  O  O350  1  0.99943107  0.87762600  0.48925384  1
  O  O351  1  0.99215256  0.87608095  0.99673349  1
  O  O352  1  0.49085083  0.49214851  0.37509896  1
  O  O353  1  0.49442624  0.50155464  0.88493359  1
  O  O354  1  0.50205600  0.99515667  0.38488798  1
  O  O355  1  0.49615842  0.99536684  0.88081902  1
  O  O356  1  0.99983609  0.49481484  0.38441966  1
  O  O357  1  0.99426838  0.49450456  0.88025241  1
  O  O358  1  0.99172731  0.99423205  0.37395145  1
  O  O359  1  0.98942515  0.99926609  0.87803191  1
  O  O360  1  0.00799440  0.00673171  0.12382887  1
  O  O361  1  0.00823816  0.00883364  0.62431845  1
  O  O362  1  0.00574459  0.50417108  0.11859811  1
  O  O363  1  0.00332089  0.50594263  0.61832237  1
  O  O364  1  0.50697494  0.00536084  0.11970551  1
  O  O365  1  0.50707644  0.00599921  0.61822702  1
  O  O366  1  0.50077677  0.50639559  0.11531496  1
  O  O367  1  0.50538326  0.50714483  0.62641031  1
  O  O368  1  0.24295647  0.38067808  0.24508136  1
  O  O369  1  0.24330354  0.38122500  0.74430472  1
  O  O370  1  0.24366082  0.88125955  0.25138299  1
  O  O371  1  0.24056921  0.88197031  0.74908675  1
  O  O372  1  0.74328325  0.37342482  0.24239059  1
  O  O373  1  0.74406847  0.38145917  0.74491117  1
  O  O374  1  0.74245292  0.87281814  0.24254572  1
  O  O375  1  0.73933019  0.88082538  0.74814777  1
  O  O376  1  0.25471204  0.11948132  0.25566791  1
  O  O377  1  0.25810832  0.11975968  0.75077202  1
  O  O378  1  0.25413112  0.61916764  0.25508029  1
  O  O379  1  0.25440108  0.61932786  0.75512844  1
  O  O380  1  0.75301901  0.12269534  0.26063852  1
  O  O381  1  0.75351189  0.12162058  0.75986701  1
  O  O382  1  0.76199639  0.62500562  0.24869035  1
  O  O383  1  0.75408431  0.61916596  0.75698225  1
  O  O384  1  0.36781559  0.12368260  0.36842109  1
  O  O385  1  0.37649966  0.11916506  0.86838571  1
  O  O386  1  0.36834704  0.61866903  0.36896941  1
  O  O387  1  0.36893324  0.62065115  0.86937170  1
  O  O388  1  0.86804993  0.11749828  0.37232936  1
  O  O389  1  0.87060357  0.11628439  0.87673459  1
  O  O390  1  0.87486322  0.62493387  0.36230937  1
  O  O391  1  0.86962527  0.61864811  0.87122384  1
  O  O392  1  0.12948685  0.38060036  0.13026034  1
  O  O393  1  0.12893289  0.37976035  0.63145202  1
  O  O394  1  0.12566742  0.88125831  0.13137701  1
  O  O395  1  0.12738979  0.88083217  0.63431474  1
  O  O396  1  0.63166761  0.37351676  0.13104135  1
  O  O397  1  0.62944750  0.38064333  0.63165926  1
  O  O398  1  0.63000843  0.87846462  0.12953404  1
  O  O399  1  0.62091804  0.88700782  0.63214603  1
  O  O400  1  0.12023742  0.25545244  0.25514448  1
  O  O401  1  0.11905499  0.25614233  0.75470639  1
  O  O402  1  0.11968729  0.75459894  0.25454171  1
  O  O403  1  0.12684669  0.75848857  0.75764148  1
  O  O404  1  0.61821024  0.25471941  0.25481770  1
  O  O405  1  0.62071580  0.25512927  0.75503794  1
  O  O406  1  0.61839525  0.75262527  0.25876604  1
  O  O407  1  0.61739912  0.75561616  0.75652474  1
  O  O408  1  0.38047159  0.24262580  0.24453786  1
  O  O409  1  0.38094560  0.24598006  0.74496729  1
  O  O410  1  0.38191655  0.74283348  0.25149773  1
  O  O411  1  0.37873803  0.74509545  0.74632749  1
  O  O412  1  0.88336550  0.24801302  0.24135654  1
  O  O413  1  0.88084105  0.24974647  0.73907836  1
  O  O414  1  0.88058275  0.74213803  0.24392687  1
  O  O415  1  0.87948951  0.74127025  0.75050919  1
  O  O416  1  0.37511341  0.49779308  0.49156216  1
  O  O417  1  0.38517173  0.50123571  0.99454241  1
  O  O418  1  0.38760337  0.99936238  0.50079345  1
  O  O419  1  0.38169599  0.99396141  0.99489355  1
  O  O420  1  0.88649240  0.49966859  0.49954010  1
  O  O421  1  0.88035625  0.49407984  0.99473151  1
  O  O422  1  0.87823624  0.99926344  0.48510746  1
  O  O423  1  0.87697197  0.99290279  0.99121351  1
  O  O424  1  0.12595778  0.00867459  0.00483051  1
  O  O425  1  0.12521783  0.00688406  0.50695231  1
  O  O426  1  0.11883088  0.50528834  0.00449898  1
  O  O427  1  0.11379125  0.50130235  0.50641324  1
  O  O428  1  0.62045661  0.00448615  0.00530800  1
  O  O429  1  0.61458839  0.00204439  0.50870198  1
  O  O430  1  0.61516449  0.50696000  0.00022654  1
  O  O431  1  0.62053335  0.50929619  0.50700414  1
  O  O432  1  0.36873472  0.36796623  0.12563059  1
  O  O433  1  0.36672954  0.36930128  0.62554432  1
  O  O434  1  0.37656013  0.87512856  0.11313487  1
  O  O435  1  0.37173410  0.86595517  0.62243260  1
  O  O436  1  0.87092368  0.36823142  0.11817237  1
  O  O437  1  0.86837156  0.36648933  0.62450785  1
  O  O438  1  0.87039988  0.86863694  0.12042139  1
  O  O439  1  0.87539086  0.87412105  0.62378637  1
  O  O440  1  0.13004896  0.13068655  0.37984382  1
  O  O441  1  0.12512853  0.13024503  0.88375585  1
  O  O442  1  0.13072572  0.63199714  0.37521834  1
  O  O443  1  0.12947579  0.63163224  0.87837584  1
  O  O444  1  0.63410716  0.13042891  0.37371479  1
  O  O445  1  0.63088474  0.12990971  0.88146621  1
  O  O446  1  0.62066502  0.63204647  0.38407323  1
  O  O447  1  0.63051439  0.63182766  0.88048619  1
