# generated using pymatgen
data_V3Zn3O8
_symmetry_space_group_name_H-M   'P 1'
_cell_length_a   17.08881729
_cell_length_b   17.09131426
_cell_length_c   17.08847387
_cell_angle_alpha   89.99645039
_cell_angle_beta   90.00619289
_cell_angle_gamma   90.00107331
_symmetry_Int_Tables_number   1
_chemical_formula_structural   V3Zn3O8
_chemical_formula_sum   'V96 Zn96 O256'
_cell_volume   4991.03644616
_cell_formula_units_Z   32
loop_
 _symmetry_equiv_pos_site_id
 _symmetry_equiv_pos_as_xyz
  1  'x, y, z'
loop_
 _atom_site_type_symbol
 _atom_site_label
 _atom_site_symmetry_multiplicity
 _atom_site_fract_x
 _atom_site_fract_y
 _atom_site_fract_z
 _atom_site_occupancy
  V  V0  1  0.37493235  0.87495695  0.49994207  1
  V  V1  1  0.00023816  0.24970041  0.75013997  1
  V  V2  1  0.50198276  0.87319946  0.87387851  1
  V  V3  1  0.24893040  0.75069474  0.00169243  1
  V  V4  1  0.87548741  0.49850352  0.87478872  1
  V  V5  1  0.75048555  0.49898114  0.74964111  1
  V  V6  1  0.24957735  0.49975074  0.75105213  1
  V  V7  1  0.87472407  0.37489002  0.49958845  1
  V  V8  1  0.87445508  0.37425445  0.00021812  1
  V  V9  1  0.25012453  0.62489564  0.87522960  1
  V  V10  1  0.87571617  0.74961881  0.12409769  1
  V  V11  1  -0.00048957  -0.00006172  -0.00075599  1
  V  V12  1  0.62506973  0.12567420  0.49965097  1
  V  V13  1  0.87546752  0.87431264  -0.00157891  1
  V  V14  1  0.12428403  0.50062971  0.12468273  1
  V  V15  1  0.00089367  0.50008486  0.49973967  1
  V  V16  1  0.25024672  0.25052926  0.00081954  1
  V  V17  1  0.74854855  0.74883571  -0.00181615  1
  V  V18  1  0.37663314  0.62463451  0.75081963  1
  V  V19  1  0.75091769  0.62581366  0.37351042  1
  V  V20  1  0.37476398  0.24850143  0.62619886  1
  V  V21  1  0.74946638  -0.00013337  0.24872395  1
  V  V22  1  0.37529927  -0.00003217  0.37544375  1
  V  V23  1  0.12522978  0.87505394  0.25039997  1
  V  V24  1  0.24939004  0.74889186  0.49891246  1
  V  V25  1  0.87616994  0.62607720  0.24944796  1
  V  V26  1  0.87509004  0.62353456  0.74894731  1
  V  V27  1  0.24832342  -0.00117472  0.75096747  1
  V  V28  1  0.00077828  0.74975061  0.74983576  1
  V  V29  1  0.12484678  0.24993635  0.37508786  1
  V  V30  1  -0.00014110  0.62413221  0.62434798  1
  V  V31  1  0.24948446  0.37483088  0.62646325  1
  V  V32  1  0.87528439  0.25005168  0.62450174  1
  V  V33  1  0.00012847  0.37377012  0.87454064  1
  V  V34  1  0.50084347  0.62587822  0.12437533  1
  V  V35  1  0.12472041  0.12488879  0.49977825  1
  V  V36  1  0.12521271  0.49907963  0.62579449  1
  V  V37  1  0.74957357  0.62443672  0.87477570  1
  V  V38  1  0.37408180  0.25167132  0.12539797  1
  V  V39  1  0.62497823  0.00102517  0.12476474  1
  V  V40  1  0.75029694  0.37501796  0.12381346  1
  V  V41  1  0.62504967  0.50133939  0.12331088  1
  V  V42  1  0.49978382  0.87645796  0.37469998  1
  V  V43  1  0.50040998  0.75041475  0.24986313  1
  V  V44  1  -0.00004370  0.24995215  0.24972764  1
  V  V45  1  0.24969854  -0.00057155  0.24963612  1
  V  V46  1  0.25107400  0.50058081  0.25083390  1
  V  V47  1  0.87510684  0.74914960  0.62423109  1
  V  V48  1  0.62585290  0.75060245  0.37453653  1
  V  V49  1  0.62431971  0.62405817  0.50018694  1
  V  V50  1  0.37439451  0.12499640  0.75028006  1
  V  V51  1  0.62524296  0.37512773  0.25110263  1
  V  V52  1  0.87469712  0.25057806  0.12426627  1
  V  V53  1  0.62531429  0.87649095  0.24948265  1
  V  V54  1  0.50071600  0.25131392  0.25079689  1
  V  V55  1  0.12493590  0.00009177  0.62554143  1
  V  V56  1  0.87457181  0.12471394  0.24965573  1
  V  V57  1  0.12604792  0.62529539  0.49957121  1
  V  V58  1  0.37429929  0.62476978  0.25297273  1
  V  V59  1  0.37663444  0.74994123  0.62653927  1
  V  V60  1  0.87519182  0.87497435  0.49945138  1
  V  V61  1  0.62459628  0.49974483  0.62293850  1
  V  V62  1  0.25033946  0.12472449  0.37551535  1
  V  V63  1  0.12342636  0.75145355  0.87388179  1
  V  V64  1  0.37397984  0.87643210  0.00139080  1
  V  V65  1  0.75030733  0.75013001  0.49936418  1
  V  V66  1  0.62456965  0.12437664  -0.00087994  1
  V  V67  1  0.74890272  0.87483353  0.62480278  1
  V  V68  1  0.74968571  -0.00174732  0.74946053  1
  V  V69  1  -0.00031239  0.12413522  0.12469170  1
  V  V70  1  0.87481915  -0.00014023  0.87434647  1
  V  V71  1  0.74907410  0.12603726  0.37494614  1
  V  V72  1  0.49999267  0.00066713  0.00050274  1
  V  V73  1  0.62447237  -0.00130187  0.62562427  1
  V  V74  1  0.62529895  0.37369984  0.74995932  1
  V  V75  1  0.74904295  0.12349644  0.87393666  1
  V  V76  1  0.49897798  0.37635101  0.87655386  1
  V  V77  1  0.24960418  0.12624165  0.87639515  1
  V  V78  1  0.12579484  0.37548804  0.25035431  1
  V  V79  1  0.87506044  0.00029687  0.37441602  1
  V  V80  1  0.00083933  0.87472330  0.37434263  1
  V  V81  1  -0.00001048  0.00001538  0.50016626  1
  V  V82  1  0.25074674  0.37485119  0.12514286  1
  V  V83  1  0.37775877  0.37677283  0.49957616  1
  V  V84  1  0.12464555  0.25034512  0.87605806  1
  V  V85  1  0.12452045  0.00014683  0.12527696  1
  V  V86  1  0.75056976  0.37359580  0.62429996  1
  V  V87  1  0.49936574  0.12363131  0.62631396  1
  V  V88  1  0.24987096  0.24962341  0.50090773  1
  V  V89  1  0.00032198  0.75080960  0.24921571  1
  V  V90  1  0.37561528  0.12608751  0.25024041  1
  V  V91  1  -0.00130429  0.12568630  0.62495309  1
  V  V92  1  0.00088115  0.50048978  0.00074718  1
  V  V93  1  -0.00009575  0.37535318  0.37468334  1
  V  V94  1  0.87545396  0.50100344  0.37338511  1
  V  V95  1  0.62547447  0.24917736  0.87498223  1
  Zn  Zn96  1  0.12562483  0.37520524  0.75070127  1
  Zn  Zn97  1  0.00128423  0.62545818  0.12385888  1
  Zn  Zn98  1  0.50203558  0.74903869  0.75134415  1
  Zn  Zn99  1  0.75016173  0.24869566  -0.00080308  1
  Zn  Zn100  1  0.49955106  0.50215211  0.49927210  1
  Zn  Zn101  1  0.12577900  0.74841168  0.37353274  1
  Zn  Zn102  1  0.12497245  0.12441942  0.00064906  1
  Zn  Zn103  1  0.00012097  0.87718090  0.87211115  1
  Zn  Zn104  1  0.62410556  0.74688777  0.87122970  1
  Zn  Zn105  1  0.74968228  0.87496502  0.12373248  1
  Zn  Zn106  1  0.12372701  0.87480507  0.74785163  1
  Zn  Zn107  1  0.87432029  0.12407137  0.74925635  1
  Zn  Zn108  1  0.24900079  0.87512112  0.62613172  1
  Zn  Zn109  1  0.37416424  0.49953783  0.87812795  1
  Zn  Zn110  1  0.74997483  0.25082599  0.49854961  1
  Zn  Zn111  1  0.25005674  0.87564955  0.12635994  1
  Zn  Zn112  1  0.49843966  -0.00029246  0.50051148  1
  Zn  Zn113  1  0.49995764  0.12640084  0.12360987  1
  Zn  Zn114  1  0.62229617  0.62550875  -0.00392282  1
  Zn  Zn115  1  0.62339879  0.87137710  0.74873480  1
  Zn  Zn116  1  0.62624950  0.25200658  0.37657109  1
  Zn  Zn117  1  0.49659617  0.50178569  -0.00105614  1
  Zn  Zn118  1  0.75138327  0.50143014  0.24928296  1
  Zn  Zn119  1  0.49959952  0.24874027  0.75119805  1
  Zn  Zn120  1  0.12358841  0.62521466  0.00178859  1
  Zn  Zn121  1  0.37676429  0.49921636  0.37657987  1
  Zn  Zn122  1  0.24933779  0.62233020  0.37578397  1
  Zn  Zn123  1  0.37356122  0.75072150  0.12665863  1
  Zn  Zn124  1  0.50139506  0.62309823  0.62500451  1
  Zn  Zn125  1  0.37537371  0.37833952  0.00047786  1
  Zn  Zn126  1  0.37437247  0.00172368  0.87587733  1
  Zn  Zn127  1  0.50200213  0.37780883  0.37737653  1
  Zn  Zn128  1  0.18722922  0.18664921  0.18706115  1
  Zn  Zn129  1  0.18631768  0.18711637  0.68934679  1
  Zn  Zn130  1  0.18622940  0.68713741  0.18636834  1
  Zn  Zn131  1  0.18845172  0.68604521  0.68705909  1
  Zn  Zn132  1  0.68770225  0.18753949  0.18546182  1
  Zn  Zn133  1  0.68788583  0.18704342  0.68814573  1
  Zn  Zn134  1  0.68913431  0.68882742  0.18675347  1
  Zn  Zn135  1  0.68594271  0.68771892  0.68823895  1
  Zn  Zn136  1  0.31275152  0.31287267  0.31388097  1
  Zn  Zn137  1  0.31303288  0.31221842  0.81293507  1
  Zn  Zn138  1  0.31275944  0.81213451  0.31339756  1
  Zn  Zn139  1  0.31287140  0.81369436  0.81463933  1
  Zn  Zn140  1  0.81092002  0.31222817  0.31184736  1
  Zn  Zn141  1  0.81259114  0.30992136  0.81180434  1
  Zn  Zn142  1  0.81288583  0.81335947  0.31114708  1
  Zn  Zn143  1  0.81308356  0.81304260  0.81210046  1
  Zn  Zn144  1  0.19044722  0.43854510  0.43706415  1
  Zn  Zn145  1  0.18713263  0.43681644  0.93849731  1
  Zn  Zn146  1  0.18808921  0.93571148  0.43743517  1
  Zn  Zn147  1  0.18548796  0.93770781  0.93711746  1
  Zn  Zn148  1  0.68977887  0.43957945  0.43697675  1
  Zn  Zn149  1  0.68665315  0.43709633  0.93838827  1
  Zn  Zn150  1  0.68698925  0.93946998  0.43752732  1
  Zn  Zn151  1  0.68698501  0.93628559  0.93692231  1
  Zn  Zn152  1  0.31233530  0.06424953  0.06398085  1
  Zn  Zn153  1  0.31225820  0.06183384  0.56346067  1
  Zn  Zn154  1  0.31325440  0.56167933  0.06277902  1
  Zn  Zn155  1  0.31194265  0.56225402  0.56510695  1
  Zn  Zn156  1  0.81136161  0.06222205  0.06100546  1
  Zn  Zn157  1  0.81153925  0.06289031  0.56263461  1
  Zn  Zn158  1  0.81332815  0.56312485  0.06265743  1
  Zn  Zn159  1  0.81110874  0.56140608  0.56107751  1
  Zn  Zn160  1  0.43797053  0.43888972  0.18741765  1
  Zn  Zn161  1  0.43926590  0.43809180  0.68789637  1
  Zn  Zn162  1  0.43811511  0.93897083  0.18651996  1
  Zn  Zn163  1  0.43577629  0.93821828  0.68809925  1
  Zn  Zn164  1  0.93805965  0.43836174  0.18703676  1
  Zn  Zn165  1  0.93834350  0.43557654  0.68773919  1
  Zn  Zn166  1  0.93682217  0.93577206  0.18522301  1
  Zn  Zn167  1  0.93725158  0.93629339  0.68878890  1
  Zn  Zn168  1  0.06236474  0.06195470  0.31216654  1
  Zn  Zn169  1  0.06257029  0.06503675  0.81307773  1
  Zn  Zn170  1  0.06349362  0.56485931  0.31248918  1
  Zn  Zn171  1  0.06355683  0.56319347  0.81363089  1
  Zn  Zn172  1  0.56193162  0.06364766  0.31271348  1
  Zn  Zn173  1  0.56205392  0.05916038  0.81238182  1
  Zn  Zn174  1  0.56049093  0.56015494  0.31493876  1
  Zn  Zn175  1  0.56317882  0.56086316  0.81138751  1
  Zn  Zn176  1  0.43944489  0.18922398  0.43775971  1
  Zn  Zn177  1  0.43698372  0.18955648  0.93747635  1
  Zn  Zn178  1  0.43970815  0.68830750  0.43800632  1
  Zn  Zn179  1  0.43557404  0.68948494  0.93838265  1
  Zn  Zn180  1  0.93657998  0.18798646  0.43784284  1
  Zn  Zn181  1  0.93637657  0.18568533  0.93741539  1
  Zn  Zn182  1  0.93888850  0.68784883  0.43595301  1
  Zn  Zn183  1  0.93731612  0.68575160  0.93754954  1
  Zn  Zn184  1  0.06335141  0.31288114  0.06173360  1
  Zn  Zn185  1  0.06254342  0.31283735  0.56305972  1
  Zn  Zn186  1  0.06159558  0.81516844  0.06293806  1
  Zn  Zn187  1  0.06368895  0.81373766  0.56370490  1
  Zn  Zn188  1  0.56244519  0.31167088  0.06122220  1
  Zn  Zn189  1  0.56160809  0.30985400  0.56528943  1
  Zn  Zn190  1  0.56367729  0.81316423  0.06224131  1
  Zn  Zn191  1  0.56118880  0.81178968  0.56132880  1
  O  O192  1  0.11701918  0.11833510  0.12551467  1
  O  O193  1  0.11886103  0.12041451  0.61818941  1
  O  O194  1  0.12225596  0.61608320  0.12262135  1
  O  O195  1  0.11911241  0.61882459  0.61952363  1
  O  O196  1  0.62335860  0.11883796  0.11782599  1
  O  O197  1  0.62036931  0.11931929  0.61792448  1
  O  O198  1  0.61686007  0.61718327  0.12772607  1
  O  O199  1  0.62627784  0.61802576  0.61806087  1
  O  O200  1  0.37480159  0.37375700  0.38884794  1
  O  O201  1  0.38695902  0.37585932  0.87473526  1
  O  O202  1  0.38065045  0.88028922  0.37957331  1
  O  O203  1  0.38204586  0.87650330  0.88682476  1
  O  O204  1  0.88072135  0.38038474  0.37869030  1
  O  O205  1  0.87986788  0.37953386  0.87998247  1
  O  O206  1  0.88022235  0.88120812  0.38021131  1
  O  O207  1  0.87681483  0.88178947  0.88087467  1
  O  O208  1  0.25511513  0.00586738  0.36968878  1
  O  O209  1  0.24907191  0.00655359  0.86655761  1
  O  O210  1  0.25501912  0.50245328  0.36674186  1
  O  O211  1  0.24962288  0.50690988  0.86882948  1
  O  O212  1  0.75611105  0.00575568  0.36891567  1
  O  O213  1  0.75451514  0.00370616  0.86923259  1
  O  O214  1  0.75798067  0.50797294  0.37212962  1
  O  O215  1  0.75618020  0.50343842  0.86930707  1
  O  O216  1  0.24419805  0.49439616  0.13132495  1
  O  O217  1  0.24385943  0.49455855  0.63119179  1
  O  O218  1  0.24336536  0.99954717  0.13255500  1
  O  O219  1  0.24357481  1.00123604  0.63510920  1
  O  O220  1  0.74099806  0.49530856  0.12705017  1
  O  O221  1  0.74610061  0.49328281  0.63041153  1
  O  O222  1  0.74368056  0.99855048  0.13159133  1
  O  O223  1  0.74518392  0.99388252  0.62911912  1
  O  O224  1  0.00570893  0.36931533  0.25569745  1
  O  O225  1  0.00167784  0.36828080  0.75687664  1
  O  O226  1  0.00475431  0.87091429  0.25552053  1
  O  O227  1  0.00245120  0.86538476  0.75187262  1
  O  O228  1  0.50904214  0.36779464  0.24916761  1
  O  O229  1  0.50698521  0.37347122  0.75899764  1
  O  O230  1  0.50510704  0.87029613  0.25508769  1
  O  O231  1  0.49640623  0.87387796  0.76274446  1
  O  O232  1  0.49478944  0.13551758  0.24925098  1
  O  O233  1  0.49242970  0.12417496  0.74449112  1
  O  O234  1  0.49381560  0.62998150  0.24322349  1
  O  O235  1  0.48743617  0.62650775  0.74918426  1
  O  O236  1  0.99384372  0.13022220  0.24560371  1
  O  O237  1  0.99812635  0.13161669  0.74203018  1
  O  O238  1  0.99341886  0.63288910  0.24930209  1
  O  O239  1  0.99417446  0.62899474  0.74350322  1
  O  O240  1  0.36836098  0.25274286  0.00816601  1
  O  O241  1  0.36881359  0.25595799  0.50586764  1
  O  O242  1  0.36477935  0.75910257  0.00116800  1
  O  O243  1  0.36807420  0.75303172  0.50743967  1
  O  O244  1  0.87440293  0.25663286  0.00696460  1
  O  O245  1  0.87498427  0.25770887  0.50606088  1
  O  O246  1  0.86766939  0.75373002  0.00345181  1
  O  O247  1  0.87033697  0.75498787  0.50465545  1
  O  O248  1  0.12966990  0.24462532  0.49442416  1
  O  O249  1  0.13171370  0.24829230  0.99445145  1
  O  O250  1  0.13485051  0.74469943  0.50211323  1
  O  O251  1  0.13302695  0.75130983  0.99196128  1
  O  O252  1  0.62666309  0.23794007  0.49892100  1
  O  O253  1  0.62703709  0.24259816  0.99358275  1
  O  O254  1  0.63144321  0.74521348  0.49381725  1
  O  O255  1  0.63804091  0.74813631  0.99903146  1
  O  O256  1  0.49443671  0.25035779  0.13596237  1
  O  O257  1  0.49263286  0.24158689  0.62906592  1
  O  O258  1  0.50102946  0.74071632  0.13123650  1
  O  O259  1  0.48628072  0.74831980  0.62628958  1
  O  O260  1  0.99496357  0.24519429  0.13108338  1
  O  O261  1  0.99544834  0.24531659  0.62943562  1
  O  O262  1  0.99354050  0.74951046  0.13119960  1
  O  O263  1  0.99449734  0.74330065  0.62875457  1
  O  O264  1  0.00514879  0.25514648  0.36944933  1
  O  O265  1  0.00395286  0.25428122  0.87039246  1
  O  O266  1  0.00106204  0.75800273  0.36841212  1
  O  O267  1  0.00890943  0.74827946  0.86915728  1
  O  O268  1  0.50258329  0.25397978  0.36202132  1
  O  O269  1  0.50675450  0.25915670  0.87305039  1
  O  O270  1  0.50664532  0.75651966  0.36906088  1
  O  O271  1  0.50070846  0.76078139  0.87599458  1
  O  O272  1  0.24447214  0.13019149  0.49484888  1
  O  O273  1  0.24853682  0.13222157  0.99447287  1
  O  O274  1  0.24566613  0.63342781  0.50079552  1
  O  O275  1  0.25055309  0.63680375  0.99472186  1
  O  O276  1  0.74076057  0.12532677  0.49420389  1
  O  O277  1  0.74256974  0.12511348  0.99187696  1
  O  O278  1  0.74569795  0.63145185  0.49331696  1
  O  O279  1  0.75089947  0.63373535  0.99366480  1
  O  O280  1  0.25101176  0.36809039  0.00790313  1
  O  O281  1  0.25729133  0.36889218  0.50637361  1
  O  O282  1  0.25788611  0.86780522  -0.00115997  1
  O  O283  1  0.25613509  0.86516429  0.50139293  1
  O  O284  1  0.75688898  0.37338925  0.00613295  1
  O  O285  1  0.75733352  0.37413216  0.50596294  1
  O  O286  1  0.75609604  0.86438126  -0.00079166  1
  O  O287  1  0.75604293  0.86987393  0.50372224  1
  O  O288  1  0.13006110  0.49408196  0.24574471  1
  O  O289  1  0.13115468  0.49983386  0.74316220  1
  O  O290  1  0.13014366  0.99509228  0.24591274  1
  O  O291  1  0.13373799  1.00122985  0.74475580  1
  O  O292  1  0.62532005  0.49156553  0.24033698  1
  O  O293  1  0.63242171  0.49384952  0.74324958  1
  O  O294  1  0.62969777  0.99605339  0.24531229  1
  O  O295  1  0.63158289  0.99552041  0.74262193  1
  O  O296  1  0.36997437  0.00572534  0.25543499  1
  O  O297  1  0.36323620  0.00627711  0.75109721  1
  O  O298  1  0.36977929  0.50977393  0.24967710  1
  O  O299  1  0.36854315  0.51049243  0.75003611  1
  O  O300  1  0.87031921  0.00524166  0.25485252  1
  O  O301  1  0.86805783  0.00093386  0.75573856  1
  O  O302  1  0.87491758  0.50657837  0.25629461  1
  O  O303  1  0.87033735  0.50410035  0.75472745  1
  O  O304  1  0.11984368  0.36937765  0.37075214  1
  O  O305  1  0.11751486  0.36823571  0.87368474  1
  O  O306  1  0.11795318  0.87376755  0.36886155  1
  O  O307  1  0.12358070  0.86193611  0.87197601  1
  O  O308  1  0.62638675  0.37462871  0.36221549  1
  O  O309  1  0.61924058  0.37017472  0.86986505  1
  O  O310  1  0.62004925  0.87054323  0.36992858  1
  O  O311  1  0.61278737  0.87286140  0.87459994  1
  O  O312  1  0.37669715  0.13299346  0.13337501  1
  O  O313  1  0.37932128  0.12933544  0.62974187  1
  O  O314  1  0.38468237  0.62645696  0.13526389  1
  O  O315  1  0.37454614  0.63329273  0.63435733  1
  O  O316  1  0.87962054  0.12998599  0.13083931  1
  O  O317  1  0.88175914  0.13128630  0.62430610  1
  O  O318  1  0.87699143  0.63142852  0.13192149  1
  O  O319  1  0.88002068  0.62929261  0.62882546  1
  O  O320  1  0.25425032  0.25546919  0.12180276  1
  O  O321  1  0.25396892  0.25389566  0.61961629  1
  O  O322  1  0.25026386  0.75311078  0.11293546  1
  O  O323  1  0.25924090  0.75011998  0.61626312  1
  O  O324  1  0.75753909  0.25649459  0.12332123  1
  O  O325  1  0.75711313  0.25643713  0.62371677  1
  O  O326  1  0.75619871  0.75084623  0.11442120  1
  O  O327  1  0.75633109  0.75445668  0.61836588  1
  O  O328  1  0.24376911  0.24407447  0.38057413  1
  O  O329  1  0.24448979  0.24621155  0.88072814  1
  O  O330  1  0.25017878  0.74738776  0.38865396  1
  O  O331  1  0.24244401  0.74627178  0.88216581  1
  O  O332  1  0.74746961  0.24159454  0.37700454  1
  O  O333  1  0.74355435  0.24239020  0.87581797  1
  O  O334  1  0.74538317  0.74615510  0.38028320  1
  O  O335  1  0.75200173  0.74321240  0.88346003  1
  O  O336  1  0.00042061  0.11807413  0.00785985  1
  O  O337  1  0.00552513  0.11938067  0.50384232  1
  O  O338  1  0.00161328  0.61578588  0.00197236  1
  O  O339  1  0.00477745  0.61953523  0.50538374  1
  O  O340  1  0.50591823  0.11856705  0.00011206  1
  O  O341  1  0.50848463  0.12347024  0.50584051  1
  O  O342  1  0.50068935  0.62651749  0.01285188  1
  O  O343  1  0.50907910  0.62479015  0.50304190  1
  O  O344  1  0.48819217  0.37267226  0.50091022  1
  O  O345  1  0.49995003  0.37634158  0.98876437  1
  O  O346  1  0.49281981  0.87590526  0.49211257  1
  O  O347  1  0.49230668  0.87894914  0.99427114  1
  O  O348  1  0.99524323  0.38078607  0.49399835  1
  O  O349  1  0.99374898  0.38014206  0.99418514  1
  O  O350  1  0.99443804  0.88044700  0.49512983  1
  O  O351  1  0.99304629  0.88193070  0.99645300  1
  O  O352  1  0.49492376  0.49477908  0.38048799  1
  O  O353  1  0.50021240  0.48885708  0.87657442  1
  O  O354  1  0.49274437  0.99408611  0.37556867  1
  O  O355  1  0.49700742  0.99020853  0.88232379  1
  O  O356  1  0.99572038  0.49437328  0.38044073  1
  O  O357  1  0.99451522  0.49415270  0.87929620  1
  O  O358  1  0.99423182  0.99532969  0.38061653  1
  O  O359  1  0.99379907  1.00036103  0.88074897  1
  O  O360  1  0.00418659  0.00536417  0.11999566  1
  O  O361  1  0.00404846  0.00547219  0.61888266  1
  O  O362  1  0.00681725  0.49918253  0.11836677  1
  O  O363  1  0.00446035  0.50473452  0.61912601  1
  O  O364  1  0.50695846  0.00268170  0.11859283  1
  O  O365  1  0.50560158  0.00545694  0.62291466  1
  O  O366  1  0.50879262  0.50958221  0.12589209  1
  O  O367  1  0.50970815  0.50181319  0.62208246  1
  O  O368  1  0.24453433  0.37941637  0.24542678  1
  O  O369  1  0.24938950  0.38142777  0.74367963  1
  O  O370  1  0.24463849  0.88150846  0.24989613  1
  O  O371  1  0.24927046  0.88765944  0.75023267  1
  O  O372  1  0.74049135  0.37615726  0.24291991  1
  O  O373  1  0.74571599  0.38035393  0.74458542  1
  O  O374  1  0.74310220  0.88215725  0.24917923  1
  O  O375  1  0.74942655  0.88006968  0.74165493  1
  O  O376  1  0.25530912  0.12029185  0.25678535  1
  O  O377  1  0.25413303  0.11719739  0.75551864  1
  O  O378  1  0.25995293  0.62111357  0.24934367  1
  O  O379  1  0.25822032  0.62019820  0.75464649  1
  O  O380  1  0.75544745  0.11956659  0.25458451  1
  O  O381  1  0.75096859  0.11619822  0.75579681  1
  O  O382  1  0.75756253  0.62568066  0.25662555  1
  O  O383  1  0.75680887  0.61840655  0.75409840  1
  O  O384  1  0.36950341  0.12081640  0.37059083  1
  O  O385  1  0.36753297  0.12430357  0.86862674  1
  O  O386  1  0.37557086  0.62564860  0.36208923  1
  O  O387  1  0.36886536  0.62662275  0.86503703  1
  O  O388  1  0.87058203  0.11942466  0.36932553  1
  O  O389  1  0.86725480  0.11759178  0.87347094  1
  O  O390  1  0.87053693  0.62057261  0.37004470  1
  O  O391  1  0.87002409  0.61759033  0.86801071  1
  O  O392  1  0.13057565  0.37957801  0.13225856  1
  O  O393  1  0.13158893  0.38130466  0.62562218  1
  O  O394  1  0.12627946  0.88300366  0.13273978  1
  O  O395  1  0.12869105  0.88400935  0.62744638  1
  O  O396  1  0.62870651  0.38256948  0.13166254  1
  O  O397  1  0.63122278  0.37879935  0.62990443  1
  O  O398  1  0.62640685  0.88213996  0.13208929  1
  O  O399  1  0.63131944  0.88069702  0.62296645  1
  O  O400  1  0.11969087  0.25527448  0.25587642  1
  O  O401  1  0.11824058  0.25190196  0.75711950  1
  O  O402  1  0.11935193  0.75701399  0.25110992  1
  O  O403  1  0.12072901  0.74891918  0.75789020  1
  O  O404  1  0.61727008  0.25905886  0.24761286  1
  O  O405  1  0.62371316  0.25639469  0.75649652  1
  O  O406  1  0.62066668  0.75621127  0.25545457  1
  O  O407  1  0.62004493  0.75377679  0.75246316  1
  O  O408  1  0.38203697  0.24649322  0.24630123  1
  O  O409  1  0.37431014  0.24217729  0.74274015  1
  O  O410  1  0.38098438  0.74238331  0.24819462  1
  O  O411  1  0.37165982  0.74178917  0.74202544  1
  O  O412  1  0.88109134  0.24473705  0.24458203  1
  O  O413  1  0.88225651  0.24797322  0.74237121  1
  O  O414  1  0.88035335  0.74640946  0.24439851  1
  O  O415  1  0.87993107  0.74282659  0.74347301  1
  O  O416  1  0.37452311  0.48803537  0.50239088  1
  O  O417  1  0.37845287  0.49685721  0.99638022  1
  O  O418  1  0.37426975  0.99352757  0.49323110  1
  O  O419  1  0.37925870  0.99143830  0.99996968  1
  O  O420  1  0.88157024  0.49508467  0.49383074  1
  O  O421  1  0.88002872  0.49369659  0.99416389  1
  O  O422  1  0.88031727  0.99468260  0.49438723  1
  O  O423  1  0.87952538  0.99416492  0.99455809  1
  O  O424  1  0.11817963  0.00101390  0.00686136  1
  O  O425  1  0.11988777  0.00578824  0.50421911  1
  O  O426  1  0.11886469  0.50069190  0.00676983  1
  O  O427  1  0.12018946  0.50461640  0.50560053  1
  O  O428  1  0.61972428  0.00438133  0.00518010  1
  O  O429  1  0.62343596  0.01025189  0.50577312  1
  O  O430  1  0.62300302  0.50251269  0.01338600  1
  O  O431  1  0.62663818  0.50656731  0.50610934  1
  O  O432  1  0.36801814  0.36896361  0.12629081  1
  O  O433  1  0.36944796  0.36877604  0.61877588  1
  O  O434  1  0.37412746  0.87280294  0.11334154  1
  O  O435  1  0.37227125  0.86564743  0.61974538  1
  O  O436  1  0.87023315  0.37025765  0.12051724  1
  O  O437  1  0.87054882  0.37054832  0.61885626  1
  O  O438  1  0.87210833  0.86796173  0.11699623  1
  O  O439  1  0.86981069  0.86887866  0.61800887  1
  O  O440  1  0.12989730  0.13009094  0.38018159  1
  O  O441  1  0.13179217  0.13289046  0.87771280  1
  O  O442  1  0.12788179  0.62833325  0.38394644  1
  O  O443  1  0.13130000  0.63633979  0.87686785  1
  O  O444  1  0.63012826  0.12542191  0.38379475  1
  O  O445  1  0.62926612  0.12880601  0.87936323  1
  O  O446  1  0.63098058  0.63149353  0.37849970  1
  O  O447  1  0.63344840  0.62524161  0.87691603  1
