# generated using pymatgen
data_V3Zn3O8
_symmetry_space_group_name_H-M   'P 1'
_cell_length_a   17.09079230
_cell_length_b   17.09158138
_cell_length_c   17.09041883
_cell_angle_alpha   90.01712981
_cell_angle_beta   89.98605926
_cell_angle_gamma   90.00939198
_symmetry_Int_Tables_number   1
_chemical_formula_structural   V3Zn3O8
_chemical_formula_sum   'V96 Zn96 O256'
_cell_volume   4992.25903112
_cell_formula_units_Z   32
loop_
 _symmetry_equiv_pos_site_id
 _symmetry_equiv_pos_as_xyz
  1  'x, y, z'
loop_
 _atom_site_type_symbol
 _atom_site_label
 _atom_site_symmetry_multiplicity
 _atom_site_fract_x
 _atom_site_fract_y
 _atom_site_fract_z
 _atom_site_occupancy
  V  V0  1  0.12557925  0.49957950  0.62654610  1
  V  V1  1  0.12490252  0.62482259  0.00010715  1
  V  V2  1  0.62530790  0.49990393  0.62436673  1
  V  V3  1  0.37420966  0.49806055  0.87390285  1
  V  V4  1  0.00012889  0.25113363  0.75031519  1
  V  V5  1  0.87427541  0.50009772  0.37346856  1
  V  V6  1  0.50048758  0.00048317  0.00052889  1
  V  V7  1  0.12380758  0.62610415  0.49981340  1
  V  V8  1  0.62497713  0.37428496  0.75033968  1
  V  V9  1  0.87501364  0.37695394  -0.00124998  1
  V  V10  1  0.62561975  0.62460475  -0.00045521  1
  V  V11  1  0.62498790  -0.00096032  0.62522442  1
  V  V12  1  0.87507983  0.74995539  0.12569043  1
  V  V13  1  0.75087444  0.37480370  0.62405219  1
  V  V14  1  0.87341478  0.62545666  0.75003300  1
  V  V15  1  0.49991690  0.87390126  0.37441846  1
  V  V16  1  0.24929334  0.75058308  0.49951947  1
  V  V17  1  0.50005277  0.12497271  0.12547537  1
  V  V18  1  0.37269491  0.25021869  0.62386313  1
  V  V19  1  0.24943268  0.87519002  0.62549362  1
  V  V20  1  0.87456780  0.87590514  0.50003639  1
  V  V21  1  0.24965273  0.12568679  0.37653232  1
  V  V22  1  0.12464629  0.37423601  0.25096954  1
  V  V23  1  0.37434213  0.74959306  0.12377585  1
  V  V24  1  0.00022838  0.75031523  0.24974619  1
  V  V25  1  0.24977399  0.62497711  0.37456183  1
  V  V26  1  0.12521889  0.12652385  0.50032547  1
  V  V27  1  0.12506999  0.75144752  0.37446652  1
  V  V28  1  0.62436224  0.87405342  0.75003699  1
  V  V29  1  0.00011374  0.50017869  -0.00016945  1
  V  V30  1  0.12534576  0.74896819  0.87564812  1
  V  V31  1  0.87486459  0.00199267  0.37395799  1
  V  V32  1  0.49961013  0.62438556  0.12439120  1
  V  V33  1  0.62569002  0.24843793  0.37629702  1
  V  V34  1  0.50154970  0.12196382  0.62383043  1
  V  V35  1  0.12430933  0.50003049  0.12485911  1
  V  V36  1  0.37482284  0.87387313  0.00013316  1
  V  V37  1  0.49910240  0.49809840  0.49983432  1
  V  V38  1  0.50202489  0.24996228  0.75107978  1
  V  V39  1  0.62532077  0.74915695  0.87506172  1
  V  V40  1  0.74932697  0.25134730  -0.00214890  1
  V  V41  1  0.62707547  0.37691444  0.24850300  1
  V  V42  1  0.37531982  0.87465681  0.49987455  1
  V  V43  1  0.25033622  0.12492826  0.87598922  1
  V  V44  1  0.12475886  -0.00000876  0.62614023  1
  V  V45  1  0.37594649  -0.00096456  0.37558170  1
  V  V46  1  0.37558657  0.37484213  0.00052326  1
  V  V47  1  0.00098090  0.37581893  0.87438903  1
  V  V48  1  0.62431075  0.74947185  0.37392256  1
  V  V49  1  0.87451481  0.87429929  0.00127952  1
  V  V50  1  0.37560116  0.12458357  0.25116282  1
  V  V51  1  -0.00036349  0.00161031  0.49994766  1
  V  V52  1  0.37365057  0.62339605  0.75003938  1
  V  V53  1  0.25018160  0.74897428  -0.00069266  1
  V  V54  1  0.75154290  0.00032023  0.75140908  1
  V  V55  1  0.74969965  0.87552121  0.62375227  1
  V  V56  1  0.12620605  0.87667789  0.24942846  1
  V  V57  1  0.49968753  0.74967256  0.24998701  1
  V  V58  1  0.87456872  0.00014198  0.87533191  1
  V  V59  1  0.75034129  0.50170475  0.74913938  1
  V  V60  1  -0.00045699  0.12652786  0.62660604  1
  V  V61  1  0.12526420  0.00085147  0.12488820  1
  V  V62  1  0.00036388  0.50159220  0.49893296  1
  V  V63  1  0.37500674  0.74907618  0.62527705  1
  V  V64  1  0.87452306  0.75169980  0.62408941  1
  V  V65  1  0.25074852  0.37446966  0.12556551  1
  V  V66  1  0.00045041  0.87716183  0.37496005  1
  V  V67  1  0.87698963  0.24980213  0.12513076  1
  V  V68  1  0.12527354  0.12481215  0.00019406  1
  V  V69  1  0.62469878  0.62466692  0.49911918  1
  V  V70  1  0.62595443  0.12583752  -0.00113862  1
  V  V71  1  0.75019731  -0.00040847  0.24852865  1
  V  V72  1  0.00041990  0.37528292  0.37450516  1
  V  V73  1  0.62595245  -0.00059546  0.12521353  1
  V  V74  1  0.12504115  0.25016301  0.87530992  1
  V  V75  1  0.49947409  0.62394309  0.62427805  1
  V  V76  1  0.75034719  0.62510007  0.37308762  1
  V  V77  1  0.49912740  0.37388041  0.37693212  1
  V  V78  1  0.12470745  0.87449105  0.74993457  1
  V  V79  1  0.37464304  -0.00009624  0.87563902  1
  V  V80  1  -0.00110645  0.75042608  0.74961305  1
  V  V81  1  0.24970420  0.49952790  0.25083149  1
  V  V82  1  0.12452585  0.25039149  0.37566328  1
  V  V83  1  0.49963144  0.49965475  0.00033802  1
  V  V84  1  0.37510641  0.62425745  0.24972401  1
  V  V85  1  0.37486778  0.12323365  0.75153429  1
  V  V86  1  0.24993969  -0.00011307  0.24960395  1
  V  V87  1  0.87528497  0.25099808  0.62563049  1
  V  V88  1  0.00015665  0.87485505  0.87580985  1
  V  V89  1  0.37509381  0.49858200  0.37621627  1
  V  V90  1  0.75030250  0.12534953  0.37501785  1
  V  V91  1  0.50015094  0.87518372  0.87481267  1
  V  V92  1  0.50057936  0.24913392  0.25162030  1
  V  V93  1  0.75014829  0.24963399  0.50048616  1
  V  V94  1  0.37502644  0.25059558  0.12534879  1
  V  V95  1  0.00089610  0.00046498  0.00084094  1
  Zn  Zn96  1  0.24957629  0.37481451  0.62533682  1
  Zn  Zn97  1  0.74772492  0.87371498  0.12458509  1
  Zn  Zn98  1  0.00073225  0.12572254  0.12650474  1
  Zn  Zn99  1  0.24869454  0.62335951  0.87401008  1
  Zn  Zn100  1  0.75021058  0.12475540  0.87358128  1
  Zn  Zn101  1  0.74973957  0.37924622  0.12347380  1
  Zn  Zn102  1  0.24855514  0.49671478  0.74952206  1
  Zn  Zn103  1  0.62589571  0.12208734  0.49937050  1
  Zn  Zn104  1  0.87630305  0.62506248  0.24867917  1
  Zn  Zn105  1  0.24991616  0.25004845  0.00041884  1
  Zn  Zn106  1  0.50190735  -0.00235038  0.49908288  1
  Zn  Zn107  1  0.25028862  0.87497617  0.12453963  1
  Zn  Zn108  1  0.74966301  0.75151263  0.49844538  1
  Zn  Zn109  1  0.37276764  0.37374282  0.50106725  1
  Zn  Zn110  1  0.24969292  -0.00111115  0.75106341  1
  Zn  Zn111  1  0.12742901  0.37592989  0.75002488  1
  Zn  Zn112  1  0.87509875  0.37550140  0.49979604  1
  Zn  Zn113  1  -0.00031870  0.62636707  0.62381314  1
  Zn  Zn114  1  0.87411630  0.12590825  0.75248467  1
  Zn  Zn115  1  0.62469977  0.87372016  0.24858573  1
  Zn  Zn116  1  -0.00092607  0.24795488  0.25036801  1
  Zn  Zn117  1  0.75090204  0.49987472  0.24670145  1
  Zn  Zn118  1  0.62499243  0.25028744  0.87463482  1
  Zn  Zn119  1  0.75001514  0.62449700  0.87622568  1
  Zn  Zn120  1  0.50167533  0.37266672  0.87570040  1
  Zn  Zn121  1  0.87373698  0.50200861  0.87587391  1
  Zn  Zn122  1  0.62718476  0.50054405  0.12509434  1
  Zn  Zn123  1  0.49960222  0.75004697  0.74866739  1
  Zn  Zn124  1  0.75021601  0.75065151  0.00209988  1
  Zn  Zn125  1  0.24953895  0.25230779  0.50106628  1
  Zn  Zn126  1  0.87727247  0.12619714  0.24834129  1
  Zn  Zn127  1  -0.00069075  0.62384879  0.12660626  1
  Zn  Zn128  1  0.18746381  0.18751003  0.18860537  1
  Zn  Zn129  1  0.18733317  0.18642578  0.69102405  1
  Zn  Zn130  1  0.18755963  0.68737183  0.18583800  1
  Zn  Zn131  1  0.18768116  0.68601311  0.68701900  1
  Zn  Zn132  1  0.68960131  0.18797732  0.18601453  1
  Zn  Zn133  1  0.68877602  0.18658554  0.68834846  1
  Zn  Zn134  1  0.68776598  0.68740150  0.18738821  1
  Zn  Zn135  1  0.68827005  0.68882435  0.68646280  1
  Zn  Zn136  1  0.31148729  0.31181598  0.31353122  1
  Zn  Zn137  1  0.31013392  0.31278339  0.80979317  1
  Zn  Zn138  1  0.31270947  0.81291068  0.31149501  1
  Zn  Zn139  1  0.31107563  0.81116527  0.81258821  1
  Zn  Zn140  1  0.81225972  0.31250255  0.31262219  1
  Zn  Zn141  1  0.81393088  0.31459522  0.81218124  1
  Zn  Zn142  1  0.81288176  0.81381856  0.31165773  1
  Zn  Zn143  1  0.81086657  0.81358481  0.81293975  1
  Zn  Zn144  1  0.18900953  0.43519426  0.44176626  1
  Zn  Zn145  1  0.18841558  0.43625104  0.93836375  1
  Zn  Zn146  1  0.18772060  0.93938313  0.43829059  1
  Zn  Zn147  1  0.18868107  0.93690480  0.93809196  1
  Zn  Zn148  1  0.68771166  0.43629129  0.43701089  1
  Zn  Zn149  1  0.68859121  0.43794427  0.93373011  1
  Zn  Zn150  1  0.68625036  0.93760973  0.43692797  1
  Zn  Zn151  1  0.68948116  0.93646476  0.93862860  1
  Zn  Zn152  1  0.31149999  0.06276575  0.06265170  1
  Zn  Zn153  1  0.31195047  0.06179445  0.56196235  1
  Zn  Zn154  1  0.31094360  0.56220043  0.06147470  1
  Zn  Zn155  1  0.31072211  0.56216627  0.56134478  1
  Zn  Zn156  1  0.81290863  0.06451694  0.06148079  1
  Zn  Zn157  1  0.81276848  0.06442159  0.56345450  1
  Zn  Zn158  1  0.81121148  0.56258910  0.06422950  1
  Zn  Zn159  1  0.81241744  0.56377937  0.56121529  1
  Zn  Zn160  1  0.43959932  0.43725629  0.18800095  1
  Zn  Zn161  1  0.43888577  0.43520623  0.68775842  1
  Zn  Zn162  1  0.43767890  0.93648539  0.18742689  1
  Zn  Zn163  1  0.43728468  0.93711129  0.68886792  1
  Zn  Zn164  1  0.93800240  0.43499853  0.18692588  1
  Zn  Zn165  1  0.93940211  0.43794741  0.68700044  1
  Zn  Zn166  1  0.93801203  0.93739876  0.18680875  1
  Zn  Zn167  1  0.93720598  0.93827536  0.68808433  1
  Zn  Zn168  1  0.06169698  0.06602234  0.31014415  1
  Zn  Zn169  1  0.06182028  0.06320294  0.81283640  1
  Zn  Zn170  1  0.06159917  0.56351779  0.31163571  1
  Zn  Zn171  1  0.05974729  0.56350188  0.81260581  1
  Zn  Zn172  1  0.56395155  0.06131151  0.31269831  1
  Zn  Zn173  1  0.56458537  0.06347006  0.81345240  1
  Zn  Zn174  1  0.56172249  0.56128392  0.31286175  1
  Zn  Zn175  1  0.56015336  0.56099255  0.81180788  1
  Zn  Zn176  1  0.43817359  0.18632011  0.43948939  1
  Zn  Zn177  1  0.43776119  0.18858097  0.93777203  1
  Zn  Zn178  1  0.43741515  0.68665374  0.43757358  1
  Zn  Zn179  1  0.43885514  0.68680515  0.93604602  1
  Zn  Zn180  1  0.93671279  0.18863850  0.43811565  1
  Zn  Zn181  1  0.93784143  0.18633280  0.93732662  1
  Zn  Zn182  1  0.93724360  0.68860369  0.43713088  1
  Zn  Zn183  1  0.93888863  0.68695198  0.93834223  1
  Zn  Zn184  1  0.06211202  0.31264201  0.06100591  1
  Zn  Zn185  1  0.06124594  0.31478446  0.56105243  1
  Zn  Zn186  1  0.06239672  0.81313928  0.06372449  1
  Zn  Zn187  1  0.06080083  0.81362189  0.56296472  1
  Zn  Zn188  1  0.56198174  0.31271422  0.06313371  1
  Zn  Zn189  1  0.56291269  0.31081721  0.56293954  1
  Zn  Zn190  1  0.56170981  0.81291440  0.06314275  1
  Zn  Zn191  1  0.56207990  0.81067099  0.56095574  1
  O  O192  1  0.12561985  0.11863647  0.11824538  1
  O  O193  1  0.11920189  0.11978581  0.62052707  1
  O  O194  1  0.12392829  0.61755175  0.11876744  1
  O  O195  1  0.12255145  0.61875661  0.61766186  1
  O  O196  1  0.61882268  0.11991637  0.11958884  1
  O  O197  1  0.61526874  0.11862997  0.62613002  1
  O  O198  1  0.61814430  0.62654335  0.11471816  1
  O  O199  1  0.61997950  0.61979678  0.61947026  1
  O  O200  1  0.38182513  0.38081410  0.37518777  1
  O  O201  1  0.37654886  0.38356882  0.88006728  1
  O  O202  1  0.37971267  0.87902761  0.38011531  1
  O  O203  1  0.38047150  0.87912703  0.88034426  1
  O  O204  1  0.87977797  0.38495901  0.37600813  1
  O  O205  1  0.88296005  0.37753287  0.88147401  1
  O  O206  1  0.88128331  0.88190809  0.38017595  1
  O  O207  1  0.88128813  0.87873568  0.88088647  1
  O  O208  1  0.25572427  0.00562376  0.36951476  1
  O  O209  1  0.25740069  0.00583568  0.87454422  1
  O  O210  1  0.25463350  0.50562450  0.37017912  1
  O  O211  1  0.26325728  0.50209759  0.87442684  1
  O  O212  1  0.75456472  0.00505749  0.36750728  1
  O  O213  1  0.75700607  -0.00134012  0.86873051  1
  O  O214  1  0.75790110  0.50777142  0.37462055  1
  O  O215  1  0.75321007  0.50445745  0.86459565  1
  O  O216  1  0.24529933  0.49434151  0.13166293  1
  O  O217  1  0.23690971  0.50128948  0.62449768  1
  O  O218  1  0.24445603  0.99828008  0.13223985  1
  O  O219  1  0.24277730  0.99286786  0.62641772  1
  O  O220  1  0.74509150  0.49688974  0.13003824  1
  O  O221  1  0.74413596  0.49536711  0.62859423  1
  O  O222  1  0.74531016  1.00092063  0.13382499  1
  O  O223  1  0.74530269  0.99426963  0.63080909  1
  O  O224  1  0.00775320  0.37318149  0.25735503  1
  O  O225  1  0.00245362  0.36906405  0.75691714  1
  O  O226  1  0.00684397  0.87115487  0.25663700  1
  O  O227  1  0.00504992  0.86953015  0.75594483  1
  O  O228  1  0.50717387  0.36865033  0.25671937  1
  O  O229  1  0.50802106  0.36705392  0.74934218  1
  O  O230  1  0.49967472  0.86701676  0.25670506  1
  O  O231  1  0.50648854  0.87297677  0.75708404  1
  O  O232  1  0.49506943  0.12972020  0.24534959  1
  O  O233  1  0.49573263  0.12877610  0.74161752  1
  O  O234  1  0.49393370  0.62947841  0.24508434  1
  O  O235  1  0.48907394  0.62490778  0.74292760  1
  O  O236  1  0.99539892  0.12997144  0.24493132  1
  O  O237  1  0.99851325  0.13225967  0.74354766  1
  O  O238  1  0.99821892  0.63499685  0.24838470  1
  O  O239  1  0.98895601  0.63244663  0.74814158  1
  O  O240  1  0.37483621  0.25653505  0.00805779  1
  O  O241  1  0.37490950  0.24859373  0.51248684  1
  O  O242  1  0.37121441  0.75367654  0.00398672  1
  O  O243  1  0.36840764  0.75396196  0.50504947  1
  O  O244  1  0.86818045  0.25562274  0.00571122  1
  O  O245  1  0.86818814  0.25284053  0.50712890  1
  O  O246  1  0.87554149  0.75494966  0.00926440  1
  O  O247  1  0.87440039  0.75822018  0.50551026  1
  O  O248  1  0.12530761  0.24306997  0.49424633  1
  O  O249  1  0.12651375  0.24314787  0.99338839  1
  O  O250  1  0.12964957  0.74711063  0.49407571  1
  O  O251  1  0.12934501  0.74538375  0.99521421  1
  O  O252  1  0.63159642  0.24746858  0.49372809  1
  O  O253  1  0.63386353  0.24577776  1.00095783  1
  O  O254  1  0.62603340  0.74175628  0.49223545  1
  O  O255  1  0.62302606  0.74137969  0.99203720  1
  O  O256  1  0.49450712  0.24389551  0.13191793  1
  O  O257  1  0.49401626  0.23999564  0.63064385  1
  O  O258  1  0.49348501  0.74373932  0.12994095  1
  O  O259  1  0.49275110  0.74171676  0.62547285  1
  O  O260  1  0.98837406  0.25004137  0.12450948  1
  O  O261  1  0.99535517  0.24607478  0.62988930  1
  O  O262  1  0.99123863  0.75006054  0.13122772  1
  O  O263  1  0.99272975  0.75052951  0.63189442  1
  O  O264  1  0.00597676  0.25761880  0.37488681  1
  O  O265  1  0.00515258  0.25564173  0.87033050  1
  O  O266  1  0.00596391  0.75777657  0.37049796  1
  O  O267  1  0.00564634  0.75619238  0.86951370  1
  O  O268  1  0.50496153  0.25328390  0.37050095  1
  O  O269  1  0.50148951  0.25118723  0.86524820  1
  O  O270  1  0.50395928  0.75318975  0.36911258  1
  O  O271  1  0.51006577  0.75591786  0.87387424  1
  O  O272  1  0.24271269  0.12551608  0.49356906  1
  O  O273  1  0.24395903  0.12665336  0.99347129  1
  O  O274  1  0.24434193  0.63185980  0.49329032  1
  O  O275  1  0.24327568  0.63118347  0.99790750  1
  O  O276  1  0.74825522  0.13152672  0.49369918  1
  O  O277  1  0.74384139  0.13480183  0.99894185  1
  O  O278  1  0.74364365  0.62607279  0.48865641  1
  O  O279  1  0.73728235  0.62803740  0.99780240  1
  O  O280  1  0.25784570  0.37374515  0.00848815  1
  O  O281  1  0.25527989  0.36974900  0.50684207  1
  O  O282  1  0.25739430  0.86732796  0.00118789  1
  O  O283  1  0.25482050  0.86934395  0.50499172  1
  O  O284  1  0.75515732  0.36718739  -0.00036722  1
  O  O285  1  0.75053923  0.36835332  0.50662400  1
  O  O286  1  0.75894662  0.87154403  0.00375176  1
  O  O287  1  0.75738459  0.87499967  0.50551913  1
  O  O288  1  0.13086082  0.49479449  0.24565081  1
  O  O289  1  0.12479665  0.50278510  0.73866481  1
  O  O290  1  0.13067287  0.99580087  0.24559084  1
  O  O291  1  0.12499472  0.99222787  0.74405270  1
  O  O292  1  0.62410214  0.48799707  0.25047291  1
  O  O293  1  0.62953580  0.49624298  0.74289595  1
  O  O294  1  0.63422884  0.99917878  0.24393293  1
  O  O295  1  0.63060362  0.99306416  0.74517110  1
  O  O296  1  0.37033601  0.00546395  0.25532240  1
  O  O297  1  0.37401784  0.00537920  0.75799139  1
  O  O298  1  0.36994271  0.50520079  0.25579701  1
  O  O299  1  0.37605731  0.50687901  0.75702081  1
  O  O300  1  0.86625000  0.00077976  0.25517697  1
  O  O301  1  0.86909694  -0.00082852  0.75734957  1
  O  O302  1  0.87492446  0.50194940  0.26242001  1
  O  O303  1  0.87025423  0.51120251  0.74836608  1
  O  O304  1  0.12068310  0.37080153  0.37037829  1
  O  O305  1  0.11872250  0.36860032  0.87525122  1
  O  O306  1  0.12019641  0.87099087  0.37020811  1
  O  O307  1  0.11962239  0.86900301  0.86998961  1
  O  O308  1  0.61903038  0.36861443  0.36795977  1
  O  O309  1  0.62192569  0.37274562  0.86533867  1
  O  O310  1  0.61808097  0.86732165  0.37336437  1
  O  O311  1  0.61955536  0.86766760  0.87115049  1
  O  O312  1  0.38069035  0.12980625  0.13146540  1
  O  O313  1  0.38317604  0.12875198  0.63065551  1
  O  O314  1  0.37979202  0.62950317  0.13024915  1
  O  O315  1  0.37928453  0.62848730  0.63137280  1
  O  O316  1  0.87669013  0.13771419  0.12401653  1
  O  O317  1  0.88274005  0.13226118  0.62685951  1
  O  O318  1  0.87695356  0.63674979  0.12742296  1
  O  O319  1  0.87522323  0.63200274  0.63338735  1
  O  O320  1  0.25755099  0.25679018  0.12557707  1
  O  O321  1  0.26300226  0.24573700  0.62559971  1
  O  O322  1  0.25740453  0.75127960  0.11827064  1
  O  O323  1  0.25499521  0.75516248  0.61863399  1
  O  O324  1  0.75774244  0.25244668  0.11365473  1
  O  O325  1  0.75524462  0.25523784  0.62039561  1
  O  O326  1  0.76163448  0.75239521  0.12596441  1
  O  O327  1  0.75586669  0.75806508  0.62176435  1
  O  O328  1  0.24358458  0.24242968  0.37631245  1
  O  O329  1  0.24401084  0.24287344  0.87674140  1
  O  O330  1  0.24476439  0.74496365  0.37974533  1
  O  O331  1  0.24307312  0.74727596  0.88149668  1
  O  O332  1  0.74546345  0.24465585  0.38031886  1
  O  O333  1  0.75065193  0.24905436  0.88730620  1
  O  O334  1  0.74485178  0.74122098  0.37514843  1
  O  O335  1  0.73567426  0.74924051  0.87679896  1
  O  O336  1  0.00807911  0.11726575  0.00086485  1
  O  O337  1  0.00553593  0.12000221  0.50606672  1
  O  O338  1  0.00750420  0.61826098  0.00184404  1
  O  O339  1  0.00666920  0.62009070  0.49961471  1
  O  O340  1  0.50483533  0.11977321  0.00655401  1
  O  O341  1  0.50171510  0.12174200  0.51333262  1
  O  O342  1  0.50683088  0.62011989  0.00463250  1
  O  O343  1  0.50488523  0.61797238  0.50447892  1
  O  O344  1  0.49926232  0.38063351  0.49417380  1
  O  O345  1  0.49329532  0.38168798  0.99938071  1
  O  O346  1  0.49210501  0.87431133  0.49290781  1
  O  O347  1  0.49446654  0.88098783  0.99428583  1
  O  O348  1  0.99782354  0.38417861  0.49144597  1
  O  O349  1  0.99498792  0.38108243  0.99363804  1
  O  O350  1  0.99515231  0.88241145  0.49425477  1
  O  O351  1  0.99518978  0.88037555  0.99411001  1
  O  O352  1  0.49415325  0.49451631  0.38070174  1
  O  O353  1  0.48846111  0.49844836  0.88062299  1
  O  O354  1  0.49351373  0.99324423  0.37551608  1
  O  O355  1  0.49494313  0.99504305  0.88137904  1
  O  O356  1  0.99271685  0.49638592  0.37899859  1
  O  O357  1  0.99803059  0.49385664  0.88201496  1
  O  O358  1  0.99530981  0.99627815  0.38027960  1
  O  O359  1  0.99532850  0.99308752  0.88093172  1
  O  O360  1  0.00719401  0.00059293  0.11792421  1
  O  O361  1  0.00497375  0.00527168  0.61942306  1
  O  O362  1  0.00708456  0.50008345  0.11853397  1
  O  O363  1  0.00816100  0.50342431  0.61752434  1
  O  O364  1  0.50491810  0.00593958  0.12025969  1
  O  O365  1  0.50501217  0.00804317  0.62592146  1
  O  O366  1  0.50138421  0.50757519  0.11838877  1
  O  O367  1  0.50570080  0.50475567  0.61943647  1
  O  O368  1  0.24498822  0.38134651  0.24555636  1
  O  O369  1  0.24537386  0.37927165  0.74338478  1
  O  O370  1  0.24420534  0.88188206  0.24918664  1
  O  O371  1  0.24287815  0.87500404  0.74317049  1
  O  O372  1  0.73675133  0.37548929  0.25065613  1
  O  O373  1  0.74521431  0.38131574  0.74325593  1
  O  O374  1  0.74792216  0.88866949  0.24967568  1
  O  O375  1  0.74352995  0.88020124  0.74354326  1
  O  O376  1  0.25633656  0.11925968  0.25664101  1
  O  O377  1  0.25709724  0.12125341  0.75812121  1
  O  O378  1  0.25530072  0.61942922  0.25529700  1
  O  O379  1  0.26334762  0.62194588  0.75069538  1
  O  O380  1  0.75124173  0.11494615  0.25546468  1
  O  O381  1  0.75284914  0.11594436  0.75232948  1
  O  O382  1  0.75061902  0.62251699  0.26319251  1
  O  O383  1  0.75826774  0.62080258  0.74910915  1
  O  O384  1  0.37098154  0.11935933  0.37007346  1
  O  O385  1  0.37082553  0.11926919  0.87137496  1
  O  O386  1  0.36927441  0.61924197  0.36945790  1
  O  O387  1  0.37582720  0.61644960  0.86629556  1
  O  O388  1  0.86810129  0.11881850  0.37372337  1
  O  O389  1  0.87310749  0.11499790  0.87370453  1
  O  O390  1  0.86639069  0.61828341  0.37446342  1
  O  O391  1  0.87224500  0.62734115  0.86227127  1
  O  O392  1  0.13093047  0.38026809  0.13018305  1
  O  O393  1  0.12363187  0.38833556  0.62542525  1
  O  O394  1  0.12709046  0.88206406  0.13207870  1
  O  O395  1  0.12955966  0.87995673  0.62985255  1
  O  O396  1  0.62414353  0.37562089  0.13761428  1
  O  O397  1  0.63085402  0.38099473  0.63017479  1
  O  O398  1  0.62653456  0.88281140  0.12741202  1
  O  O399  1  0.62920957  0.87846764  0.63013986  1
  O  O400  1  0.12462265  0.25728486  0.25729978  1
  O  O401  1  0.11722096  0.25066452  0.75749408  1
  O  O402  1  0.12131532  0.75631768  0.25547654  1
  O  O403  1  0.11940875  0.75434655  0.75472846  1
  O  O404  1  0.61998533  0.25650898  0.25536769  1
  O  O405  1  0.61957473  0.25621326  0.74960827  1
  O  O406  1  0.61701047  0.75000923  0.25574783  1
  O  O407  1  0.62265484  0.75458990  0.75842140  1
  O  O408  1  0.38119236  0.24408815  0.24579788  1
  O  O409  1  0.38187952  0.24273099  0.74237273  1
  O  O410  1  0.37923860  0.74307416  0.24474143  1
  O  O411  1  0.37634621  0.74027551  0.74461980  1
  O  O412  1  0.87355467  0.25037023  0.23733522  1
  O  O413  1  0.88187327  0.24940675  0.74325481  1
  O  O414  1  0.88191687  0.75146836  0.24219973  1
  O  O415  1  0.87836428  0.74476416  0.74449938  1
  O  O416  1  0.38165509  0.49961096  0.49386479  1
  O  O417  1  0.37967503  0.49595862  0.99243777  1
  O  O418  1  0.37610694  0.99215030  0.49334264  1
  O  O419  1  0.38137019  0.99470851  0.99574553  1
  O  O420  1  0.88027848  0.50070418  0.48885183  1
  O  O421  1  0.88148434  0.49525577  0.99922014  1
  O  O422  1  0.88073168  0.99559639  0.49448528  1
  O  O423  1  0.88089739  0.99395449  0.99601581  1
  O  O424  1  0.12046158  0.00419376  0.00489449  1
  O  O425  1  0.11868191  0.00570308  0.50585452  1
  O  O426  1  0.12076732  0.50466959  0.00566498  1
  O  O427  1  0.11981065  0.50721390  0.50570482  1
  O  O428  1  0.61952753  0.00505850  0.00522742  1
  O  O429  1  0.62207247  0.00165983  0.50902466  1
  O  O430  1  0.61848070  0.51032371  -0.00226377  1
  O  O431  1  0.61930582  0.50490227  0.50468708  1
  O  O432  1  0.37061950  0.37034935  0.12156178  1
  O  O433  1  0.37721428  0.36088982  0.62465790  1
  O  O434  1  0.37486713  0.86769377  0.11781168  1
  O  O435  1  0.36999108  0.86899140  0.62044043  1
  O  O436  1  0.87334667  0.36637724  0.11743071  1
  O  O437  1  0.86839540  0.36991933  0.62308918  1
  O  O438  1  0.87516490  0.86540198  0.11943176  1
  O  O439  1  0.86982419  0.87143355  0.61956324  1
  O  O440  1  0.12997635  0.13001668  0.38075306  1
  O  O441  1  0.13038734  0.12950722  0.88058892  1
  O  O442  1  0.13094627  0.63163472  0.37959125  1
  O  O443  1  0.12607393  0.63150391  0.88082618  1
  O  O444  1  0.63129502  0.13116556  0.37611966  1
  O  O445  1  0.62777295  0.12800726  0.88392920  1
  O  O446  1  0.63152060  0.62864011  0.37928194  1
  O  O447  1  0.62188917  0.63301152  0.88232045  1
