# generated using pymatgen
data_V3Zn3O8
_symmetry_space_group_name_H-M   'P 1'
_cell_length_a   17.08497676
_cell_length_b   17.08671337
_cell_length_c   17.08635765
_cell_angle_alpha   90.00880935
_cell_angle_beta   90.00506020
_cell_angle_gamma   90.01274473
_symmetry_Int_Tables_number   1
_chemical_formula_structural   V3Zn3O8
_chemical_formula_sum   'V96 Zn96 O256'
_cell_volume   4987.95356341
_cell_formula_units_Z   32
loop_
 _symmetry_equiv_pos_site_id
 _symmetry_equiv_pos_as_xyz
  1  'x, y, z'
loop_
 _atom_site_type_symbol
 _atom_site_label
 _atom_site_symmetry_multiplicity
 _atom_site_fract_x
 _atom_site_fract_y
 _atom_site_fract_z
 _atom_site_occupancy
  V  V0  1  0.87477798  0.37446430  0.00010708  1
  V  V1  1  0.74977308  0.12360926  0.37623923  1
  V  V2  1  0.49911491  0.87531317  0.87476850  1
  V  V3  1  0.50039956  0.75191251  0.25054660  1
  V  V4  1  0.87469614  0.24858637  0.12540193  1
  V  V5  1  0.37545037  0.00084497  0.37408630  1
  V  V6  1  0.62569880  0.74930378  0.87611212  1
  V  V7  1  -0.00067602  0.62438262  0.12481997  1
  V  V8  1  0.37532137  0.87575342  -0.00170849  1
  V  V9  1  0.24952979  0.62561198  0.87557779  1
  V  V10  1  0.87493633  0.37486068  0.50058327  1
  V  V11  1  0.49944332  0.62538635  0.62551524  1
  V  V12  1  0.62497326  0.24909369  0.37556876  1
  V  V13  1  0.75003379  0.50016703  0.75043624  1
  V  V14  1  0.12478609  0.37536580  0.75054938  1
  V  V15  1  -0.00058170  0.12515475  0.12509522  1
  V  V16  1  0.12467554  0.25062447  0.87574384  1
  V  V17  1  0.12476453  0.50098390  0.62482202  1
  V  V18  1  0.74899198  0.37439072  0.12591447  1
  V  V19  1  -0.00043087  0.24857514  0.24952111  1
  V  V20  1  0.24980329  0.00112931  0.74889923  1
  V  V21  1  0.75202546  0.75067550  0.50383381  1
  V  V22  1  0.62492432  0.87584147  0.75040419  1
  V  V23  1  0.37415584  0.12618296  0.75074940  1
  V  V24  1  0.25016874  0.12530547  0.87434609  1
  V  V25  1  -0.00050267  0.37587478  0.87474282  1
  V  V26  1  0.25046700  0.75038033  0.49924318  1
  V  V27  1  0.24958332  0.49945583  0.24992215  1
  V  V28  1  0.25008706  0.25023639  0.49969869  1
  V  V29  1  0.62465563  -0.00023871  0.62556694  1
  V  V30  1  -0.00025518  0.50042362  0.00091985  1
  V  V31  1  0.87552133  -0.00022642  0.87546252  1
  V  V32  1  0.12598719  0.00039263  0.62423986  1
  V  V33  1  0.87546003  0.12488416  0.74953759  1
  V  V34  1  0.37542063  0.50038273  0.87624201  1
  V  V35  1  0.50147530  0.37363938  0.37499668  1
  V  V36  1  0.12314980  0.75181849  0.87245721  1
  V  V37  1  -0.00062242  0.24982956  0.74957152  1
  V  V38  1  0.49922432  0.75002607  0.74941053  1
  V  V39  1  0.00098143  -0.00003803  0.49861975  1
  V  V40  1  0.37520705  0.87563160  0.49906345  1
  V  V41  1  0.00060389  0.74972351  0.25054731  1
  V  V42  1  0.12564771  -0.00056765  0.12450146  1
  V  V43  1  0.87407469  0.62451417  0.25014906  1
  V  V44  1  0.62641188  -0.00216281  0.12631081  1
  V  V45  1  0.87493264  -0.00093792  0.37444618  1
  V  V46  1  0.24980258  0.37536452  0.62576762  1
  V  V47  1  -0.00025800  -0.00019294  -0.00030699  1
  V  V48  1  0.75140936  0.37425161  0.62463838  1
  V  V49  1  0.49928288  0.50069896  0.00058381  1
  V  V50  1  0.12454275  0.50054022  0.12510545  1
  V  V51  1  0.49850423  0.12706410  0.12544783  1
  V  V52  1  0.24948969  0.62516588  0.37590773  1
  V  V53  1  0.50006860  -0.00007174  0.50007604  1
  V  V54  1  0.00076382  0.87437954  0.37488336  1
  V  V55  1  0.62505594  0.25064870  0.87446305  1
  V  V56  1  0.37447812  0.37596622  0.00074232  1
  V  V57  1  0.37533578  0.62558887  0.74985017  1
  V  V58  1  0.25103026  0.00008678  0.24903187  1
  V  V59  1  0.12518687  0.12547623  0.49937305  1
  V  V60  1  0.25001547  0.87587075  0.62441199  1
  V  V61  1  0.62521444  0.37485762  0.75051690  1
  V  V62  1  0.50059930  0.25119072  0.75038982  1
  V  V63  1  0.00018438  0.62623812  0.62484545  1
  V  V64  1  -0.00005190  0.12550732  0.62490270  1
  V  V65  1  0.62362819  0.74975219  0.37478643  1
  V  V66  1  0.74987943  0.12493331  0.87463801  1
  V  V67  1  0.24925127  0.74976372  0.00003822  1
  V  V68  1  0.12545989  0.74947809  0.37433726  1
  V  V69  1  0.12502419  0.24986500  0.37418615  1
  V  V70  1  0.25061027  0.25095643  0.00138929  1
  V  V71  1  -0.00045526  0.37539670  0.37498022  1
  V  V72  1  0.37507266  0.37531860  0.50045123  1
  V  V73  1  0.37505796  0.49927796  0.37538240  1
  V  V74  1  0.75171362  0.62211677  0.37431422  1
  V  V75  1  0.37535753  0.25072069  0.62562016  1
  V  V76  1  0.12529453  0.12511912  -0.00022624  1
  V  V77  1  0.62482299  0.12474334  0.00012608  1
  V  V78  1  0.50014616  0.50025438  0.50001934  1
  V  V79  1  0.87434660  0.75086768  0.12466579  1
  V  V80  1  0.74941383  0.62643235  0.87566204  1
  V  V81  1  0.24970398  0.37556405  0.12541049  1
  V  V82  1  0.87578893  0.62670030  0.74900020  1
  V  V83  1  0.75001978  0.24934364  0.00028040  1
  V  V84  1  0.50012578  0.62428019  0.12542683  1
  V  V85  1  0.62523163  0.49946856  0.62574422  1
  V  V86  1  0.50050798  0.12474877  0.62521713  1
  V  V87  1  0.37522712  0.62482722  0.25033393  1
  V  V88  1  0.24979749  0.87504074  0.12416944  1
  V  V89  1  0.87464914  0.50059072  0.87499638  1
  V  V90  1  0.25093731  0.12460661  0.37377257  1
  V  V91  1  0.74936419  -0.00028358  0.74945830  1
  V  V92  1  0.62603495  0.49902820  0.12614129  1
  V  V93  1  0.25054491  0.50021813  0.75086421  1
  V  V94  1  0.62489647  0.62442565  0.50062873  1
  V  V95  1  0.87348956  0.87417624  0.00073962  1
  Zn  Zn96  1  0.37428933  0.74954593  0.12538638  1
  Zn  Zn97  1  0.87388189  0.24905829  0.62474399  1
  Zn  Zn98  1  0.62602780  0.62677540  0.00051406  1
  Zn  Zn99  1  0.37432222  0.75056044  0.62426117  1
  Zn  Zn100  1  0.00184678  0.50120784  0.49814685  1
  Zn  Zn101  1  0.75225562  0.87521082  0.62583712  1
  Zn  Zn102  1  0.50035287  0.37594656  0.87576589  1
  Zn  Zn103  1  0.74759505  0.74937203  0.00253253  1
  Zn  Zn104  1  0.12416062  0.62574559  -0.00042966  1
  Zn  Zn105  1  0.87364764  0.12324788  0.24914313  1
  Zn  Zn106  1  0.87744363  0.75423376  0.62704239  1
  Zn  Zn107  1  0.75122337  0.49672802  0.25070335  1
  Zn  Zn108  1  0.75046137  0.24831883  0.50221024  1
  Zn  Zn109  1  0.49744916  0.25143446  0.24984156  1
  Zn  Zn110  1  0.62571995  0.12390165  0.50143436  1
  Zn  Zn111  1  0.12311802  0.87657753  0.74903040  1
  Zn  Zn112  1  0.74889943  -0.00428055  0.25198930  1
  Zn  Zn113  1  0.12458474  0.62399335  0.50025279  1
  Zn  Zn114  1  0.62664794  0.87521964  0.25097920  1
  Zn  Zn115  1  0.12595087  0.87428848  0.24838749  1
  Zn  Zn116  1  0.00023878  0.87534396  0.87129030  1
  Zn  Zn117  1  0.49955205  0.00086455  -0.00210172  1
  Zn  Zn118  1  0.50135444  0.87753380  0.37425367  1
  Zn  Zn119  1  0.37539975  0.12676291  0.24836887  1
  Zn  Zn120  1  0.87589385  0.87373180  0.50280637  1
  Zn  Zn121  1  0.37592599  0.00120155  0.87347089  1
  Zn  Zn122  1  -0.00151168  0.75469095  0.74884821  1
  Zn  Zn123  1  0.37509930  0.25039330  0.12708254  1
  Zn  Zn124  1  0.87663456  0.49902483  0.37291618  1
  Zn  Zn125  1  0.12501394  0.37500206  0.24991007  1
  Zn  Zn126  1  0.62545386  0.37354418  0.25079028  1
  Zn  Zn127  1  0.74900190  0.87316340  0.12892791  1
  Zn  Zn128  1  0.18711628  0.18772606  0.18797631  1
  Zn  Zn129  1  0.18642741  0.18780922  0.68746414  1
  Zn  Zn130  1  0.18649757  0.68740885  0.18708259  1
  Zn  Zn131  1  0.18748209  0.68910526  0.68692532  1
  Zn  Zn132  1  0.68666670  0.18466192  0.19113570  1
  Zn  Zn133  1  0.68812251  0.18752061  0.68688781  1
  Zn  Zn134  1  0.68776072  0.68740178  0.18698875  1
  Zn  Zn135  1  0.68652501  0.68752522  0.68904975  1
  Zn  Zn136  1  0.31432367  0.31157670  0.30995660  1
  Zn  Zn137  1  0.31309789  0.31328393  0.81450879  1
  Zn  Zn138  1  0.31360978  0.81412155  0.31214444  1
  Zn  Zn139  1  0.31079182  0.81300570  0.81146674  1
  Zn  Zn140  1  0.81166077  0.31050160  0.31133416  1
  Zn  Zn141  1  0.81244242  0.31205431  0.81186388  1
  Zn  Zn142  1  0.81161735  0.81305461  0.31259060  1
  Zn  Zn143  1  0.81219780  0.81232951  0.81317008  1
  Zn  Zn144  1  0.18617793  0.43809471  0.43820653  1
  Zn  Zn145  1  0.18703247  0.43859454  0.93926176  1
  Zn  Zn146  1  0.18749685  0.93629792  0.43582595  1
  Zn  Zn147  1  0.18844229  0.93741340  0.93599799  1
  Zn  Zn148  1  0.68768340  0.43572107  0.43922413  1
  Zn  Zn149  1  0.68699793  0.43829005  0.93885751  1
  Zn  Zn150  1  0.68536762  0.93483752  0.43832409  1
  Zn  Zn151  1  0.68725049  0.93733288  0.93879379  1
  Zn  Zn152  1  0.31297921  0.06150497  0.06115613  1
  Zn  Zn153  1  0.31369931  0.06265224  0.56184508  1
  Zn  Zn154  1  0.31232794  0.56363971  0.06318085  1
  Zn  Zn155  1  0.31248920  0.56360197  0.56263999  1
  Zn  Zn156  1  0.81129785  0.06121029  0.06292069  1
  Zn  Zn157  1  0.81290053  0.06111746  0.56186434  1
  Zn  Zn158  1  0.81141502  0.56370021  0.06175258  1
  Zn  Zn159  1  0.81520744  0.56117406  0.56208556  1
  Zn  Zn160  1  0.43828503  0.43558882  0.18877530  1
  Zn  Zn161  1  0.43818194  0.43809274  0.68845754  1
  Zn  Zn162  1  0.43762713  0.93908216  0.18510940  1
  Zn  Zn163  1  0.43590165  0.93775538  0.68676386  1
  Zn  Zn164  1  0.93583025  0.43744857  0.18910097  1
  Zn  Zn165  1  0.93771954  0.43945149  0.68630160  1
  Zn  Zn166  1  0.93856101  0.93618959  0.18857104  1
  Zn  Zn167  1  0.93760100  0.93581876  0.68667571  1
  Zn  Zn168  1  0.06375488  0.06209343  0.31024768  1
  Zn  Zn169  1  0.06259828  0.06192629  0.81214631  1
  Zn  Zn170  1  0.06328353  0.56238508  0.31146620  1
  Zn  Zn171  1  0.06257932  0.56504724  0.81163627  1
  Zn  Zn172  1  0.56192405  0.06363442  0.31074665  1
  Zn  Zn173  1  0.56099099  0.06220452  0.81287743  1
  Zn  Zn174  1  0.56333947  0.56298202  0.31154848  1
  Zn  Zn175  1  0.56231385  0.56311211  0.81387348  1
  Zn  Zn176  1  0.43807168  0.18600613  0.43799935  1
  Zn  Zn177  1  0.43765247  0.18914941  0.93875686  1
  Zn  Zn178  1  0.43604172  0.68819665  0.43727153  1
  Zn  Zn179  1  0.43823222  0.68821298  0.93796450  1
  Zn  Zn180  1  0.93614770  0.18777037  0.43777428  1
  Zn  Zn181  1  0.93762000  0.18704865  0.93738631  1
  Zn  Zn182  1  0.93755129  0.68742993  0.43876563  1
  Zn  Zn183  1  0.93776023  0.68785460  0.93741747  1
  Zn  Zn184  1  0.06305678  0.31352893  0.06346746  1
  Zn  Zn185  1  0.06195775  0.31235879  0.56242509  1
  Zn  Zn186  1  0.06177344  0.81238348  0.06050472  1
  Zn  Zn187  1  0.06450705  0.81248387  0.56067899  1
  Zn  Zn188  1  0.56174462  0.31329035  0.06120341  1
  Zn  Zn189  1  0.56397531  0.31164036  0.56121425  1
  Zn  Zn190  1  0.56133145  0.81206797  0.06241258  1
  Zn  Zn191  1  0.56278772  0.81369870  0.56306829  1
  O  O192  1  0.11966480  0.11959346  0.11809449  1
  O  O193  1  0.12016117  0.12084596  0.61842026  1
  O  O194  1  0.11730275  0.61847233  0.12299937  1
  O  O195  1  0.11674952  0.61887615  0.62604162  1
  O  O196  1  0.61858919  0.11855486  0.11991385  1
  O  O197  1  0.61789073  0.11857986  0.62530820  1
  O  O198  1  0.61952865  0.61504672  0.12358780  1
  O  O199  1  0.61918180  0.61818967  0.62056751  1
  O  O200  1  0.38002565  0.38023550  0.38212331  1
  O  O201  1  0.37563094  0.38294124  0.88190607  1
  O  O202  1  0.37681198  0.88326043  0.38150872  1
  O  O203  1  0.37957205  0.87526186  0.88286008  1
  O  O204  1  0.88297178  0.37434245  0.38214955  1
  O  O205  1  0.87990441  0.38048261  0.88007463  1
  O  O206  1  0.88139629  0.88367630  0.37804704  1
  O  O207  1  0.87602710  0.88153464  0.88425052  1
  O  O208  1  0.25470274  0.00548708  0.36947710  1
  O  O209  1  0.25040205  0.00862804  0.86762096  1
  O  O210  1  0.25560312  0.50420594  0.37047181  1
  O  O211  1  0.25467497  0.50535817  0.86991788  1
  O  O212  1  0.75804304  0.00616944  0.37770965  1
  O  O213  1  0.75505317  0.00640105  0.86983635  1
  O  O214  1  0.74897613  0.51262781  0.37495549  1
  O  O215  1  0.75553269  0.50475631  0.86966821  1
  O  O216  1  0.24446122  0.49591340  0.13029277  1
  O  O217  1  0.24602701  0.49444214  0.63151161  1
  O  O218  1  0.24464328  0.99524655  0.12860885  1
  O  O219  1  0.24476300  0.99677264  0.62870051  1
  O  O220  1  0.74106458  0.49380402  0.12377578  1
  O  O221  1  0.74426727  0.49540749  0.63088775  1
  O  O222  1  0.73842225  1.00136559  0.12817579  1
  O  O223  1  0.74272905  1.00053410  0.63205648  1
  O  O224  1  -0.00026713  0.36790857  0.25977241  1
  O  O225  1  0.00515845  0.37068042  0.75555547  1
  O  O226  1  0.00218007  0.86707984  0.25668016  1
  O  O227  1  0.00490450  0.87279092  0.75332721  1
  O  O228  1  0.50362064  0.37299459  0.25994952  1
  O  O229  1  0.50710988  0.36913052  0.75110325  1
  O  O230  1  0.49983761  0.86194993  0.25009675  1
  O  O231  1  0.50427583  0.86964214  0.75478548  1
  O  O232  1  0.49852817  0.12694866  0.23703888  1
  O  O233  1  0.49411879  0.13182490  0.74492955  1
  O  O234  1  0.49455954  0.63171014  0.24597287  1
  O  O235  1  0.49495684  0.62966288  0.74486463  1
  O  O236  1  0.99901163  0.13101220  0.24244753  1
  O  O237  1  0.99512081  0.13018244  0.74499872  1
  O  O238  1  0.99375718  0.63003077  0.24474962  1
  O  O239  1  0.99376166  0.62562067  0.74065947  1
  O  O240  1  0.36738140  0.25781136  0.00149333  1
  O  O241  1  0.36968408  0.25592709  0.50620306  1
  O  O242  1  0.36875475  0.75999009  0.00025372  1
  O  O243  1  0.36859643  0.75708122  0.50041710  1
  O  O244  1  0.86975127  0.25511492  0.00482132  1
  O  O245  1  0.87423944  0.26260905  0.50229940  1
  O  O246  1  0.87576633  0.75982854  0.00517579  1
  O  O247  1  0.86303214  0.74946650  0.50193800  1
  O  O248  1  0.13099420  0.24492637  0.49486801  1
  O  O249  1  0.12961812  0.24507569  0.99439566  1
  O  O250  1  0.13318186  0.74741626  0.49177140  1
  O  O251  1  0.13089937  0.74849644  0.99031002  1
  O  O252  1  0.62777302  0.24688766  0.48874466  1
  O  O253  1  0.63154310  0.24521873  0.99399230  1
  O  O254  1  0.63142535  0.74277019  0.49559021  1
  O  O255  1  0.62625678  0.74830277  0.99172724  1
  O  O256  1  0.50116511  0.23906786  0.12525069  1
  O  O257  1  0.49475851  0.24575249  0.63028604  1
  O  O258  1  0.49945353  0.74296663  0.13489176  1
  O  O259  1  0.49916039  0.74265791  0.63139763  1
  O  O260  1  0.99482257  0.24501249  0.12871948  1
  O  O261  1  1.00023549  0.24332338  0.63247353  1
  O  O262  1  0.99497276  0.74405671  0.13014061  1
  O  O263  1  1.00110217  0.73795902  0.62568129  1
  O  O264  1  0.00479007  0.25654546  0.37036556  1
  O  O265  1  0.00526739  0.25603259  0.87020960  1
  O  O266  1  0.00499570  0.75395558  0.37034905  1
  O  O267  1  0.01182823  0.74970023  0.87388093  1
  O  O268  1  0.50893705  0.25470595  0.37722721  1
  O  O269  1  0.50731145  0.25173390  0.86819856  1
  O  O270  1  0.50542912  0.74807469  0.36562000  1
  O  O271  1  0.50541212  0.75497698  0.86828407  1
  O  O272  1  0.24477148  0.13126660  0.49473128  1
  O  O273  1  0.24419740  0.13049839  0.99465166  1
  O  O274  1  0.25041347  0.63161347  0.49306213  1
  O  O275  1  0.24957977  0.63163012  0.99309882  1
  O  O276  1  0.74897164  0.12631150  0.48867844  1
  O  O277  1  0.74535276  0.13086062  0.99382639  1
  O  O278  1  0.74527387  0.63009253  0.49344392  1
  O  O279  1  0.74835476  0.62706244  0.99016854  1
  O  O280  1  0.25455711  0.37086600  0.00538651  1
  O  O281  1  0.25560502  0.36985916  0.50592273  1
  O  O282  1  0.25758323  0.87009218  0.00383281  1
  O  O283  1  0.25573407  0.87049612  0.50426835  1
  O  O284  1  0.75584688  0.36862521  0.00488309  1
  O  O285  1  0.75951233  0.37448131  0.50594284  1
  O  O286  1  0.76359369  0.87509215  0.00279181  1
  O  O287  1  0.74961387  0.86101836  0.50081029  1
  O  O288  1  0.13203237  0.49817483  0.24326041  1
  O  O289  1  0.13128335  0.49397678  0.74604977  1
  O  O290  1  0.13211222  0.99798968  0.24199981  1
  O  O291  1  0.13240185  1.00235055  0.74163382  1
  O  O292  1  0.62677290  0.49878470  0.23714083  1
  O  O293  1  0.63014017  0.49486877  0.74503613  1
  O  O294  1  0.62413446  0.99779639  0.23863063  1
  O  O295  1  0.62985053  0.99542197  0.74578757  1
  O  O296  1  0.36871204  0.00228184  0.25567677  1
  O  O297  1  0.36779836  0.00904719  0.74993894  1
  O  O298  1  0.36994733  0.50505449  0.25674767  1
  O  O299  1  0.36980922  0.50498220  0.75586254  1
  O  O300  1  0.87557240  0.00143982  0.26363662  1
  O  O301  1  0.86958805  0.00629079  0.75602608  1
  O  O302  1  0.87107786  0.50865884  0.25215978  1
  O  O303  1  0.86918523  0.50493836  0.75614817  1
  O  O304  1  0.11539766  0.36835913  0.37532468  1
  O  O305  1  0.11932981  0.37057985  0.87013813  1
  O  O306  1  0.11878738  0.86789057  0.37209771  1
  O  O307  1  0.12421637  0.86453484  0.87401274  1
  O  O308  1  0.62053342  0.36606139  0.37632779  1
  O  O309  1  0.62526259  0.36873998  0.86835143  1
  O  O310  1  0.62041798  0.86480187  0.37270606  1
  O  O311  1  0.61926450  0.87000536  0.86998059  1
  O  O312  1  0.38681266  0.12511595  0.12227260  1
  O  O313  1  0.37974427  0.13231044  0.63064752  1
  O  O314  1  0.38165651  0.62613173  0.13294178  1
  O  O315  1  0.38199501  0.62532385  0.63197606  1
  O  O316  1  0.88134588  0.13071132  0.12497365  1
  O  O317  1  0.88208032  0.12556259  0.63130412  1
  O  O318  1  0.88007497  0.63053365  0.12992297  1
  O  O319  1  0.88464407  0.62369643  0.63111606  1
  O  O320  1  0.24880821  0.25691060  0.11776331  1
  O  O321  1  0.25496576  0.25591942  0.61997114  1
  O  O322  1  0.25116939  0.75620313  0.11850195  1
  O  O323  1  0.25129533  0.75686389  0.61772257  1
  O  O324  1  0.75407170  0.25312314  0.11964590  1
  O  O325  1  0.75255051  0.25811436  0.62323040  1
  O  O326  1  0.75862802  0.75103552  0.12245849  1
  O  O327  1  0.74952236  0.74780592  0.61379760  1
  O  O328  1  0.24507603  0.24565450  0.38093272  1
  O  O329  1  0.24332729  0.24565107  0.88054936  1
  O  O330  1  0.24563647  0.74472590  0.37863120  1
  O  O331  1  0.24264600  0.74502625  0.87976723  1
  O  O332  1  0.74301897  0.24098319  0.37675950  1
  O  O333  1  0.74518012  0.24436883  0.88009271  1
  O  O334  1  0.74496064  0.73932466  0.38341429  1
  O  O335  1  0.74281741  0.74352830  0.87585639  1
  O  O336  1  0.00581002  0.12042712  0.00530646  1
  O  O337  1  0.00611150  0.12071123  0.50433232  1
  O  O338  1  -0.00096356  0.61715360  0.00720586  1
  O  O339  1  0.00113160  0.62173179  0.51080600  1
  O  O340  1  0.50697035  0.12447547  0.00727663  1
  O  O341  1  0.50013847  0.11775201  0.50875991  1
  O  O342  1  0.50051872  0.61845954  0.00749267  1
  O  O343  1  0.50498143  0.61951614  0.50478039  1
  O  O344  1  0.49419465  0.38121093  0.49619944  1
  O  O345  1  0.49285804  0.38240960  0.99818495  1
  O  O346  1  0.49312500  0.88182228  0.49919551  1
  O  O347  1  0.48952460  0.87426239  0.99379685  1
  O  O348  1  0.99299553  0.37466097  0.49124215  1
  O  O349  1  0.99391291  0.37972582  0.99410879  1
  O  O350  1  0.99991954  0.88242581  0.49241422  1
  O  O351  1  0.98926680  0.88171305  0.99822938  1
  O  O352  1  0.49548745  0.49546745  0.38125239  1
  O  O353  1  0.49319590  0.49951567  0.88167667  1
  O  O354  1  0.49370325  1.00079536  0.38150056  1
  O  O355  1  0.49684611  0.99198996  0.87741950  1
  O  O356  1  0.99977855  0.48739783  0.37542311  1
  O  O357  1  0.99456693  0.49495244  0.87968245  1
  O  O358  1  0.99413229  0.99627829  0.37909021  1
  O  O359  1  0.99338748  1.00133919  0.88264283  1
  O  O360  1  0.00524867  0.00548375  0.11943366  1
  O  O361  1  0.00614221  0.00693891  0.61831503  1
  O  O362  1  0.00395151  0.50414855  0.12050403  1
  O  O363  1  0.00704834  0.50906636  0.62525549  1
  O  O364  1  0.50863393  0.00887628  0.12100259  1
  O  O365  1  0.50481056  0.00594337  0.62102180  1
  O  O366  1  0.50749538  0.50409101  0.12078260  1
  O  O367  1  0.50554432  0.50504762  0.61959700  1
  O  O368  1  0.24868692  0.38248833  0.24431712  1
  O  O369  1  0.24462497  0.37995620  0.74529842  1
  O  O370  1  0.24963532  0.88158826  0.24183635  1
  O  O371  1  0.24893527  0.88321699  0.74240115  1
  O  O372  1  0.74721855  0.37684504  0.24187385  1
  O  O373  1  0.74532561  0.38096326  0.74506795  1
  O  O374  1  0.74519007  0.87765869  0.24699485  1
  O  O375  1  0.74259323  0.88263688  0.75055100  1
  O  O376  1  0.25033379  0.11805329  0.25621054  1
  O  O377  1  0.25500526  0.12237123  0.75448635  1
  O  O378  1  0.25582760  0.61947406  0.25570804  1
  O  O379  1  0.25582765  0.61891785  0.75485092  1
  O  O380  1  0.75238893  0.12014046  0.26419103  1
  O  O381  1  0.75548046  0.11996249  0.75596934  1
  O  O382  1  0.75513445  0.62570999  0.26110697  1
  O  O383  1  0.75514168  0.61840673  0.75505517  1
  O  O384  1  0.36726645  0.11843853  0.37547120  1
  O  O385  1  0.36791988  0.12605315  0.86861806  1
  O  O386  1  0.36968980  0.61787714  0.37021275  1
  O  O387  1  0.36950854  0.61992416  0.86931554  1
  O  O388  1  0.86790724  0.11655459  0.37487136  1
  O  O389  1  0.86929551  0.11988061  0.87037922  1
  O  O390  1  0.86617431  0.62371000  0.37033026  1
  O  O391  1  0.87042423  0.61902535  0.86914907  1
  O  O392  1  0.13102316  0.38249521  0.12657705  1
  O  O393  1  0.13047743  0.37943249  0.63137473  1
  O  O394  1  0.13154022  0.88213287  0.12371470  1
  O  O395  1  0.13267072  0.88359842  0.62381425  1
  O  O396  1  0.63047860  0.38301286  0.12512064  1
  O  O397  1  0.63052084  0.38070983  0.63007808  1
  O  O398  1  0.62495704  0.88654704  0.12382824  1
  O  O399  1  0.62643114  0.88201859  0.63341101  1
  O  O400  1  0.11800244  0.25181801  0.25689139  1
  O  O401  1  0.11974047  0.25581293  0.75625336  1
  O  O402  1  0.11811671  0.75078949  0.25625055  1
  O  O403  1  0.12578692  0.75215561  0.76178636  1
  O  O404  1  0.62266109  0.25032550  0.26449640  1
  O  O405  1  0.62017030  0.25549046  0.75498824  1
  O  O406  1  0.61422654  0.74727287  0.25576085  1
  O  O407  1  0.61878560  0.75571192  0.75567820  1
  O  O408  1  0.37867489  0.24496075  0.24509831  1
  O  O409  1  0.37984956  0.24668270  0.74449372  1
  O  O410  1  0.38426685  0.74327726  0.25025871  1
  O  O411  1  0.38104472  0.74302422  0.74874304  1
  O  O412  1  0.88152523  0.24680347  0.24250485  1
  O  O413  1  0.88213343  0.24311791  0.75002694  1
  O  O414  1  0.88134107  0.74399332  0.24527177  1
  O  O415  1  0.87636213  0.74090603  0.74814206  1
  O  O416  1  0.38037281  0.49457238  0.49528229  1
  O  O417  1  0.37925153  0.49569050  0.99495824  1
  O  O418  1  0.37991479  0.99516260  0.49445321  1
  O  O419  1  0.37477294  0.98678673  0.99615412  1
  O  O420  1  0.87801540  0.48668294  0.49663256  1
  O  O421  1  0.87999730  0.49342118  0.99467082  1
  O  O422  1  0.88230888  0.99987649  0.48891648  1
  O  O423  1  0.87975010  0.99350607  0.99571119  1
  O  O424  1  0.12024211  0.00610307  0.00430290  1
  O  O425  1  0.12087882  0.00707657  0.50375286  1
  O  O426  1  0.11713106  0.50190275  0.00618493  1
  O  O427  1  0.12376001  0.50246779  0.50955855  1
  O  O428  1  0.62458371  0.00719261  0.00832227  1
  O  O429  1  0.61793814  0.00041174  0.50750486  1
  O  O430  1  0.61863187  0.50056185  0.01041431  1
  O  O431  1  0.61955466  0.50468247  0.50621007  1
  O  O432  1  0.36756826  0.37582745  0.11797043  1
  O  O433  1  0.36953208  0.37060097  0.62048322  1
  O  O434  1  0.36954123  0.87334500  0.11434322  1
  O  O435  1  0.36767115  0.87429820  0.61712902  1
  O  O436  1  0.86983871  0.36871421  0.11869088  1
  O  O437  1  0.87067116  0.37442203  0.61718271  1
  O  O438  1  0.87588085  0.87003423  0.11608918  1
  O  O439  1  0.87006239  0.87227436  0.62015442  1
  O  O440  1  0.13051032  0.13020906  0.38060171  1
  O  O441  1  0.12971106  0.13172755  0.88038455  1
  O  O442  1  0.13190192  0.63080709  0.37607916  1
  O  O443  1  0.13165941  0.63310685  0.87633385  1
  O  O444  1  0.63277158  0.13107981  0.37727574  1
  O  O445  1  0.63070675  0.13075909  0.87927193  1
  O  O446  1  0.63243019  0.62920580  0.38087900  1
  O  O447  1  0.63147423  0.63113727  0.87529220  1
