# generated using pymatgen
data_V3Zn3O8
_symmetry_space_group_name_H-M   'P 1'
_cell_length_a   17.08682571
_cell_length_b   17.08721413
_cell_length_c   17.08701137
_cell_angle_alpha   89.99463309
_cell_angle_beta   90.00879710
_cell_angle_gamma   90.01456239
_symmetry_Int_Tables_number   1
_chemical_formula_structural   V3Zn3O8
_chemical_formula_sum   'V96 Zn96 O256'
_cell_volume   4988.83038427
_cell_formula_units_Z   32
loop_
 _symmetry_equiv_pos_site_id
 _symmetry_equiv_pos_as_xyz
  1  'x, y, z'
loop_
 _atom_site_type_symbol
 _atom_site_label
 _atom_site_symmetry_multiplicity
 _atom_site_fract_x
 _atom_site_fract_y
 _atom_site_fract_z
 _atom_site_occupancy
  V  V0  1  0.87461804  0.12515236  0.24921028  1
  V  V1  1  0.62545770  0.74988888  0.87427657  1
  V  V2  1  0.62479868  0.12400633  0.50070632  1
  V  V3  1  0.37549547  0.24979855  0.62382640  1
  V  V4  1  0.49942760  0.62554689  0.12390767  1
  V  V5  1  0.74926315  0.37378411  0.12344279  1
  V  V6  1  0.00167101  0.87438170  0.87593856  1
  V  V7  1  0.62423545  0.24966941  0.37526930  1
  V  V8  1  0.00007108  0.50052750  0.00078292  1
  V  V9  1  0.50082098  0.25047791  0.74934464  1
  V  V10  1  0.37578398  0.74957007  0.12463965  1
  V  V11  1  0.50072082  0.12462494  0.62369351  1
  V  V12  1  0.24902865  0.12526796  0.37453266  1
  V  V13  1  0.49901581  0.37640562  0.87539281  1
  V  V14  1  0.62580483  0.87458650  0.74937196  1
  V  V15  1  0.12528682  0.37526396  0.75026351  1
  V  V16  1  0.87620070  0.49810434  0.37496295  1
  V  V17  1  -0.00106095  0.12632021  0.12640518  1
  V  V18  1  0.12610880  0.87617768  0.24999115  1
  V  V19  1  0.87534050  0.50051415  0.87548751  1
  V  V20  1  0.12462662  0.12476617  0.00055979  1
  V  V21  1  0.00020700  0.37536908  0.87599649  1
  V  V22  1  0.75136700  -0.00001710  0.75191260  1
  V  V23  1  0.62397798  0.00018602  0.12506751  1
  V  V24  1  0.75032624  0.24922787  0.50047245  1
  V  V25  1  0.87485146  -0.00064297  0.37651672  1
  V  V26  1  0.62352550  0.49947777  0.12394455  1
  V  V27  1  -0.00051474  0.12505293  0.62579989  1
  V  V28  1  0.25052212  0.25081937  0.00070099  1
  V  V29  1  0.75027557  0.74978647  0.00058975  1
  V  V30  1  0.25060329  0.12604786  0.87498288  1
  V  V31  1  0.24974145  0.00057132  0.74888893  1
  V  V32  1  0.25074203  0.75017232  -0.00025775  1
  V  V33  1  0.62514807  -0.00020466  0.62486815  1
  V  V34  1  0.75100726  0.74984451  0.50078060  1
  V  V35  1  0.37551250  0.37583319  0.49915860  1
  V  V36  1  0.75088985  0.49996670  0.74857288  1
  V  V37  1  0.62446564  0.62504376  -0.00036017  1
  V  V38  1  0.87459830  0.75006634  0.12595921  1
  V  V39  1  0.50005597  0.87543132  0.87452301  1
  V  V40  1  0.12552748  -0.00021369  0.62535535  1
  V  V41  1  0.74828597  0.62530789  0.37468932  1
  V  V42  1  0.25110260  0.50092624  0.75185998  1
  V  V43  1  0.37501732  0.87471180  0.49975442  1
  V  V44  1  0.49910294  0.74971490  0.24941323  1
  V  V45  1  0.12509078  0.25020182  0.87471056  1
  V  V46  1  0.74923889  0.12424426  0.37492296  1
  V  V47  1  -0.00055367  0.75109676  0.25167764  1
  V  V48  1  0.75020960  0.37518474  0.62506225  1
  V  V49  1  0.62754644  0.24782974  0.87578569  1
  V  V50  1  0.25024647  0.87597384  0.12526556  1
  V  V51  1  0.12555005  0.50046183  0.12618029  1
  V  V52  1  0.87536590  0.37502937  0.49836865  1
  V  V53  1  -0.00052955  -0.00043045  0.50090730  1
  V  V54  1  0.24920048  0.74962881  0.50149984  1
  V  V55  1  0.75100966  0.87376825  0.62477341  1
  V  V56  1  0.12581347  0.62589678  0.00110710  1
  V  V57  1  0.49910813  0.87388365  0.37459905  1
  V  V58  1  -0.00028788  0.87519522  0.37614787  1
  V  V59  1  0.87656447  0.62616252  0.75040118  1
  V  V60  1  0.37349863  0.00021352  0.37347400  1
  V  V61  1  0.87566014  0.87515560  0.00131432  1
  V  V62  1  0.37580348  0.87593462  -0.00098977  1
  V  V63  1  0.75075770  0.62471498  0.87486798  1
  V  V64  1  0.37582158  0.74964100  0.62564599  1
  V  V65  1  0.74971443  0.87474524  0.12680915  1
  V  V66  1  0.12482011  0.75165018  0.87525688  1
  V  V67  1  0.49981773  0.37502093  0.37490487  1
  V  V68  1  0.25023583  0.37516481  0.62486027  1
  V  V69  1  0.49834644  0.24970548  0.24933364  1
  V  V70  1  0.25107178  0.62389937  0.37406640  1
  V  V71  1  0.00036035  0.00040086  0.00043855  1
  V  V72  1  0.00004886  0.62569661  0.12591799  1
  V  V73  1  0.24992889  0.87571408  0.62551157  1
  V  V74  1  0.50048641  0.49960379  0.49963892  1
  V  V75  1  -0.00043018  0.62570000  0.62608775  1
  V  V76  1  0.62396091  0.87376706  0.25115109  1
  V  V77  1  -0.00042096  0.24986975  0.74955884  1
  V  V78  1  0.87500903  0.62495976  0.25052329  1
  V  V79  1  0.12275532  0.37398702  0.25222512  1
  V  V80  1  0.12498829  0.12586229  0.49979106  1
  V  V81  1  0.12566862  0.50001141  0.62500727  1
  V  V82  1  0.62586606  0.49954172  0.62397904  1
  V  V83  1  0.87545423  0.24967103  0.62532739  1
  V  V84  1  0.49970637  0.12445957  0.12375893  1
  V  V85  1  0.24896766  0.25033567  0.49900347  1
  V  V86  1  0.50036827  0.74918461  0.74826014  1
  V  V87  1  0.12535533  0.62506435  0.50102742  1
  V  V88  1  0.74904990  -0.00078468  0.25089574  1
  V  V89  1  0.25154648  0.37476945  0.12465576  1
  V  V90  1  0.50043615  0.62446843  0.62401746  1
  V  V91  1  0.37501379  0.12557587  0.74897080  1
  V  V92  1  0.87426085  0.00041305  0.87521436  1
  V  V93  1  0.25111610  0.62427267  0.87459783  1
  V  V94  1  0.87430379  0.37469375  0.00081278  1
  V  V95  1  0.37622837  0.00032379  0.87436359  1
  Zn  Zn96  1  -0.00376113  0.25131326  0.25197121  1
  Zn  Zn97  1  0.12746537  0.00107559  0.12457518  1
  Zn  Zn98  1  0.62782426  0.12254173  -0.00106962  1
  Zn  Zn99  1  0.62603111  0.37496396  0.74959100  1
  Zn  Zn100  1  0.12384465  0.74965108  0.37729989  1
  Zn  Zn101  1  0.37608958  0.50113601  0.87544786  1
  Zn  Zn102  1  0.62401910  0.62465650  0.49856881  1
  Zn  Zn103  1  0.12160444  0.25026396  0.37452332  1
  Zn  Zn104  1  0.37704781  0.50074578  0.37182359  1
  Zn  Zn105  1  0.37066431  0.12540538  0.24820185  1
  Zn  Zn106  1  0.25244014  0.50054381  0.25029370  1
  Zn  Zn107  1  0.12435356  0.87480836  0.75085625  1
  Zn  Zn108  1  0.62313696  0.74891435  0.37503820  1
  Zn  Zn109  1  0.87220155  0.24984443  0.12450098  1
  Zn  Zn110  1  0.50170444  0.00134531  -0.00142687  1
  Zn  Zn111  1  0.74897284  0.49899078  0.24977192  1
  Zn  Zn112  1  0.87642478  0.75165833  0.62750370  1
  Zn  Zn113  1  0.24885298  0.00263136  0.24777633  1
  Zn  Zn114  1  0.00129722  0.49841013  0.49915062  1
  Zn  Zn115  1  0.37555605  0.37596722  -0.00030714  1
  Zn  Zn116  1  0.37396800  0.62340334  0.24863287  1
  Zn  Zn117  1  0.87642169  0.87445795  0.50239247  1
  Zn  Zn118  1  0.37582460  0.62339566  0.75114382  1
  Zn  Zn119  1  0.00030459  0.37203980  0.37552574  1
  Zn  Zn120  1  0.00037133  0.75252376  0.75091225  1
  Zn  Zn121  1  0.62479081  0.37578361  0.24944864  1
  Zn  Zn122  1  0.75176182  0.24595689  -0.00120904  1
  Zn  Zn123  1  0.50084582  -0.00128988  0.49962103  1
  Zn  Zn124  1  0.75122288  0.12436542  0.87707857  1
  Zn  Zn125  1  0.49665187  0.50013703  -0.00212764  1
  Zn  Zn126  1  0.37542589  0.24919980  0.12338107  1
  Zn  Zn127  1  0.87378617  0.12552758  0.75255757  1
  Zn  Zn128  1  0.18542651  0.18965357  0.18827540  1
  Zn  Zn129  1  0.18705752  0.18774760  0.68640840  1
  Zn  Zn130  1  0.18760540  0.69037472  0.18897704  1
  Zn  Zn131  1  0.18686259  0.68837855  0.69018321  1
  Zn  Zn132  1  0.68545441  0.18774659  0.18773829  1
  Zn  Zn133  1  0.68827270  0.18608296  0.69063148  1
  Zn  Zn134  1  0.68581041  0.68718228  0.18883416  1
  Zn  Zn135  1  0.68740386  0.68547758  0.68611962  1
  Zn  Zn136  1  0.31238144  0.31248143  0.31231625  1
  Zn  Zn137  1  0.31410367  0.31298064  0.81196531  1
  Zn  Zn138  1  0.31196416  0.81002623  0.31238651  1
  Zn  Zn139  1  0.31266054  0.81219586  0.81153445  1
  Zn  Zn140  1  0.81069133  0.31162999  0.30882493  1
  Zn  Zn141  1  0.81279474  0.31342392  0.81155027  1
  Zn  Zn142  1  0.81326695  0.81245497  0.31446358  1
  Zn  Zn143  1  0.81455646  0.81261940  0.81247800  1
  Zn  Zn144  1  0.18791559  0.43988214  0.43757956  1
  Zn  Zn145  1  0.18752666  0.43881765  0.93843492  1
  Zn  Zn146  1  0.18685105  0.93794371  0.43763693  1
  Zn  Zn147  1  0.18812159  0.93887541  0.93797486  1
  Zn  Zn148  1  0.68659674  0.43666229  0.43806427  1
  Zn  Zn149  1  0.68556077  0.43600622  0.93760461  1
  Zn  Zn150  1  0.68661226  0.93588766  0.43832845  1
  Zn  Zn151  1  0.68720050  0.93813899  0.93880772  1
  Zn  Zn152  1  0.31422939  0.06197638  0.06205036  1
  Zn  Zn153  1  0.31274391  0.06215074  0.56014323  1
  Zn  Zn154  1  0.31489759  0.55954054  0.05999444  1
  Zn  Zn155  1  0.31404489  0.56245045  0.56240692  1
  Zn  Zn156  1  0.81124139  0.06288108  0.06121222  1
  Zn  Zn157  1  0.81302387  0.06197926  0.56420026  1
  Zn  Zn158  1  0.81166216  0.56128221  0.06224572  1
  Zn  Zn159  1  0.81395738  0.56282273  0.56148042  1
  Zn  Zn160  1  0.43613206  0.43934970  0.18935370  1
  Zn  Zn161  1  0.43759748  0.43828945  0.68940236  1
  Zn  Zn162  1  0.43704406  0.93749877  0.18813794  1
  Zn  Zn163  1  0.43799687  0.93760471  0.68727400  1
  Zn  Zn164  1  0.93648298  0.43864302  0.18828737  1
  Zn  Zn165  1  0.93723567  0.43801485  0.68733951  1
  Zn  Zn166  1  0.93818636  0.93975054  0.18852840  1
  Zn  Zn167  1  0.93698732  0.93617055  0.68950305  1
  Zn  Zn168  1  0.06215933  0.06132546  0.31293491  1
  Zn  Zn169  1  0.06186059  0.06199124  0.81237451  1
  Zn  Zn170  1  0.06418226  0.56171948  0.31302388  1
  Zn  Zn171  1  0.06427580  0.56367092  0.81261523  1
  Zn  Zn172  1  0.56051709  0.06183670  0.31179250  1
  Zn  Zn173  1  0.56317369  0.06323982  0.81067890  1
  Zn  Zn174  1  0.56135083  0.56213225  0.30993697  1
  Zn  Zn175  1  0.56394193  0.56168253  0.80923267  1
  Zn  Zn176  1  0.43694343  0.18696905  0.43752477  1
  Zn  Zn177  1  0.43767937  0.19031244  0.93903483  1
  Zn  Zn178  1  0.43623456  0.68708104  0.43796409  1
  Zn  Zn179  1  0.43715274  0.68735889  0.93663116  1
  Zn  Zn180  1  0.93855553  0.18823840  0.43606008  1
  Zn  Zn181  1  0.93564868  0.18776659  0.93841536  1
  Zn  Zn182  1  0.93702141  0.68734487  0.43894478  1
  Zn  Zn183  1  0.93861268  0.68830159  0.93800580  1
  Zn  Zn184  1  0.06329022  0.31126264  0.06400720  1
  Zn  Zn185  1  0.06137277  0.31314985  0.56088219  1
  Zn  Zn186  1  0.06345489  0.81256168  0.06362827  1
  Zn  Zn187  1  0.06356797  0.81202841  0.56357563  1
  Zn  Zn188  1  0.56382075  0.31128577  0.05899940  1
  Zn  Zn189  1  0.56358880  0.31329275  0.56195781  1
  Zn  Zn190  1  0.56205684  0.81277886  0.06180830  1
  Zn  Zn191  1  0.56393009  0.81149941  0.56019676  1
  O  O192  1  0.11580870  0.12379290  0.11954442  1
  O  O193  1  0.12001005  0.11982561  0.61919923  1
  O  O194  1  0.11951698  0.62182605  0.12074036  1
  O  O195  1  0.11841345  0.61984707  0.62154144  1
  O  O196  1  0.61521959  0.11835938  0.12610331  1
  O  O197  1  0.62030717  0.11983983  0.62022667  1
  O  O198  1  0.62104344  0.61814571  0.11941876  1
  O  O199  1  0.61891472  0.61736055  0.62223941  1
  O  O200  1  0.38165020  0.37536893  0.38226756  1
  O  O201  1  0.38745599  0.37472656  0.87445681  1
  O  O202  1  0.37801410  0.88167878  0.37994493  1
  O  O203  1  0.38032581  0.88035088  0.87898621  1
  O  O204  1  0.87124591  0.38451054  0.37838879  1
  O  O205  1  0.88125973  0.38172419  0.87997917  1
  O  O206  1  0.88171852  0.88246230  0.37622650  1
  O  O207  1  0.88090491  0.87930716  0.88314440  1
  O  O208  1  0.25844031  0.00653677  0.37498317  1
  O  O209  1  0.25629585  0.00684476  0.86943826  1
  O  O210  1  0.25241556  0.51268946  0.37513878  1
  O  O211  1  0.24820869  0.50637014  0.86872112  1
  O  O212  1  0.75405870  0.00487339  0.37011950  1
  O  O213  1  0.75647348  -0.00267492  0.86901664  1
  O  O214  1  0.75787578  0.50872783  0.37438310  1
  O  O215  1  0.75547258  0.50553984  0.87018984  1
  O  O216  1  0.24261689  0.49068617  0.12409555  1
  O  O217  1  0.24466341  0.49420537  0.63052134  1
  O  O218  1  0.24850781  0.99199515  0.12736731  1
  O  O219  1  0.24568248  0.99586821  0.62900826  1
  O  O220  1  0.74094911  0.49288823  0.12484067  1
  O  O221  1  0.74659682  0.49519224  0.62863748  1
  O  O222  1  0.74502456  0.99339610  0.13204985  1
  O  O223  1  0.74428812  0.99383207  0.63067771  1
  O  O224  1  0.01040396  0.37454116  0.24895859  1
  O  O225  1  0.00571796  0.37040697  0.75581621  1
  O  O226  1  0.00669302  0.87110672  0.25499259  1
  O  O227  1  0.00328287  0.87367922  0.76015103  1
  O  O228  1  0.50173326  0.36514404  0.25464824  1
  O  O229  1  0.50209867  0.36787101  0.75729039  1
  O  O230  1  0.50458216  0.86914808  0.25484703  1
  O  O231  1  0.50639417  0.86907952  0.75431391  1
  O  O232  1  0.49861649  0.13363674  0.24224173  1
  O  O233  1  0.49365793  0.13035712  0.74305376  1
  O  O234  1  0.49929886  0.63241812  0.24160913  1
  O  O235  1  0.49983254  0.63213532  0.74259014  1
  O  O236  1  0.99419020  0.12248328  0.24068223  1
  O  O237  1  0.99989903  0.13241247  0.74326850  1
  O  O238  1  0.99515250  0.63081895  0.24507804  1
  O  O239  1  0.99561416  0.62506263  0.74173975  1
  O  O240  1  0.36545978  0.25422668  0.00269001  1
  O  O241  1  0.36948178  0.25537971  0.50541624  1
  O  O242  1  0.36966453  0.75678395  0.00460019  1
  O  O243  1  0.36901540  0.75606493  0.50670368  1
  O  O244  1  0.87274615  0.26006440  0.00259388  1
  O  O245  1  0.86864130  0.25445419  0.50528405  1
  O  O246  1  0.86970611  0.75494006  0.00654904  1
  O  O247  1  0.86261866  0.75135593  0.50226730  1
  O  O248  1  0.13191865  0.24389502  0.49968282  1
  O  O249  1  0.12993206  0.24423469  0.99359770  1
  O  O250  1  0.13210102  0.74293347  0.50028064  1
  O  O251  1  0.13124823  0.74473581  0.99627647  1
  O  O252  1  0.63104913  0.24371052  0.49519423  1
  O  O253  1  0.62704885  0.24769004  0.98658351  1
  O  O254  1  0.63811742  0.74711354  0.49646901  1
  O  O255  1  0.63160685  0.74551888  0.99441235  1
  O  O256  1  0.50172034  0.24293476  0.13314739  1
  O  O257  1  0.49498761  0.24479686  0.62901531  1
  O  O258  1  0.49504164  0.74567624  0.12941779  1
  O  O259  1  0.49620930  0.74534384  0.62890927  1
  O  O260  1  0.99772647  0.23621901  0.12528704  1
  O  O261  1  0.99523289  0.24524953  0.63012722  1
  O  O262  1  0.99366466  0.74491703  0.13065870  1
  O  O263  1  0.99933742  0.73770925  0.62729628  1
  O  O264  1  0.00339768  0.25352138  0.37028835  1
  O  O265  1  0.00571710  0.25607324  0.87019144  1
  O  O266  1  0.00007595  0.75592500  0.36903991  1
  O  O267  1  0.00724440  0.75658635  0.87715167  1
  O  O268  1  0.50452864  0.25373807  0.36835993  1
  O  O269  1  0.50702897  0.25624948  0.86891285  1
  O  O270  1  0.50010139  0.75599933  0.36851609  1
  O  O271  1  0.50648358  0.75537522  0.86853390  1
  O  O272  1  0.24458841  0.13046682  0.49445274  1
  O  O273  1  0.24481752  0.13037805  0.99433134  1
  O  O274  1  0.24501661  0.63010306  0.49466608  1
  O  O275  1  0.24399620  0.63091010  0.99569541  1
  O  O276  1  0.74479446  0.12993490  0.49473661  1
  O  O277  1  0.74586717  0.12813446  0.99623984  1
  O  O278  1  0.75010122  0.63208900  0.49073581  1
  O  O279  1  0.74535588  0.63076697  0.99462184  1
  O  O280  1  0.24574766  0.36878120  0.01000495  1
  O  O281  1  0.25492280  0.37020098  0.50582827  1
  O  O282  1  0.25599710  0.86983611  0.00471367  1
  O  O283  1  0.25497721  0.86979108  0.50565648  1
  O  O284  1  0.75619025  0.37614416  0.00857753  1
  O  O285  1  0.75550091  0.36801323  0.50529502  1
  O  O286  1  0.75556501  0.86879406  0.00725942  1
  O  O287  1  0.75077727  0.86578228  0.50528676  1
  O  O288  1  0.12677787  0.49151056  0.24330671  1
  O  O289  1  0.13054090  0.49365590  0.74521861  1
  O  O290  1  0.12559026  0.98665212  0.24852777  1
  O  O291  1  0.13283472  1.00044740  0.74330420  1
  O  O292  1  0.62691350  0.49892077  0.23575855  1
  O  O293  1  0.63427513  0.49847869  0.74189424  1
  O  O294  1  0.63039637  0.99372106  0.24550828  1
  O  O295  1  0.63054520  0.99341787  0.74441898  1
  O  O296  1  0.37209456  -0.00009054  0.26339180  1
  O  O297  1  0.36958726  0.00654775  0.75419576  1
  O  O298  1  0.37039828  0.50557986  0.25374442  1
  O  O299  1  0.36580508  0.50195984  0.75297726  1
  O  O300  1  0.86819874  0.00488599  0.25637543  1
  O  O301  1  0.86860607  -0.00015578  0.75804699  1
  O  O302  1  0.87224034  0.50688717  0.25863204  1
  O  O303  1  0.87054945  0.50561950  0.75661704  1
  O  O304  1  0.12466120  0.37678380  0.36394163  1
  O  O305  1  0.11946271  0.36976573  0.87014579  1
  O  O306  1  0.11903150  0.87372691  0.36673450  1
  O  O307  1  0.11956375  0.86926396  0.87679636  1
  O  O308  1  0.61889076  0.36736000  0.37347272  1
  O  O309  1  0.61704894  0.36639860  0.87190316  1
  O  O310  1  0.61772560  0.87411274  0.36811872  1
  O  O311  1  0.62043717  0.86890623  0.86917932  1
  O  O312  1  0.38557588  0.12642367  0.12824467  1
  O  O313  1  0.37992677  0.13021171  0.62883336  1
  O  O314  1  0.38144273  0.63253280  0.12308039  1
  O  O315  1  0.38203179  0.63248616  0.62630187  1
  O  O316  1  0.88322147  0.12380783  0.13061192  1
  O  O317  1  0.88207498  0.13195863  0.62666734  1
  O  O318  1  0.87988771  0.63007477  0.12980546  1
  O  O319  1  0.88467149  0.62408502  0.63099113  1
  O  O320  1  0.24898407  0.25923362  0.11933845  1
  O  O321  1  0.25565283  0.25547157  0.61962066  1
  O  O322  1  0.25553062  0.75567905  0.11839708  1
  O  O323  1  0.25541592  0.75538612  0.62110438  1
  O  O324  1  0.74730793  0.26248347  0.12248183  1
  O  O325  1  0.75519242  0.25435167  0.62010145  1
  O  O326  1  0.75521984  0.75479679  0.12048796  1
  O  O327  1  0.75053698  0.75386689  0.61642303  1
  O  O328  1  0.24870223  0.24212493  0.38186938  1
  O  O329  1  0.24416984  0.24523404  0.87899006  1
  O  O330  1  0.24786848  0.74131176  0.38307801  1
  O  O331  1  0.24521617  0.74555619  0.88143153  1
  O  O332  1  0.74450757  0.24366677  0.38029321  1
  O  O333  1  0.73912903  0.25062339  0.87366166  1
  O  O334  1  0.75013900  0.74102216  0.38226171  1
  O  O335  1  0.74501146  0.74483096  0.88101136  1
  O  O336  1  0.00460088  0.12024963  0.00748981  1
  O  O337  1  0.00535981  0.11940088  0.50608596  1
  O  O338  1  0.00553676  0.62032127  0.00644104  1
  O  O339  1  0.00532717  0.62329877  0.50972701  1
  O  O340  1  0.50206262  0.12477042  0.01250038  1
  O  O341  1  0.50700309  0.12395219  0.50632148  1
  O  O342  1  0.50811294  0.62572024  0.00574831  1
  O  O343  1  0.50179841  0.61874781  0.50565548  1
  O  O344  1  0.49478208  0.37898708  0.49464688  1
  O  O345  1  0.49919237  0.37499298  0.98741581  1
  O  O346  1  0.49288148  0.87562516  0.49338520  1
  O  O347  1  0.49342225  0.87524902  0.99220930  1
  O  O348  1  0.99126330  0.37858260  0.49730307  1
  O  O349  1  0.99599034  0.38117795  0.99581211  1
  O  O350  1  0.99986283  0.88139894  0.49452869  1
  O  O351  1  0.99455028  0.88017219  0.99733664  1
  O  O352  1  0.50073006  0.49321729  0.38111041  1
  O  O353  1  0.50256520  0.48857223  0.87392462  1
  O  O354  1  0.48983938  0.99407593  0.37607616  1
  O  O355  1  0.49387925  0.99337104  0.87334148  1
  O  O356  1  0.98600470  0.50005081  0.37606315  1
  O  O357  1  0.99582440  0.49502228  0.88100013  1
  O  O358  1  0.99427165  0.99532968  0.38156035  1
  O  O359  1  0.99527396  0.99459684  0.88180052  1
  O  O360  1  0.00078401  0.01000116  0.11888938  1
  O  O361  1  0.00561903  0.00513250  0.62064452  1
  O  O362  1  0.00467846  0.50695074  0.11981960  1
  O  O363  1  0.00636806  0.50969618  0.62500494  1
  O  O364  1  0.50509901  0.00905684  0.12665661  1
  O  O365  1  0.50673164  0.00647830  0.62376948  1
  O  O366  1  0.50956692  0.50470298  0.12275964  1
  O  O367  1  0.50560717  0.50412068  0.62001982  1
  O  O368  1  0.24097588  0.37499407  0.24118077  1
  O  O369  1  0.24395929  0.37911213  0.74441087  1
  O  O370  1  0.24028452  0.87341885  0.24491438  1
  O  O371  1  0.25000516  0.88322912  0.74310545  1
  O  O372  1  0.74587223  0.37772274  0.23763068  1
  O  O373  1  0.75107417  0.38308483  0.74221833  1
  O  O374  1  0.74507941  0.87927257  0.24579396  1
  O  O375  1  0.74418892  0.87879977  0.74499055  1
  O  O376  1  0.25051690  0.12339051  0.25863194  1
  O  O377  1  0.25568713  0.12116676  0.75482685  1
  O  O378  1  0.24896499  0.62596245  0.26145472  1
  O  O379  1  0.24986780  0.61815864  0.75682465  1
  O  O380  1  0.75366439  0.11875579  0.25538853  1
  O  O381  1  0.75282370  0.11485552  0.75356940  1
  O  O382  1  0.75660613  0.62572240  0.25922600  1
  O  O383  1  0.75628123  0.61966366  0.75571257  1
  O  O384  1  0.36785143  0.11568475  0.37569747  1
  O  O385  1  0.37033032  0.12130796  0.86881704  1
  O  O386  1  0.36281628  0.62472488  0.37448231  1
  O  O387  1  0.36637086  0.62435811  0.87218460  1
  O  O388  1  0.86826834  0.11888171  0.36992569  1
  O  O389  1  0.87449242  0.11576894  0.87337276  1
  O  O390  1  0.86711456  0.61770133  0.37106597  1
  O  O391  1  0.87032760  0.61944998  0.87174908  1
  O  O392  1  0.13170305  0.37996046  0.13173527  1
  O  O393  1  0.13051971  0.37967395  0.63056018  1
  O  O394  1  0.13055930  0.87591759  0.13363798  1
  O  O395  1  0.13222440  0.88253272  0.62619502  1
  O  O396  1  0.63186108  0.38409096  0.12210257  1
  O  O397  1  0.63286764  0.38066628  0.62580087  1
  O  O398  1  0.63039219  0.87923003  0.13123170  1
  O  O399  1  0.63014395  0.87982258  0.63037755  1
  O  O400  1  0.12167103  0.26255468  0.25160842  1
  O  O401  1  0.12011652  0.25596179  0.75489884  1
  O  O402  1  0.11754061  0.76110913  0.25115483  1
  O  O403  1  0.12299824  0.75354791  0.76007291  1
  O  O404  1  0.61389775  0.25026075  0.25692893  1
  O  O405  1  0.61858149  0.25145935  0.75764277  1
  O  O406  1  0.61788458  0.75687017  0.25096767  1
  O  O407  1  0.62105158  0.75514032  0.75491956  1
  O  O408  1  0.38789581  0.24804641  0.24886002  1
  O  O409  1  0.37975645  0.24399209  0.74295717  1
  O  O410  1  0.38143618  0.74912881  0.24156068  1
  O  O411  1  0.38276573  0.74982538  0.74264625  1
  O  O412  1  0.87558688  0.24049375  0.24509188  1
  O  O413  1  0.88262531  0.25010015  0.74334789  1
  O  O414  1  0.88000749  0.74508190  0.24470670  1
  O  O415  1  0.87803204  0.74087722  0.74920023  1
  O  O416  1  0.38263567  0.49225660  0.49962834  1
  O  O417  1  0.37919485  0.49376578  0.99364550  1
  O  O418  1  0.37585978  0.99387871  0.48961075  1
  O  O419  1  0.37766392  0.99365402  0.99154238  1
  O  O420  1  0.87468970  0.49401086  0.48993970  1
  O  O421  1  0.88129043  0.49591243  0.99447798  1
  O  O422  1  0.88134487  0.99920320  0.49389602  1
  O  O423  1  0.88050677  0.99284699  0.99579412  1
  O  O424  1  0.11859738  0.00776186  0.00093258  1
  O  O425  1  0.11963617  0.00576746  0.50614179  1
  O  O426  1  0.11869497  0.50647355  0.00614021  1
  O  O427  1  0.12401489  0.50663670  0.50818187  1
  O  O428  1  0.62102574  0.00023226  0.00920900  1
  O  O429  1  0.62427253  0.00629946  0.50691264  1
  O  O430  1  0.62405701  0.50695465  0.00907868  1
  O  O431  1  0.61847967  0.50074869  0.50656567  1
  O  O432  1  0.36152141  0.37349864  0.12526708  1
  O  O433  1  0.36980007  0.36868889  0.61966325  1
  O  O434  1  0.37054754  0.86973639  0.11912177  1
  O  O435  1  0.36985297  0.87054746  0.61922498  1
  O  O436  1  0.86502805  0.37723897  0.11955991  1
  O  O437  1  0.86993522  0.36986110  0.61897595  1
  O  O438  1  0.86958747  0.86988595  0.12170847  1
  O  O439  1  0.86696267  0.87225714  0.62307117  1
  O  O440  1  0.13246313  0.12368658  0.38219640  1
  O  O441  1  0.13064644  0.13105644  0.87999055  1
  O  O442  1  0.13282268  0.62655429  0.38202708  1
  O  O443  1  0.13024075  0.63071531  0.88271990  1
  O  O444  1  0.62998015  0.12924586  0.38021069  1
  O  O445  1  0.62447553  0.13574159  0.87516236  1
  O  O446  1  0.63753186  0.62516357  0.37481718  1
  O  O447  1  0.63139465  0.63052311  0.87918835  1
