# generated using pymatgen
data_V3Zn3O8
_symmetry_space_group_name_H-M   'P 1'
_cell_length_a   17.09013937
_cell_length_b   17.08978380
_cell_length_c   17.09093307
_cell_angle_alpha   89.99165622
_cell_angle_beta   90.00405632
_cell_angle_gamma   89.99845391
_symmetry_Int_Tables_number   1
_chemical_formula_structural   V3Zn3O8
_chemical_formula_sum   'V96 Zn96 O256'
_cell_volume   4991.69384101
_cell_formula_units_Z   32
loop_
 _symmetry_equiv_pos_site_id
 _symmetry_equiv_pos_as_xyz
  1  'x, y, z'
loop_
 _atom_site_type_symbol
 _atom_site_label
 _atom_site_symmetry_multiplicity
 _atom_site_fract_x
 _atom_site_fract_y
 _atom_site_fract_z
 _atom_site_occupancy
  V  V0  1  0.12491333  0.62421894  0.50036478  1
  V  V1  1  0.37383338  0.37518778  0.00053735  1
  V  V2  1  0.50010597  0.37402155  0.87407736  1
  V  V3  1  0.87495133  0.12420297  0.25002721  1
  V  V4  1  0.37613790  0.12558511  0.24761203  1
  V  V5  1  0.12588014  0.37463969  0.24927360  1
  V  V6  1  -0.00087325  0.37536882  0.87400878  1
  V  V7  1  0.50025901  0.74914448  0.74989283  1
  V  V8  1  0.62535269  0.12464772  0.49995576  1
  V  V9  1  0.00021990  -0.00028606  0.00091609  1
  V  V10  1  0.24954083  0.37474043  0.12412161  1
  V  V11  1  0.62406893  0.37398921  0.24963026  1
  V  V12  1  0.12564133  0.00088697  0.62496398  1
  V  V13  1  0.74988348  0.87531509  0.12504943  1
  V  V14  1  0.74937354  0.62468106  0.87611399  1
  V  V15  1  0.49983735  0.12663692  0.62510960  1
  V  V16  1  -0.00089002  0.74827752  0.24954755  1
  V  V17  1  0.24937222  0.62596065  0.87475622  1
  V  V18  1  0.87596693  0.00104599  0.87465634  1
  V  V19  1  0.49966507  0.62411203  0.62662991  1
  V  V20  1  0.12476026  0.37576646  0.74961867  1
  V  V21  1  0.62428951  0.12510473  -0.00101899  1
  V  V22  1  0.25100640  0.25013399  0.49980271  1
  V  V23  1  0.25059737  0.75103866  0.00088876  1
  V  V24  1  -0.00026175  0.87500746  0.37567290  1
  V  V25  1  0.62552021  0.62533429  0.49971198  1
  V  V26  1  0.87523732  0.87489965  0.50059168  1
  V  V27  1  0.87490466  0.87516071  0.00034087  1
  V  V28  1  0.37520881  0.25016585  0.62450716  1
  V  V29  1  0.37549114  0.62615410  0.24931502  1
  V  V30  1  0.12572881  0.24972678  0.87476900  1
  V  V31  1  0.37580000  0.12595606  0.74973669  1
  V  V32  1  0.12456672  -0.00036703  0.12597674  1
  V  V33  1  0.24898466  0.50098195  0.74945212  1
  V  V34  1  0.49957437  0.49923006  0.49985379  1
  V  V35  1  0.25041186  0.37500215  0.62408455  1
  V  V36  1  0.00046309  0.87528103  0.87556075  1
  V  V37  1  0.75225620  0.50192845  0.25339255  1
  V  V38  1  0.49995162  0.62573030  0.12518346  1
  V  V39  1  0.62414987  0.00091279  0.12388349  1
  V  V40  1  0.24955228  -0.00013079  0.25099360  1
  V  V41  1  0.12628049  0.87542323  0.75019767  1
  V  V42  1  0.87595684  0.74882614  0.12688322  1
  V  V43  1  0.62408495  0.24997973  0.37344829  1
  V  V44  1  0.25065266  0.87349163  0.12497167  1
  V  V45  1  0.12503209  0.12459517  0.50050919  1
  V  V46  1  0.62401346  0.87502764  0.25081578  1
  V  V47  1  0.12542808  0.24929108  0.37478831  1
  V  V48  1  0.25084483  -0.00031831  0.74954089  1
  V  V49  1  0.00072964  0.24930497  0.24963901  1
  V  V50  1  0.87355254  0.49983452  0.87414422  1
  V  V51  1  0.74919960  0.00001095  0.25020663  1
  V  V52  1  0.25036236  0.62482484  0.37496603  1
  V  V53  1  0.75035279  0.12715502  0.87371609  1
  V  V54  1  0.00053327  0.24992733  0.74878169  1
  V  V55  1  0.25117626  0.75071430  0.50078381  1
  V  V56  1  0.62485112  0.62573267  0.00120432  1
  V  V57  1  0.12362338  0.62481491  0.00042885  1
  V  V58  1  0.37591596  0.49922986  0.37534925  1
  V  V59  1  0.74991856  0.12514906  0.37521311  1
  V  V60  1  0.37369744  0.50064466  0.87535452  1
  V  V61  1  0.25021107  0.12429776  0.37436901  1
  V  V62  1  0.12530697  0.87422927  0.25072999  1
  V  V63  1  0.62505844  0.49978144  0.62619654  1
  V  V64  1  0.50012498  0.75031528  0.24982685  1
  V  V65  1  0.75031301  0.37345666  0.12424419  1
  V  V66  1  0.87450092  0.24993871  0.12377971  1
  V  V67  1  0.25162222  0.87412116  0.62423016  1
  V  V68  1  0.87360902  0.75081953  0.62442384  1
  V  V69  1  0.00058044  0.62507058  0.62476098  1
  V  V70  1  0.75011299  0.25087176  0.50035296  1
  V  V71  1  0.49848400  -0.00205992  0.49789124  1
  V  V72  1  0.12476727  0.75063971  0.87507922  1
  V  V73  1  0.24975732  0.49963564  0.25025370  1
  V  V74  1  0.37545012  -0.00034792  0.87498919  1
  V  V75  1  0.87633785  0.12531068  0.74929153  1
  V  V76  1  0.87511657  -0.00100392  0.37602240  1
  V  V77  1  0.75025619  0.74987023  0.00031268  1
  V  V78  1  -0.00261789  0.37664944  0.37605083  1
  V  V79  1  0.12536416  0.12509916  -0.00052017  1
  V  V80  1  0.62743180  0.87591394  0.74936550  1
  V  V81  1  0.74864828  0.50019792  0.75086114  1
  V  V82  1  0.00071405  0.12566427  0.62501311  1
  V  V83  1  0.37545563  0.62579991  0.74977581  1
  V  V84  1  0.62616946  0.00017645  0.62525834  1
  V  V85  1  0.00004799  0.75044332  0.74980996  1
  V  V86  1  0.24973204  0.12489930  0.87516897  1
  V  V87  1  0.12380904  0.50073987  0.62427170  1
  V  V88  1  0.75014923  0.37444967  0.62492578  1
  V  V89  1  -0.00105512  0.50028875  0.00020330  1
  V  V90  1  0.62596510  0.74891191  0.37601573  1
  V  V91  1  0.12531139  0.74954109  0.37490985  1
  V  V92  1  0.62478151  0.50023041  0.12562747  1
  V  V93  1  0.49987238  0.87615047  0.87642148  1
  V  V94  1  0.00003677  0.12460040  0.12539104  1
  V  V95  1  0.49998941  0.37453304  0.37396492  1
  Zn  Zn96  1  0.87302499  0.37291168  -0.00100398  1
  Zn  Zn97  1  0.87639150  0.50440552  0.37749381  1
  Zn  Zn98  1  0.87604520  0.25033815  0.62268876  1
  Zn  Zn99  1  0.62584247  0.74995697  0.87579622  1
  Zn  Zn100  1  0.49720248  0.87516755  0.37451497  1
  Zn  Zn101  1  0.37528467  0.75127324  0.12424453  1
  Zn  Zn102  1  0.75241185  0.00006226  0.74767823  1
  Zn  Zn103  1  0.49868424  0.12589089  0.12266907  1
  Zn  Zn104  1  0.37469190  -0.00215079  0.37491212  1
  Zn  Zn105  1  0.62378743  0.25034589  0.87406312  1
  Zn  Zn106  1  0.50002706  0.24916788  0.24641590  1
  Zn  Zn107  1  0.49765169  0.00062850  0.00137188  1
  Zn  Zn108  1  0.62402447  0.37260968  0.75253629  1
  Zn  Zn109  1  0.12242561  0.50073967  0.12525752  1
  Zn  Zn110  1  0.75409390  0.62396040  0.37826766  1
  Zn  Zn111  1  -0.00102141  0.62265768  0.12744456  1
  Zn  Zn112  1  0.37555318  0.37435989  0.49945766  1
  Zn  Zn113  1  0.50164472  0.25056899  0.74916421  1
  Zn  Zn114  1  0.87459026  0.37654545  0.49902997  1
  Zn  Zn115  1  0.37772814  0.24904319  0.12358385  1
  Zn  Zn116  1  0.37564025  0.87554822  0.00260350  1
  Zn  Zn117  1  0.37624852  0.75128232  0.62318847  1
  Zn  Zn118  1  0.75033946  0.25200883  -0.00091783  1
  Zn  Zn119  1  0.87400758  0.62608669  0.74988812  1
  Zn  Zn120  1  0.75109266  0.87650465  0.62432483  1
  Zn  Zn121  1  0.87622914  0.62478576  0.25194108  1
  Zn  Zn122  1  0.37508231  0.87364048  0.49863657  1
  Zn  Zn123  1  0.50002992  0.50161081  0.00099947  1
  Zn  Zn124  1  0.74965050  0.74924880  0.50089679  1
  Zn  Zn125  1  -0.00002757  0.00077958  0.50053907  1
  Zn  Zn126  1  -0.00283856  0.49964327  0.50030488  1
  Zn  Zn127  1  0.24960010  0.24885588  0.00015039  1
  Zn  Zn128  1  0.18926680  0.18859513  0.18677548  1
  Zn  Zn129  1  0.18849328  0.18805484  0.68775470  1
  Zn  Zn130  1  0.18605794  0.68624006  0.18559721  1
  Zn  Zn131  1  0.18757711  0.68860898  0.68652741  1
  Zn  Zn132  1  0.68748420  0.18797645  0.18626337  1
  Zn  Zn133  1  0.68527332  0.19041619  0.68980694  1
  Zn  Zn134  1  0.68773223  0.68695939  0.18823152  1
  Zn  Zn135  1  0.68745131  0.68750510  0.68880744  1
  Zn  Zn136  1  0.31426785  0.31139206  0.31225884  1
  Zn  Zn137  1  0.31265300  0.31146457  0.81132342  1
  Zn  Zn138  1  0.31494979  0.81367225  0.31432631  1
  Zn  Zn139  1  0.31433511  0.81173374  0.81214775  1
  Zn  Zn140  1  0.81215058  0.31256917  0.31060242  1
  Zn  Zn141  1  0.81395094  0.31226431  0.80990060  1
  Zn  Zn142  1  0.81173378  0.81205195  0.31283629  1
  Zn  Zn143  1  0.81254043  0.81159645  0.81326801  1
  Zn  Zn144  1  0.18630322  0.43720358  0.43809051  1
  Zn  Zn145  1  0.18593534  0.43868798  0.93717391  1
  Zn  Zn146  1  0.18764052  0.93767037  0.43855640  1
  Zn  Zn147  1  0.18865168  0.93784366  0.93863567  1
  Zn  Zn148  1  0.68561361  0.43682523  0.43813895  1
  Zn  Zn149  1  0.68640322  0.43826088  0.94026009  1
  Zn  Zn150  1  0.68839232  0.93456337  0.43889305  1
  Zn  Zn151  1  0.68834178  0.94018525  0.93647895  1
  Zn  Zn152  1  0.31212436  0.05917660  0.06215585  1
  Zn  Zn153  1  0.31352435  0.06275255  0.56241185  1
  Zn  Zn154  1  0.31194459  0.56273588  0.06307421  1
  Zn  Zn155  1  0.31360828  0.56305805  0.56239499  1
  Zn  Zn156  1  0.81111816  0.06289127  0.06153066  1
  Zn  Zn157  1  0.81300377  0.06192165  0.56324023  1
  Zn  Zn158  1  0.81317538  0.56239650  0.06435252  1
  Zn  Zn159  1  0.81374723  0.56172346  0.55988485  1
  Zn  Zn160  1  0.43800829  0.43920459  0.18796905  1
  Zn  Zn161  1  0.43589256  0.43755259  0.68824117  1
  Zn  Zn162  1  0.43781918  0.93902631  0.18661333  1
  Zn  Zn163  1  0.43788059  0.93745668  0.68587915  1
  Zn  Zn164  1  0.93549936  0.43627463  0.18726360  1
  Zn  Zn165  1  0.93498212  0.43881618  0.68797845  1
  Zn  Zn166  1  0.93716375  0.93569462  0.18885539  1
  Zn  Zn167  1  0.93952914  0.93858619  0.68774214  1
  Zn  Zn168  1  0.06224441  0.06156836  0.31358145  1
  Zn  Zn169  1  0.06287846  0.06256779  0.81177951  1
  Zn  Zn170  1  0.06349197  0.56186590  0.31108477  1
  Zn  Zn171  1  0.06124094  0.56378580  0.81194079  1
  Zn  Zn172  1  0.56153585  0.06281760  0.31211993  1
  Zn  Zn173  1  0.56245363  0.06172931  0.81175302  1
  Zn  Zn174  1  0.56364737  0.56268586  0.31199411  1
  Zn  Zn175  1  0.56327167  0.55999797  0.81448734  1
  Zn  Zn176  1  0.43715941  0.18681517  0.43566747  1
  Zn  Zn177  1  0.43700751  0.18925582  0.93794338  1
  Zn  Zn178  1  0.43814533  0.68717781  0.43816715  1
  Zn  Zn179  1  0.43736896  0.69010189  0.93854466  1
  Zn  Zn180  1  0.93659318  0.18925984  0.43926015  1
  Zn  Zn181  1  0.93775348  0.18867245  0.93783062  1
  Zn  Zn182  1  0.93748161  0.68623193  0.43706363  1
  Zn  Zn183  1  0.93560210  0.68655091  0.93801593  1
  Zn  Zn184  1  0.06195257  0.31274058  0.06118140  1
  Zn  Zn185  1  0.06362186  0.31200099  0.56139372  1
  Zn  Zn186  1  0.06281733  0.81100741  0.06349719  1
  Zn  Zn187  1  0.06270838  0.81276325  0.56191494  1
  Zn  Zn188  1  0.56158731  0.30949432  0.06245076  1
  Zn  Zn189  1  0.56330779  0.31300726  0.56124809  1
  Zn  Zn190  1  0.56343036  0.81172973  0.06295328  1
  Zn  Zn191  1  0.56185164  0.81212634  0.56365959  1
  O  O192  1  0.11963027  0.11969227  0.12050521  1
  O  O193  1  0.12124402  0.12040734  0.62043284  1
  O  O194  1  0.12191044  0.62110853  0.11552428  1
  O  O195  1  0.12045327  0.62022217  0.62029818  1
  O  O196  1  0.62808618  0.11873021  0.11444044  1
  O  O197  1  0.61975407  0.12067436  0.61923036  1
  O  O198  1  0.61975797  0.62028800  0.12063291  1
  O  O199  1  0.61918537  0.61959465  0.62060528  1
  O  O200  1  0.38116837  0.38175144  0.37555269  1
  O  O201  1  0.37806208  0.38060211  0.88230855  1
  O  O202  1  0.37941958  0.88035909  0.38003683  1
  O  O203  1  0.38555842  0.88089971  0.87294942  1
  O  O204  1  0.88843928  0.37355920  0.37306489  1
  O  O205  1  0.88175311  0.38122008  0.87546297  1
  O  O206  1  0.87979480  0.87941366  0.38043093  1
  O  O207  1  0.88107431  0.88049731  0.88075319  1
  O  O208  1  0.24820308  0.00729850  0.36808709  1
  O  O209  1  0.25461265  0.00476657  0.86844223  1
  O  O210  1  0.25490905  0.50496082  0.36989777  1
  O  O211  1  0.25330260  0.50631158  0.86870836  1
  O  O212  1  0.75493155  0.00527223  0.36972936  1
  O  O213  1  0.75789480  0.01061722  0.87297979  1
  O  O214  1  0.74890478  0.49832964  0.36357409  1
  O  O215  1  0.75430201  0.50435556  0.87094050  1
  O  O216  1  0.24836786  0.48942612  0.13061201  1
  O  O217  1  0.24425761  0.49548855  0.63049240  1
  O  O218  1  0.24203404  0.99397115  0.13112602  1
  O  O219  1  0.24486317  0.99530319  0.63080909  1
  O  O220  1  0.74502077  0.49390170  0.13354025  1
  O  O221  1  0.74452735  0.49318068  0.63006402  1
  O  O222  1  0.74549271  0.99438619  0.13079002  1
  O  O223  1  0.74207512  0.99746952  0.62802398  1
  O  O224  1  0.00626250  0.36849816  0.25589467  1
  O  O225  1  0.00561272  0.37053821  0.75429482  1
  O  O226  1  0.00626453  0.86961928  0.25599225  1
  O  O227  1  0.00704338  0.87058788  0.75666234  1
  O  O228  1  0.50656446  0.37495070  0.25647901  1
  O  O229  1  0.49814863  0.37506788  0.76235390  1
  O  O230  1  0.50766990  0.86920670  0.25070944  1
  O  O231  1  0.50793197  0.87069932  0.75673150  1
  O  O232  1  0.48785580  0.12463147  0.24880469  1
  O  O233  1  0.49301269  0.12498820  0.74309778  1
  O  O234  1  0.49535988  0.63028705  0.24481922  1
  O  O235  1  0.49560917  0.62898940  0.74678643  1
  O  O236  1  0.99507686  0.12944916  0.24474753  1
  O  O237  1  0.99684414  0.13087289  0.74511539  1
  O  O238  1  0.99956502  0.63314021  0.24796104  1
  O  O239  1  0.99899166  0.63330490  0.74343664  1
  O  O240  1  0.36994807  0.26358658  0.00038333  1
  O  O241  1  0.36793418  0.25027031  0.50592855  1
  O  O242  1  0.36567944  0.75369798  0.00221969  1
  O  O243  1  0.36688428  0.75045798  0.50234336  1
  O  O244  1  0.87393873  0.25125563  0.00880115  1
  O  O245  1  0.86556465  0.25404025  0.50255999  1
  O  O246  1  0.87022118  0.75695682  0.00585297  1
  O  O247  1  0.87586396  0.75611191  0.51010378  1
  O  O248  1  0.13193481  0.24359682  0.49442046  1
  O  O249  1  0.12535048  0.24284945  0.99269193  1
  O  O250  1  0.13065511  0.74412306  0.49404180  1
  O  O251  1  0.12942985  0.74512127  0.99330919  1
  O  O252  1  0.63047377  0.24345803  0.49332642  1
  O  O253  1  0.62845080  0.23736848  0.99604391  1
  O  O254  1  0.62399605  0.74465715  0.49181925  1
  O  O255  1  0.63344170  0.74405292  0.99938172  1
  O  O256  1  0.49545375  0.24441989  0.12858408  1
  O  O257  1  0.49327298  0.24391240  0.62347156  1
  O  O258  1  0.49964629  0.74363780  0.13232765  1
  O  O259  1  0.49933477  0.74175236  0.63214958  1
  O  O260  1  0.99608179  0.24382031  0.13052369  1
  O  O261  1  1.00071074  0.24423011  0.63164141  1
  O  O262  1  0.99336348  0.75024555  0.13157534  1
  O  O263  1  0.99348421  0.74589497  0.63031676  1
  O  O264  1  0.00598460  0.25595076  0.36874276  1
  O  O265  1  0.00625207  0.25509150  0.86885020  1
  O  O266  1  0.00663471  0.75599921  0.36981734  1
  O  O267  1  0.00489032  0.75614447  0.87077061  1
  O  O268  1  0.50693355  0.25606385  0.37294973  1
  O  O269  1  0.49760243  0.26340379  0.87357157  1
  O  O270  1  0.51116559  0.74976404  0.36927875  1
  O  O271  1  0.50217316  0.76018033  0.86871212  1
  O  O272  1  0.24452409  0.13034875  0.49470110  1
  O  O273  1  0.24265704  0.12503386  0.99347444  1
  O  O274  1  0.24448324  0.62992152  0.49438831  1
  O  O275  1  0.24408421  0.62961362  0.99348979  1
  O  O276  1  0.74473943  0.12966964  0.49420816  1
  O  O277  1  0.74289031  0.12501557  0.98998295  1
  O  O278  1  0.74031391  0.62826009  0.49889850  1
  O  O279  1  0.74494113  0.63038055  0.99626821  1
  O  O280  1  0.25631626  0.37640246  0.00714877  1
  O  O281  1  0.25060223  0.36803699  0.50611716  1
  O  O282  1  0.24924558  0.86873092  0.00678820  1
  O  O283  1  0.24882271  0.86839754  0.50702877  1
  O  O284  1  0.75191764  0.37258711  0.00861214  1
  O  O285  1  0.74821454  0.36940439  0.50925228  1
  O  O286  1  0.75565176  0.87109009  0.00492732  1
  O  O287  1  0.75947048  0.87023150  0.50339887  1
  O  O288  1  0.13277895  0.49233547  0.24819510  1
  O  O289  1  0.13008987  0.49527491  0.74480046  1
  O  O290  1  0.12917393  0.99436174  0.24483610  1
  O  O291  1  0.13153328  0.99469165  0.74550626  1
  O  O292  1  0.63244776  0.49390869  0.24491691  1
  O  O293  1  0.63097557  0.49691275  0.74353788  1
  O  O294  1  0.63095341  0.99567333  0.24496307  1
  O  O295  1  0.62492431  0.99027190  0.74368714  1
  O  O296  1  0.36749731  0.00923649  0.25091293  1
  O  O297  1  0.36959652  0.00601232  0.75457129  1
  O  O298  1  0.36920362  0.50625240  0.25637241  1
  O  O299  1  0.36753896  0.50636308  0.75558758  1
  O  O300  1  0.86900646  0.00451396  0.25527420  1
  O  O301  1  0.87610544  0.00667107  0.75757270  1
  O  O302  1  0.86348299  0.49971348  0.25183833  1
  O  O303  1  0.86715504  0.50321724  0.75666912  1
  O  O304  1  0.11870473  0.36822389  0.36898013  1
  O  O305  1  0.11998620  0.37032377  0.86824509  1
  O  O306  1  0.12015198  0.86926360  0.36997881  1
  O  O307  1  0.11996332  0.87062085  0.86987262  1
  O  O308  1  0.61936349  0.36904147  0.36950082  1
  O  O309  1  0.61179431  0.37526580  0.87779577  1
  O  O310  1  0.62333384  0.86565699  0.36928330  1
  O  O311  1  0.61718659  0.87655322  0.86614897  1
  O  O312  1  0.37284291  0.12553816  0.13470073  1
  O  O313  1  0.37964961  0.13052627  0.63059075  1
  O  O314  1  0.38064497  0.62577105  0.13219238  1
  O  O315  1  0.38196872  0.62469716  0.63302820  1
  O  O316  1  0.88064310  0.12818114  0.13088065  1
  O  O317  1  0.88239139  0.12593563  0.63137881  1
  O  O318  1  0.87710991  0.63443103  0.12842212  1
  O  O319  1  0.88143108  0.63539240  0.62569395  1
  O  O320  1  0.25196863  0.26387620  0.12299565  1
  O  O321  1  0.25479981  0.25532974  0.61971656  1
  O  O322  1  0.24931957  0.75624831  0.11858707  1
  O  O323  1  0.25033098  0.75644527  0.61878348  1
  O  O324  1  0.75745822  0.25583534  0.12519585  1
  O  O325  1  0.74889962  0.25907458  0.61942351  1
  O  O326  1  0.75528273  0.75666615  0.12062011  1
  O  O327  1  0.76329393  0.75184517  0.62635576  1
  O  O328  1  0.24415139  0.24485151  0.37971800  1
  O  O329  1  0.24273196  0.24285988  0.87490854  1
  O  O330  1  0.24404476  0.74376999  0.37967063  1
  O  O331  1  0.24370469  0.74525774  0.87934048  1
  O  O332  1  0.74441778  0.24459535  0.37946129  1
  O  O333  1  0.75118087  0.23708352  0.87582960  1
  O  O334  1  0.73613406  0.74842409  0.37479108  1
  O  O335  1  0.74959031  0.74392415  0.88297491  1
  O  O336  1  0.00540324  0.11846992  0.00571905  1
  O  O337  1  0.00737846  0.12487831  0.50598285  1
  O  O338  1  0.00499245  0.61547882  -0.00105520  1
  O  O339  1  0.00860056  0.62447512  0.50677787  1
  O  O340  1  0.51195474  0.12225935  -0.00278940  1
  O  O341  1  0.50626193  0.11771376  0.50466191  1
  O  O342  1  0.50586039  0.62499676  0.00666271  1
  O  O343  1  0.50557619  0.61848914  0.50649249  1
  O  O344  1  0.49908382  0.38215332  0.49260325  1
  O  O345  1  0.48912416  0.37767907  0.99351168  1
  O  O346  1  0.50057287  0.88737549  0.50072843  1
  O  O347  1  0.50131277  0.87576139  0.98693041  1
  O  O348  1  1.00090433  0.37428832  0.48780246  1
  O  O349  1  0.99968811  0.38447586  0.99230945  1
  O  O350  1  0.99403467  0.87682304  0.49292298  1
  O  O351  1  0.99520389  0.88036429  0.99498536  1
  O  O352  1  0.49564887  0.49496355  0.37978627  1
  O  O353  1  0.49162009  0.49134856  0.87800460  1
  O  O354  1  0.50121042  0.99976220  0.38766343  1
  O  O355  1  0.49410126  0.98999547  0.87360720  1
  O  O356  1  1.00205839  0.48657882  0.37439852  1
  O  O357  1  0.99456337  0.49542844  0.88051040  1
  O  O358  1  0.99287783  0.99317823  0.37547409  1
  O  O359  1  0.99635501  0.99485980  0.88132282  1
  O  O360  1  0.00478332  0.00472434  0.12079270  1
  O  O361  1  0.00875453  0.00749084  0.62465662  1
  O  O362  1  0.00051826  0.49932020  0.11308211  1
  O  O363  1  0.00691309  0.50624139  0.62576937  1
  O  O364  1  0.50947639  0.00339355  0.12145881  1
  O  O365  1  0.50603399  0.00661273  0.61711835  1
  O  O366  1  0.50715585  0.50777743  0.12500341  1
  O  O367  1  0.50505102  0.50431980  0.62062847  1
  O  O368  1  0.24639543  0.37951372  0.24264707  1
  O  O369  1  0.24409489  0.38140772  0.74471232  1
  O  O370  1  0.24334732  0.87958427  0.24571458  1
  O  O371  1  0.24487369  0.87999860  0.74558903  1
  O  O372  1  0.74375095  0.38222415  0.24460285  1
  O  O373  1  0.74821670  0.38071925  0.74127734  1
  O  O374  1  0.74408871  0.88106807  0.24464926  1
  O  O375  1  0.73845666  0.87693975  0.75078609  1
  O  O376  1  0.25533941  0.11973116  0.25439078  1
  O  O377  1  0.25517825  0.11862640  0.75520005  1
  O  O378  1  0.25440665  0.61971919  0.25558325  1
  O  O379  1  0.25390589  0.62058505  0.75563393  1
  O  O380  1  0.75533838  0.11913924  0.25579190  1
  O  O381  1  0.75632966  0.12380547  0.75860523  1
  O  O382  1  0.74895249  0.61203317  0.25158432  1
  O  O383  1  0.75042011  0.61851491  0.75774993  1
  O  O384  1  0.36756681  0.12256060  0.36558295  1
  O  O385  1  0.36934832  0.12002127  0.86980535  1
  O  O386  1  0.36979528  0.61885837  0.36905070  1
  O  O387  1  0.36903359  0.62025325  0.87003077  1
  O  O388  1  0.86986027  0.11977420  0.36934660  1
  O  O389  1  0.86964481  0.12032201  0.87052486  1
  O  O390  1  0.87115544  0.62305341  0.37016815  1
  O  O391  1  0.86723851  0.61872253  0.87357445  1
  O  O392  1  0.13368114  0.37569372  0.12991920  1
  O  O393  1  0.13062780  0.38020307  0.63067151  1
  O  O394  1  0.12927647  0.88066943  0.13129691  1
  O  O395  1  0.13016011  0.88057442  0.63153628  1
  O  O396  1  0.62987478  0.37991479  0.12995552  1
  O  O397  1  0.63480017  0.38123405  0.62532575  1
  O  O398  1  0.63155598  0.88043414  0.13041224  1
  O  O399  1  0.62515630  0.87990589  0.63551123  1
  O  O400  1  0.12007641  0.25436982  0.25516967  1
  O  O401  1  0.12040006  0.25614661  0.75512664  1
  O  O402  1  0.12031007  0.75525395  0.25597030  1
  O  O403  1  0.12009626  0.75623212  0.75580446  1
  O  O404  1  0.62535633  0.25598885  0.25673527  1
  O  O405  1  0.61897520  0.25455757  0.75621210  1
  O  O406  1  0.62024563  0.75480278  0.25707091  1
  O  O407  1  0.61940334  0.76011917  0.75188941  1
  O  O408  1  0.37462303  0.23733729  0.24821849  1
  O  O409  1  0.37566142  0.24283777  0.74231994  1
  O  O410  1  0.38202217  0.74272229  0.25009061  1
  O  O411  1  0.38187617  0.74243454  0.74840512  1
  O  O412  1  0.88099758  0.24243601  0.24441077  1
  O  O413  1  0.88369583  0.24280859  0.74754485  1
  O  O414  1  0.88140800  0.75204443  0.24361556  1
  O  O415  1  0.88203057  0.75100212  0.74117219  1
  O  O416  1  0.38141815  0.49914390  0.49286250  1
  O  O417  1  0.37410998  0.49064367  0.99375485  1
  O  O418  1  0.38724896  1.00103882  0.49927527  1
  O  O419  1  0.37704277  0.99599334  0.99054517  1
  O  O420  1  0.87960029  0.49423563  0.49532871  1
  O  O421  1  0.88422568  0.49849049  0.99361528  1
  O  O422  1  0.87708156  0.99365677  0.49318946  1
  O  O423  1  0.88116093  0.99470069  0.99548226  1
  O  O424  1  0.11910233  0.00507355  0.00594040  1
  O  O425  1  0.12401404  0.00722094  0.50721567  1
  O  O426  1  0.11415530  0.50582944  -0.00183471  1
  O  O427  1  0.12397501  0.50679318  0.50703340  1
  O  O428  1  0.62576400  0.00940268  0.00526872  1
  O  O429  1  0.61875197  0.00529678  0.50498851  1
  O  O430  1  0.62373844  0.50834899  0.00896328  1
  O  O431  1  0.61855094  0.50574710  0.50599017  1
  O  O432  1  0.36663508  0.37745548  0.11677157  1
  O  O433  1  0.36754929  0.36924848  0.62336151  1
  O  O434  1  0.36599027  0.87316043  0.12408763  1
  O  O435  1  0.36697848  0.87281662  0.62247850  1
  O  O436  1  0.86849180  0.36652642  0.12451161  1
  O  O437  1  0.86134748  0.37397695  0.62459286  1
  O  O438  1  0.86918121  0.87069906  0.11936965  1
  O  O439  1  0.87759936  0.86664835  0.62003610  1
  O  O440  1  0.12967827  0.13047072  0.37959788  1
  O  O441  1  0.12981617  0.12930701  0.87975678  1
  O  O442  1  0.13127333  0.63004252  0.37996827  1
  O  O443  1  0.13018942  0.63157277  0.87936407  1
  O  O444  1  0.63155578  0.12982427  0.37960051  1
  O  O445  1  0.63443028  0.12256802  0.88137231  1
  O  O446  1  0.62524800  0.63402236  0.38098237  1
  O  O447  1  0.63103646  0.62608604  0.88289304  1
