# generated using pymatgen
data_V3Zn3O8
_symmetry_space_group_name_H-M   'P 1'
_cell_length_a   17.08861443
_cell_length_b   17.08678116
_cell_length_c   17.08849377
_cell_angle_alpha   90.00006039
_cell_angle_beta   90.00027396
_cell_angle_gamma   90.01526003
_symmetry_Int_Tables_number   1
_chemical_formula_structural   V3Zn3O8
_chemical_formula_sum   'V96 Zn96 O256'
_cell_volume   4989.65912311
_cell_formula_units_Z   32
loop_
 _symmetry_equiv_pos_site_id
 _symmetry_equiv_pos_as_xyz
  1  'x, y, z'
loop_
 _atom_site_type_symbol
 _atom_site_label
 _atom_site_symmetry_multiplicity
 _atom_site_fract_x
 _atom_site_fract_y
 _atom_site_fract_z
 _atom_site_occupancy
  V  V0  1  0.87560019  0.62568786  0.75007184  1
  V  V1  1  0.87572889  0.62471773  0.25093434  1
  V  V2  1  0.25004074  0.37457889  0.12515410  1
  V  V3  1  0.24892954  0.50043320  0.25031429  1
  V  V4  1  0.24931009  0.87461456  0.12493770  1
  V  V5  1  0.24970175  0.74894144  0.00053611  1
  V  V6  1  0.50151459  0.37470300  0.87543661  1
  V  V7  1  0.62431837  0.75171319  0.37378955  1
  V  V8  1  0.12548441  0.75086558  0.37426065  1
  V  V9  1  0.37460060  0.12478817  0.24912556  1
  V  V10  1  0.62602681  0.62586715  0.50051489  1
  V  V11  1  0.37607004  0.12497607  0.74909236  1
  V  V12  1  0.75095672  0.37234355  0.12341820  1
  V  V13  1  0.12479779  0.74921807  0.87433433  1
  V  V14  1  0.25040149  0.00011078  0.74948443  1
  V  V15  1  0.87599846  0.74960345  0.62608112  1
  V  V16  1  0.00046938  0.62526307  0.62570425  1
  V  V17  1  0.37428848  0.87547157  0.49954987  1
  V  V18  1  0.75032453  0.50007005  0.75067471  1
  V  V19  1  0.87597119  0.87567444  0.50061311  1
  V  V20  1  0.24904666  -0.00090139  0.24787604  1
  V  V21  1  0.12525158  0.87443841  0.74972858  1
  V  V22  1  0.37580586  0.74836112  0.12572244  1
  V  V23  1  -0.00046145  0.62418370  0.12542974  1
  V  V24  1  0.49882834  0.25172378  0.25046895  1
  V  V25  1  0.12444330  0.62503198  0.50068607  1
  V  V26  1  0.75066053  0.37541150  0.62524113  1
  V  V27  1  0.00140325  0.00017279  0.50010192  1
  V  V28  1  0.87597113  0.25022658  0.62553750  1
  V  V29  1  0.87479240  0.37546499  0.49968939  1
  V  V30  1  0.62432474  0.87437185  0.75008674  1
  V  V31  1  0.62522180  0.00108711  0.62344923  1
  V  V32  1  -0.00046979  0.12512765  0.12334343  1
  V  V33  1  0.24874770  0.37582671  0.62588776  1
  V  V34  1  0.75049309  0.49976673  0.25155670  1
  V  V35  1  0.37461352  0.50003218  0.87472731  1
  V  V36  1  0.74967746  0.24988118  0.49968976  1
  V  V37  1  0.74829533  0.12550204  0.87542596  1
  V  V38  1  -0.00027710  0.37452396  0.37347795  1
  V  V39  1  0.00001231  0.87536999  0.37336787  1
  V  V40  1  0.74981486  0.62492962  0.87640139  1
  V  V41  1  0.50035224  0.49963382  0.00089563  1
  V  V42  1  0.49880940  0.37604439  0.37532058  1
  V  V43  1  0.87311755  0.87412502  0.00056692  1
  V  V44  1  0.24906087  0.62542690  0.37524436  1
  V  V45  1  0.37529748  0.62498442  0.75018637  1
  V  V46  1  0.62508669  0.37453568  0.75067531  1
  V  V47  1  0.12463067  0.50044780  0.62531275  1
  V  V48  1  0.62496651  -0.00062863  0.12556525  1
  V  V49  1  0.87477096  0.50004103  0.37535032  1
  V  V50  1  0.37486311  0.75096543  0.62421835  1
  V  V51  1  -0.00006375  0.37453958  0.87553384  1
  V  V52  1  0.62345656  0.37573887  0.25151625  1
  V  V53  1  0.87488968  0.74901528  0.12522328  1
  V  V54  1  0.12567542  0.37491134  0.74945503  1
  V  V55  1  0.12585373  0.24858480  0.87463999  1
  V  V56  1  0.62577843  0.12538913  -0.00109236  1
  V  V57  1  0.37506470  0.25001597  0.62548161  1
  V  V58  1  0.37539338  0.00091462  0.37392762  1
  V  V59  1  0.37546826  -0.00141315  0.87475774  1
  V  V60  1  0.87499317  0.12716840  0.24852063  1
  V  V61  1  0.50101221  0.75135463  0.75058607  1
  V  V62  1  0.49912025  0.50063241  0.50087524  1
  V  V63  1  0.49975730  -0.00115439  -0.00031479  1
  V  V64  1  0.87588260  0.49895134  0.87584913  1
  V  V65  1  0.75021825  -0.00002962  0.74916313  1
  V  V66  1  0.62524339  0.50056604  0.62553714  1
  V  V67  1  0.87531824  0.12493219  0.74949180  1
  V  V68  1  0.12566572  0.49870696  0.12503334  1
  V  V69  1  0.87413623  -0.00089679  0.87456432  1
  V  V70  1  0.75029288  0.74895363  0.00073765  1
  V  V71  1  0.37385698  0.37576074  0.50080987  1
  V  V72  1  0.25003327  0.12476755  0.87542504  1
  V  V73  1  0.75103351  0.87546082  0.62512861  1
  V  V74  1  0.74770509  -0.00115937  0.24947022  1
  V  V75  1  0.50020031  0.12534503  0.12467116  1
  V  V76  1  0.12467378  0.12463343  0.50006869  1
  V  V77  1  0.50087590  0.00308670  0.49949635  1
  V  V78  1  0.62403506  0.50044553  0.12668949  1
  V  V79  1  0.74876504  0.12669772  0.37619238  1
  V  V80  1  0.49915428  0.62596089  0.12676251  1
  V  V81  1  0.25069944  0.24878516  -0.00029121  1
  V  V82  1  0.62579650  0.62578803  0.00083490  1
  V  V83  1  0.37285002  0.50217175  0.37577211  1
  V  V84  1  -0.00008127  0.24940177  0.74969374  1
  V  V85  1  0.37525382  0.87449872  -0.00095959  1
  V  V86  1  0.50036082  0.25011864  0.75022917  1
  V  V87  1  -0.00077015  -0.00087968  -0.00054541  1
  V  V88  1  0.12606957  0.00004823  0.62453906  1
  V  V89  1  0.37432065  0.25075111  0.12418927  1
  V  V90  1  0.50026031  0.62557845  0.62572339  1
  V  V91  1  0.24899019  0.25001803  0.49962808  1
  V  V92  1  0.12569299  0.62449151  -0.00028506  1
  V  V93  1  0.00025149  0.49791005  -0.00036182  1
  V  V94  1  0.75011859  0.75002577  0.50051755  1
  V  V95  1  0.12435044  0.24972285  0.37309808  1
  Zn  Zn96  1  0.74813411  0.87291340  0.12580938  1
  Zn  Zn97  1  0.24938523  0.12511844  0.37359955  1
  Zn  Zn98  1  0.25110454  0.75034984  0.50073680  1
  Zn  Zn99  1  0.62317186  0.87368161  0.24902670  1
  Zn  Zn100  1  0.75170055  0.62508941  0.37593288  1
  Zn  Zn101  1  0.50241402  0.12696539  0.62507036  1
  Zn  Zn102  1  0.12390314  0.37348002  0.24837857  1
  Zn  Zn103  1  -0.00017798  0.75065906  0.75087171  1
  Zn  Zn104  1  0.25006771  0.50076394  0.75048319  1
  Zn  Zn105  1  0.87523731  0.00054014  0.37570869  1
  Zn  Zn106  1  0.49962910  0.75202633  0.25011771  1
  Zn  Zn107  1  0.50091217  0.87343818  0.87479455  1
  Zn  Zn108  1  0.75046717  0.24999029  -0.00189465  1
  Zn  Zn109  1  -0.00095708  0.75084926  0.24859211  1
  Zn  Zn110  1  0.12556068  0.12250576  -0.00002224  1
  Zn  Zn111  1  0.62274824  0.25156954  0.37755521  1
  Zn  Zn112  1  0.37589677  0.62756188  0.25154376  1
  Zn  Zn113  1  0.62472710  0.12778468  0.50130536  1
  Zn  Zn114  1  0.12377147  -0.00252284  0.12381154  1
  Zn  Zn115  1  -0.00165336  0.87436427  0.87447598  1
  Zn  Zn116  1  0.62559605  0.24990307  0.87608646  1
  Zn  Zn117  1  0.50110016  0.87613469  0.37111111  1
  Zn  Zn118  1  0.24981802  0.62279088  0.87353326  1
  Zn  Zn119  1  0.87443934  0.37224438  -0.00018015  1
  Zn  Zn120  1  0.87612465  0.25190789  0.12112281  1
  Zn  Zn121  1  0.62390597  0.75125769  0.87619745  1
  Zn  Zn122  1  0.12281861  0.87522582  0.24731147  1
  Zn  Zn123  1  0.00083210  0.24948900  0.24653259  1
  Zn  Zn124  1  0.37654244  0.37447357  0.00044808  1
  Zn  Zn125  1  0.00038546  0.12508056  0.62489572  1
  Zn  Zn126  1  0.25013508  0.87396850  0.62359099  1
  Zn  Zn127  1  -0.00108144  0.50115383  0.50019820  1
  Zn  Zn128  1  0.18602734  0.18528842  0.18576586  1
  Zn  Zn129  1  0.18768463  0.18682752  0.68716561  1
  Zn  Zn130  1  0.18740092  0.68688579  0.18897303  1
  Zn  Zn131  1  0.19135719  0.68718528  0.68729934  1
  Zn  Zn132  1  0.68420823  0.18899758  0.18795292  1
  Zn  Zn133  1  0.68700567  0.18728974  0.68737007  1
  Zn  Zn134  1  0.68926529  0.68602557  0.18887976  1
  Zn  Zn135  1  0.68801307  0.68856585  0.68856264  1
  Zn  Zn136  1  0.31116435  0.31453923  0.31165206  1
  Zn  Zn137  1  0.31325533  0.31304077  0.81258772  1
  Zn  Zn138  1  0.31373310  0.81305550  0.31206198  1
  Zn  Zn139  1  0.31192753  0.81204165  0.81277447  1
  Zn  Zn140  1  0.81234668  0.31158045  0.31097351  1
  Zn  Zn141  1  0.81234320  0.31131310  0.81349172  1
  Zn  Zn142  1  0.81239482  0.81142987  0.31307678  1
  Zn  Zn143  1  0.81096875  0.81196283  0.81390888  1
  Zn  Zn144  1  0.18585971  0.43836406  0.43877396  1
  Zn  Zn145  1  0.18873605  0.43490788  0.93845281  1
  Zn  Zn146  1  0.18866493  0.93808694  0.43546798  1
  Zn  Zn147  1  0.18729033  0.93672069  0.93733288  1
  Zn  Zn148  1  0.68703084  0.43772388  0.43746581  1
  Zn  Zn149  1  0.68657801  0.43869651  0.93839462  1
  Zn  Zn150  1  0.68774056  0.93763795  0.43697262  1
  Zn  Zn151  1  0.68674167  0.93656023  0.93701175  1
  Zn  Zn152  1  0.31357168  0.06230936  0.06202773  1
  Zn  Zn153  1  0.31112627  0.06385425  0.56291668  1
  Zn  Zn154  1  0.31263972  0.56314268  0.06209246  1
  Zn  Zn155  1  0.31018418  0.56397018  0.56306623  1
  Zn  Zn156  1  0.81155767  0.06243282  0.06229174  1
  Zn  Zn157  1  0.81462099  0.06251626  0.56235950  1
  Zn  Zn158  1  0.81317219  0.56027241  0.06299961  1
  Zn  Zn159  1  0.81313576  0.56275338  0.56196826  1
  Zn  Zn160  1  0.43465518  0.43917885  0.18908014  1
  Zn  Zn161  1  0.43798890  0.43680805  0.68870991  1
  Zn  Zn162  1  0.43843041  0.93444829  0.18743629  1
  Zn  Zn163  1  0.43895972  0.93756212  0.68545989  1
  Zn  Zn164  1  0.93698004  0.43798343  0.18843384  1
  Zn  Zn165  1  0.93894711  0.43812511  0.68822264  1
  Zn  Zn166  1  0.93353451  0.93779267  0.18714084  1
  Zn  Zn167  1  0.94015676  0.93761652  0.68699291  1
  Zn  Zn168  1  0.06369276  0.06169014  0.31176661  1
  Zn  Zn169  1  0.06212088  0.06276360  0.81290629  1
  Zn  Zn170  1  0.06221937  0.56211232  0.31150434  1
  Zn  Zn171  1  0.06195274  0.56187998  0.81130138  1
  Zn  Zn172  1  0.56298361  0.06487428  0.31322971  1
  Zn  Zn173  1  0.56201387  0.06170337  0.81259497  1
  Zn  Zn174  1  0.56204076  0.56526510  0.31305828  1
  Zn  Zn175  1  0.56250448  0.56367561  0.81363710  1
  Zn  Zn176  1  0.43523774  0.18771850  0.43627042  1
  Zn  Zn177  1  0.43794929  0.18717635  0.93680490  1
  Zn  Zn178  1  0.43896234  0.68800176  0.43720029  1
  Zn  Zn179  1  0.43892993  0.68734170  0.93743156  1
  Zn  Zn180  1  0.93722506  0.18731676  0.43783564  1
  Zn  Zn181  1  0.93380374  0.18901109  0.93771533  1
  Zn  Zn182  1  0.93881223  0.68768948  0.43852890  1
  Zn  Zn183  1  0.93857330  0.68649922  0.93837322  1
  Zn  Zn184  1  0.06466271  0.31094294  0.06027428  1
  Zn  Zn185  1  0.06155623  0.31301426  0.56142616  1
  Zn  Zn186  1  0.06168007  0.81290308  0.06240600  1
  Zn  Zn187  1  0.06228233  0.81187506  0.56230977  1
  Zn  Zn188  1  0.56393396  0.31186794  0.06176828  1
  Zn  Zn189  1  0.56278130  0.31257119  0.56286256  1
  Zn  Zn190  1  0.56316092  0.81316015  0.06395548  1
  Zn  Zn191  1  0.56170933  0.81447088  0.56165864  1
  O  O192  1  0.11162922  0.12021483  0.12258775  1
  O  O193  1  0.12350422  0.11879407  0.61841561  1
  O  O194  1  0.11961806  0.61944893  0.11927078  1
  O  O195  1  0.12044770  0.62097852  0.62099565  1
  O  O196  1  0.61866611  0.11955455  0.12010598  1
  O  O197  1  0.62394190  0.11674368  0.62140013  1
  O  O198  1  0.62025803  0.61879247  0.12043670  1
  O  O199  1  0.62005935  0.61976580  0.62070497  1
  O  O200  1  0.37875244  0.38174721  0.38171518  1
  O  O201  1  0.38225827  0.38474733  0.87528531  1
  O  O202  1  0.37734235  0.88149805  0.38446622  1
  O  O203  1  0.37498905  0.88123048  0.88170956  1
  O  O204  1  0.88213785  0.37825787  0.37887874  1
  O  O205  1  0.88185309  0.38197044  0.87430291  1
  O  O206  1  0.88502947  0.87522413  0.38138675  1
  O  O207  1  0.87647864  0.88117098  0.88105233  1
  O  O208  1  0.25586806  0.00144727  0.36389156  1
  O  O209  1  0.25554677  0.00500230  0.86961047  1
  O  O210  1  0.25330524  0.50493051  0.37105632  1
  O  O211  1  0.26253974  0.49953945  0.87428107  1
  O  O212  1  0.75128689  0.00959312  0.36736828  1
  O  O213  1  0.75531955  0.00507798  0.86808801  1
  O  O214  1  0.75676311  0.50009163  0.36926541  1
  O  O215  1  0.75563076  0.50503430  0.86985598  1
  O  O216  1  0.24494387  0.49496094  0.12926114  1
  O  O217  1  0.24330321  0.49306518  0.62647791  1
  O  O218  1  0.25058570  0.99406896  0.13276398  1
  O  O219  1  0.24378792  0.99812416  0.63205338  1
  O  O220  1  0.74409312  0.49219880  0.13138332  1
  O  O221  1  0.74511385  0.49488542  0.63085904  1
  O  O222  1  0.74432906  1.00159111  0.13542701  1
  O  O223  1  0.74623200  0.99432529  0.62962756  1
  O  O224  1  0.00039703  0.37132467  0.26166146  1
  O  O225  1  0.00587554  0.36905565  0.75578729  1
  O  O226  1  0.00003860  0.87534036  0.26137546  1
  O  O227  1  0.01314407  0.87401568  0.75263245  1
  O  O228  1  0.50336890  0.37176112  0.25588077  1
  O  O229  1  0.50618428  0.37014615  0.75499080  1
  O  O230  1  0.50505194  0.87139718  0.25394151  1
  O  O231  1  0.50658441  0.86914146  0.74931923  1
  O  O232  1  0.49461166  0.13110795  0.24435053  1
  O  O233  1  0.49322837  0.13117440  0.74857342  1
  O  O234  1  0.49755668  0.62792778  0.24161489  1
  O  O235  1  0.49574093  0.63042105  0.74376877  1
  O  O236  1  0.99075701  0.12152139  0.24164399  1
  O  O237  1  0.99315732  0.13131517  0.74885338  1
  O  O238  1  0.99321389  0.62559495  0.24296648  1
  O  O239  1  0.99304423  0.62699663  0.74399555  1
  O  O240  1  0.36919590  0.25062516  0.00655081  1
  O  O241  1  0.36901037  0.25635549  0.50482901  1
  O  O242  1  0.36895141  0.75432509  0.00438107  1
  O  O243  1  0.37720248  0.76061485  0.50437778  1
  O  O244  1  0.86873896  0.25465171  0.00375919  1
  O  O245  1  0.86965945  0.25588448  0.50542679  1
  O  O246  1  0.87032970  0.75371097  0.00519950  1
  O  O247  1  0.86999463  0.75577092  0.50614057  1
  O  O248  1  0.12888666  0.24563278  0.49191746  1
  O  O249  1  0.13233991  0.24574426  0.99175295  1
  O  O250  1  0.12619789  0.74540876  0.48930372  1
  O  O251  1  0.12942911  0.74540157  0.99218479  1
  O  O252  1  0.63319772  0.24849418  0.49812059  1
  O  O253  1  0.62726921  0.24051567  0.99778810  1
  O  O254  1  0.63008229  0.74574371  0.49476205  1
  O  O255  1  0.63200999  0.74285249  1.00010043  1
  O  O256  1  0.49427046  0.24509875  0.13065004  1
  O  O257  1  0.49248673  0.25000941  0.63110286  1
  O  O258  1  0.49367051  0.74265380  0.12443219  1
  O  O259  1  0.49498822  0.74448638  0.62976755  1
  O  O260  1  0.99938144  0.23840761  0.12574324  1
  O  O261  1  0.99355186  0.24991907  0.63141976  1
  O  O262  1  0.99359022  0.74236122  0.12537178  1
  O  O263  1  0.99336222  0.74398782  0.62693871  1
  O  O264  1  0.00783630  0.25726391  0.37442458  1
  O  O265  1  0.00535198  0.25446654  0.86937232  1
  O  O266  1  0.00802918  0.75942968  0.37515201  1
  O  O267  1  0.01295224  0.75166020  0.87458541  1
  O  O268  1  0.49856368  0.25810937  0.36875682  1
  O  O269  1  0.50098461  0.25682704  0.86822247  1
  O  O270  1  0.51269691  0.75136455  0.37519908  1
  O  O271  1  0.50245929  0.75192758  0.86652834  1
  O  O272  1  0.24334043  0.13222338  0.49658876  1
  O  O273  1  0.24909841  0.12993868  0.99337046  1
  O  O274  1  0.24226847  0.62728448  0.49286654  1
  O  O275  1  0.24258065  0.63116546  0.99793287  1
  O  O276  1  0.75277810  0.13007480  0.48974293  1
  O  O277  1  0.74305056  0.12354433  0.99340048  1
  O  O278  1  0.74368041  0.63191422  0.50021190  1
  O  O279  1  0.74542102  0.62833455  0.99585980  1
  O  O280  1  0.25298803  0.36688587  0.00698322  1
  O  O281  1  0.25457090  0.36984159  0.50583036  1
  O  O282  1  0.25509861  0.86923751  0.00511086  1
  O  O283  1  0.26330729  0.87584992  0.50054766  1
  O  O284  1  0.74893927  0.37597708  0.01257377  1
  O  O285  1  0.75528289  0.37037164  0.50586479  1
  O  O286  1  0.75617265  0.86811529  0.00130310  1
  O  O287  1  0.75646960  0.87099660  0.50619806  1
  O  O288  1  0.13089034  0.49800428  0.24295396  1
  O  O289  1  0.12656823  0.49263572  0.74409028  1
  O  O290  1  0.13740596  0.99853249  0.24813594  1
  O  O291  1  0.13001025  0.99275416  0.74632527  1
  O  O292  1  0.62992840  0.49530099  0.24586333  1
  O  O293  1  0.63050462  0.49551576  0.74439270  1
  O  O294  1  0.63449347  1.00315762  0.24517497  1
  O  O295  1  0.63074400  0.99477756  0.74334109  1
  O  O296  1  0.36812114  0.00489319  0.25341590  1
  O  O297  1  0.37014470  0.00420160  0.75410135  1
  O  O298  1  0.36700894  0.50255544  0.25853107  1
  O  O299  1  0.37689672  0.50527230  0.75968758  1
  O  O300  1  0.86513687  0.01091558  0.25129718  1
  O  O301  1  0.86998629  0.00422018  0.75386041  1
  O  O302  1  0.86998378  0.50500644  0.25644305  1
  O  O303  1  0.86939308  0.50548544  0.75540510  1
  O  O304  1  0.11614882  0.36645505  0.37569803  1
  O  O305  1  0.12011829  0.36868490  0.86923985  1
  O  O306  1  0.11663985  0.86720904  0.37519848  1
  O  O307  1  0.12447030  0.86635861  0.86691949  1
  O  O308  1  0.61667838  0.37540035  0.36935457  1
  O  O309  1  0.61930779  0.37589187  0.86784874  1
  O  O310  1  0.62448809  0.86338764  0.37546329  1
  O  O311  1  0.62295050  0.87285405  0.86572012  1
  O  O312  1  0.38121603  0.13062729  0.13007598  1
  O  O313  1  0.37529264  0.13271974  0.63178087  1
  O  O314  1  0.38129134  0.63089934  0.12526019  1
  O  O315  1  0.38160691  0.62988468  0.62923120  1
  O  O316  1  0.88240336  0.12511444  0.13245288  1
  O  O317  1  0.87653519  0.13200236  0.63160512  1
  O  O318  1  0.88085155  0.62832778  0.13019533  1
  O  O319  1  0.87969420  0.63005027  0.63053398  1
  O  O320  1  0.25447470  0.25362994  0.12011471  1
  O  O321  1  0.25465929  0.25620182  0.61927109  1
  O  O322  1  0.25439930  0.75429453  0.11947533  1
  O  O323  1  0.25902434  0.75307686  0.62073915  1
  O  O324  1  0.74869841  0.26281004  0.12617385  1
  O  O325  1  0.75639063  0.25644999  0.62044901  1
  O  O326  1  0.75725665  0.74924583  0.11845729  1
  O  O327  1  0.75594069  0.75614068  0.62015915  1
  O  O328  1  0.23967349  0.25129104  0.38043756  1
  O  O329  1  0.24613837  0.24461786  0.87941373  1
  O  O330  1  0.24036125  0.74588773  0.37637206  1
  O  O331  1  0.23948492  0.74826018  0.88099138  1
  O  O332  1  0.74987253  0.24193660  0.38019112  1
  O  O333  1  0.74639544  0.24106453  0.87501884  1
  O  O334  1  0.74236279  0.74856144  0.38292446  1
  O  O335  1  0.74906650  0.74155401  0.88259612  1
  O  O336  1  -0.00326079  0.11499798  0.00753058  1
  O  O337  1  0.00602128  0.11818397  0.50067885  1
  O  O338  1  0.00613026  0.61771050  0.00560841  1
  O  O339  1  0.00649529  0.62359542  0.50745803  1
  O  O340  1  0.50459322  0.11876450  0.00542874  1
  O  O341  1  0.49999919  0.11433169  0.50079529  1
  O  O342  1  0.50627980  0.61901081  0.00639230  1
  O  O343  1  0.50565182  0.61933524  0.50684168  1
  O  O344  1  0.49344462  0.38138466  0.49588310  1
  O  O345  1  0.49983277  0.38198635  0.99440069  1
  O  O346  1  0.49097470  0.88650967  0.49880016  1
  O  O347  1  0.49311661  0.88163184  0.99918615  1
  O  O348  1  0.99353238  0.37541182  0.48885380  1
  O  O349  1  1.00015531  0.38086806  0.99280600  1
  O  O350  1  0.99601890  0.87981854  0.49194977  1
  O  O351  1  0.99288015  0.88479159  0.99920458  1
  O  O352  1  0.49371005  0.49616969  0.38186784  1
  O  O353  1  0.49311544  0.49547269  0.88011197  1
  O  O354  1  0.49501165  1.00072688  0.38394309  1
  O  O355  1  0.49248785  0.99826392  0.88172960  1
  O  O356  1  0.99497614  0.48930573  0.37600024  1
  O  O357  1  0.99576933  0.49415534  0.87983510  1
  O  O358  1  1.00055671  0.99020624  0.38043667  1
  O  O359  1  0.99305435  1.00026946  0.88458380  1
  O  O360  1  -0.00246206  0.00710967  0.11563191  1
  O  O361  1  0.00828496  0.00111580  0.61784691  1
  O  O362  1  0.00580241  0.50385688  0.11959384  1
  O  O363  1  0.00634385  0.50637920  0.62355431  1
  O  O364  1  0.50425980  0.00652497  0.11971460  1
  O  O365  1  0.50555372  0.00227274  0.61462606  1
  O  O366  1  0.50459294  0.50464456  0.12067479  1
  O  O367  1  0.50538254  0.50527036  0.62031068  1
  O  O368  1  0.24712570  0.38207902  0.24334259  1
  O  O369  1  0.24325883  0.37536078  0.74330272  1
  O  O370  1  0.25100470  0.88546337  0.24410904  1
  O  O371  1  0.23987842  0.88099884  0.74939837  1
  O  O372  1  0.74420397  0.38011051  0.24363199  1
  O  O373  1  0.74546102  0.38092994  0.74454366  1
  O  O374  1  0.75012041  0.88922487  0.25104736  1
  O  O375  1  0.74558818  0.88085380  0.74388635  1
  O  O376  1  0.25608123  0.11493028  0.24824528  1
  O  O377  1  0.25613025  0.11994064  0.75562494  1
  O  O378  1  0.25055956  0.61791973  0.25790332  1
  O  O379  1  0.25961192  0.62128939  0.75290461  1
  O  O380  1  0.75596843  0.11986596  0.25619132  1
  O  O381  1  0.75564734  0.11862487  0.75434417  1
  O  O382  1  0.75799550  0.61651094  0.25200026  1
  O  O383  1  0.75548678  0.61909415  0.75520962  1
  O  O384  1  0.37160482  0.11945066  0.36673407  1
  O  O385  1  0.36938011  0.11861601  0.86878378  1
  O  O386  1  0.36775900  0.61947779  0.37652891  1
  O  O387  1  0.37607533  0.61463104  0.86984843  1
  O  O388  1  0.86660083  0.12416606  0.36620330  1
  O  O389  1  0.86861192  0.11841049  0.86847492  1
  O  O390  1  0.87541317  0.61832784  0.37016598  1
  O  O391  1  0.87036919  0.61879706  0.87005229  1
  O  O392  1  0.13125381  0.38058909  0.12622579  1
  O  O393  1  0.12907304  0.37961664  0.62953023  1
  O  O394  1  0.13235716  0.87652073  0.12783630  1
  O  O395  1  0.12677265  0.87948948  0.63372915  1
  O  O396  1  0.63073522  0.38146471  0.13180993  1
  O  O397  1  0.63086781  0.38184747  0.63036374  1
  O  O398  1  0.62908396  0.88393551  0.12791918  1
  O  O399  1  0.63185900  0.88096662  0.62918575  1
  O  O400  1  0.12356864  0.24978638  0.26167695  1
  O  O401  1  0.11979617  0.25495458  0.75483224  1
  O  O402  1  0.12198445  0.75165008  0.26276380  1
  O  O403  1  0.12617802  0.75764928  0.75782655  1
  O  O404  1  0.61586016  0.25758201  0.25247782  1
  O  O405  1  0.61857062  0.25746763  0.75003519  1
  O  O406  1  0.62758572  0.75029791  0.26233501  1
  O  O407  1  0.61917085  0.75645897  0.74982633  1
  O  O408  1  0.37883895  0.24515311  0.24437263  1
  O  O409  1  0.38031856  0.24531254  0.74490345  1
  O  O410  1  0.37643649  0.74786662  0.24147884  1
  O  O411  1  0.38041779  0.74541635  0.74465314  1
  O  O412  1  0.87649767  0.23701803  0.24692224  1
  O  O413  1  0.88035589  0.24502584  0.74466542  1
  O  O414  1  0.87585183  0.74307410  0.24388424  1
  O  O415  1  0.87578881  0.74407810  0.74431573  1
  O  O416  1  0.37973346  0.49508875  0.49628234  1
  O  O417  1  0.38158531  0.49928721  0.99025740  1
  O  O418  1  0.38162790  0.99493719  0.49559549  1
  O  O419  1  0.38008615  0.99444439  0.99480404  1
  O  O420  1  0.87583880  0.49276166  0.49404779  1
  O  O421  1  0.88247128  0.49788110  0.99319480  1
  O  O422  1  0.88218451  0.99295659  0.49841350  1
  O  O423  1  0.88085937  0.99464037  0.99483262  1
  O  O424  1  0.11209067  0.00084229  0.00002081  1
  O  O425  1  0.12171962  0.00460063  0.50426339  1
  O  O426  1  0.12043537  0.50474672  0.00464864  1
  O  O427  1  0.12203503  0.50670419  0.50711383  1
  O  O428  1  0.61946858  0.00525635  0.00577855  1
  O  O429  1  0.61590936  0.00049937  0.50410591  1
  O  O430  1  0.61959591  0.50626234  0.00706808  1
  O  O431  1  0.61935038  0.50493991  0.50625089  1
  O  O432  1  0.36855085  0.36843061  0.12398364  1
  O  O433  1  0.36931414  0.37040850  0.62009260  1
  O  O434  1  0.36880415  0.86870953  0.11773446  1
  O  O435  1  0.37479003  0.87039250  0.61515383  1
  O  O436  1  0.86319012  0.37493477  0.12548912  1
  O  O437  1  0.86987393  0.37066664  0.62041454  1
  O  O438  1  0.87176826  0.86768620  0.11884222  1
  O  O439  1  0.87058730  0.86986029  0.62069308  1
  O  O440  1  0.12507019  0.13490563  0.38011353  1
  O  O441  1  0.13242259  0.13096485  0.87486253  1
  O  O442  1  0.12755557  0.63278684  0.38008998  1
  O  O443  1  0.12586508  0.63321884  0.87976413  1
  O  O444  1  0.63816240  0.12867807  0.37647549  1
  O  O445  1  0.63114023  0.12399251  0.88088475  1
  O  O446  1  0.62752650  0.63350460  0.38294618  1
  O  O447  1  0.63233847  0.62490324  0.88270909  1
