# generated using pymatgen
data_V3Zn3O8
_symmetry_space_group_name_H-M   'P 1'
_cell_length_a   17.08759049
_cell_length_b   17.08471632
_cell_length_c   17.08719185
_cell_angle_alpha   89.99463555
_cell_angle_beta   89.99173347
_cell_angle_gamma   90.01830106
_symmetry_Int_Tables_number   1
_chemical_formula_structural   V3Zn3O8
_chemical_formula_sum   'V96 Zn96 O256'
_cell_volume   4988.37698201
_cell_formula_units_Z   32
loop_
 _symmetry_equiv_pos_site_id
 _symmetry_equiv_pos_as_xyz
  1  'x, y, z'
loop_
 _atom_site_type_symbol
 _atom_site_label
 _atom_site_symmetry_multiplicity
 _atom_site_fract_x
 _atom_site_fract_y
 _atom_site_fract_z
 _atom_site_occupancy
  V  V0  1  0.62364988  0.62410860  0.50107057  1
  V  V1  1  0.62554631  0.87588720  0.25086537  1
  V  V2  1  0.87557466  0.00018105  0.87517630  1
  V  V3  1  0.62609860  0.37599626  0.74960416  1
  V  V4  1  -0.00134076  0.74894657  0.75035583  1
  V  V5  1  0.37399876  0.25124622  0.62229389  1
  V  V6  1  0.37453354  0.49945247  0.37515692  1
  V  V7  1  0.12537836  0.62607724  -0.00014243  1
  V  V8  1  0.00023646  0.37556483  0.87434424  1
  V  V9  1  0.00041057  0.25028412  0.74884216  1
  V  V10  1  0.37646378  0.00040594  0.87579732  1
  V  V11  1  0.50104807  0.25013761  0.75053635  1
  V  V12  1  0.37557024  0.87511425  0.00084170  1
  V  V13  1  0.49977405  0.74991592  0.75160275  1
  V  V14  1  0.00039467  0.12562344  0.12398264  1
  V  V15  1  0.87493690  0.87454492  0.50004733  1
  V  V16  1  0.62370730  0.62585201  0.00187641  1
  V  V17  1  0.62409721  0.74964002  0.37627488  1
  V  V18  1  0.62614633  0.12496132  0.49893675  1
  V  V19  1  0.37454560  0.74907625  0.62578270  1
  V  V20  1  0.12365874  0.62418079  0.49896532  1
  V  V21  1  0.12416574  0.50046167  0.12375622  1
  V  V22  1  0.25067051  0.25027500  -0.00061820  1
  V  V23  1  0.24956946  0.37467820  0.12373174  1
  V  V24  1  0.12432310  0.49864140  0.62409895  1
  V  V25  1  0.49897814  0.25078301  0.24868255  1
  V  V26  1  0.24920805  0.12569439  0.37603589  1
  V  V27  1  0.12521360  0.00045947  0.62473477  1
  V  V28  1  0.87541586  0.12478055  0.24958385  1
  V  V29  1  0.37356587  0.62357790  0.75025556  1
  V  V30  1  -0.00256570  0.62587819  0.12474940  1
  V  V31  1  0.49886485  0.37556225  0.37611965  1
  V  V32  1  0.12606747  0.87382353  0.75011887  1
  V  V33  1  -0.00133887  0.74913006  0.24981841  1
  V  V34  1  0.49948611  0.37643290  0.87612051  1
  V  V35  1  0.74925539  0.37557888  0.62511523  1
  V  V36  1  0.25119311  0.12507630  0.87518835  1
  V  V37  1  0.87646599  0.87673900  0.00052992  1
  V  V38  1  -0.00075879  0.87488766  0.37585658  1
  V  V39  1  0.24879176  0.50020438  0.24930404  1
  V  V40  1  0.12661141  -0.00074762  0.12462121  1
  V  V41  1  0.50072186  0.12447672  0.62493278  1
  V  V42  1  0.00080853  0.12366909  0.62452223  1
  V  V43  1  0.62660456  0.00143632  0.12666896  1
  V  V44  1  0.87508061  0.12458081  0.74946396  1
  V  V45  1  0.49908251  0.74982321  0.25095389  1
  V  V46  1  0.24883109  0.62451160  0.37445129  1
  V  V47  1  0.50040010  -0.00025759  0.50075075  1
  V  V48  1  0.75260053  0.62348839  0.87452687  1
  V  V49  1  0.37416560  0.75137465  0.12502500  1
  V  V50  1  0.12615804  0.75012232  0.87541352  1
  V  V51  1  0.74948381  0.62377851  0.37490636  1
  V  V52  1  0.24994383  0.87477963  0.62562489  1
  V  V53  1  -0.00150524  0.62519078  0.62500059  1
  V  V54  1  0.87602257  0.37607616  -0.00126864  1
  V  V55  1  -0.00012940  0.24943084  0.24898283  1
  V  V56  1  -0.00053491  0.49978864  0.49927066  1
  V  V57  1  0.62598446  -0.00054227  0.62581239  1
  V  V58  1  0.87335561  0.50072686  0.37370510  1
  V  V59  1  0.12463759  0.37415889  0.74827215  1
  V  V60  1  0.37450769  0.25057020  0.12455753  1
  V  V61  1  0.37497567  0.87455492  0.50071192  1
  V  V62  1  0.37600564  0.12382865  0.75091057  1
  V  V63  1  0.12508706  0.87548151  0.24975287  1
  V  V64  1  0.12400943  0.75036646  0.37494361  1
  V  V65  1  0.62551919  0.25025976  0.87528649  1
  V  V66  1  0.49996453  0.62392978  0.62523097  1
  V  V67  1  0.25035682  0.75047582  0.00034833  1
  V  V68  1  0.37496821  0.00049905  0.37484915  1
  V  V69  1  0.87447740  0.37476373  0.49946200  1
  V  V70  1  0.74988162  0.24917911  0.49916265  1
  V  V71  1  0.37402612  0.62579158  0.25017685  1
  V  V72  1  0.75105908  0.12483333  0.37430704  1
  V  V73  1  0.12564305  0.12472830  -0.00105062  1
  V  V74  1  0.87510957  0.24950393  0.62425154  1
  V  V75  1  0.24921262  0.74910837  0.50024678  1
  V  V76  1  0.50151970  0.00158167  0.00064767  1
  V  V77  1  0.74941148  0.25103324  -0.00143148  1
  V  V78  1  0.25016966  0.49921815  0.74975204  1
  V  V79  1  0.87566399  -0.00051326  0.37444006  1
  V  V80  1  0.74942067  0.75015069  0.50151570  1
  V  V81  1  0.75038135  0.87466863  0.62558610  1
  V  V82  1  0.37609837  0.12544656  0.25011342  1
  V  V83  1  0.74999092  0.12618589  0.87529489  1
  V  V84  1  0.12537774  0.24903550  0.37530149  1
  V  V85  1  0.49961117  0.87467277  0.37621583  1
  V  V86  1  0.49952189  0.62481394  0.12486861  1
  V  V87  1  0.74998310  -0.00074778  0.74972232  1
  V  V88  1  0.49841170  0.50050739  -0.00039183  1
  V  V89  1  0.62462748  0.49989595  0.62543690  1
  V  V90  1  -0.00045073  0.37473689  0.37398504  1
  V  V91  1  0.62599894  0.37590262  0.24969097  1
  V  V92  1  0.75027036  0.37628955  0.12510922  1
  V  V93  1  0.12413872  0.37486362  0.24926324  1
  V  V94  1  0.75056716  0.75200417  0.00307464  1
  V  V95  1  0.62320189  0.75157599  0.87524619  1
  Zn  Zn96  1  0.25151392  -0.00188850  0.25038217  1
  Zn  Zn97  1  0.87459411  0.75215511  0.12731613  1
  Zn  Zn98  1  0.12416795  0.12550268  0.50005989  1
  Zn  Zn99  1  0.75095732  -0.00063641  0.24979565  1
  Zn  Zn100  1  0.87574178  0.24921719  0.12471277  1
  Zn  Zn101  1  0.37364419  0.49948978  0.87583201  1
  Zn  Zn102  1  0.62437003  0.50161940  0.12534991  1
  Zn  Zn103  1  0.24928698  0.37310812  0.62173081  1
  Zn  Zn104  1  0.37380704  0.37653098  -0.00203034  1
  Zn  Zn105  1  0.62592747  0.12662867  0.00217362  1
  Zn  Zn106  1  0.37281703  0.37587050  0.50015113  1
  Zn  Zn107  1  0.62507424  0.24934403  0.37471047  1
  Zn  Zn108  1  0.25101897  0.87570726  0.12709381  1
  Zn  Zn109  1  0.25053534  0.62407685  0.87584308  1
  Zn  Zn110  1  0.62434377  0.87517582  0.75148209  1
  Zn  Zn111  1  0.00028187  0.50150777  -0.00197947  1
  Zn  Zn112  1  0.87121757  0.62546368  0.24865918  1
  Zn  Zn113  1  0.00165943  0.87673012  0.87509051  1
  Zn  Zn114  1  0.49768642  0.49918045  0.50123406  1
  Zn  Zn115  1  0.12652232  0.24828372  0.87362977  1
  Zn  Zn116  1  0.75219485  0.87635206  0.12871926  1
  Zn  Zn117  1  0.50145091  0.87567466  0.87369367  1
  Zn  Zn118  1  0.87590701  0.50178930  0.87188244  1
  Zn  Zn119  1  0.87341220  0.74903261  0.62621073  1
  Zn  Zn120  1  0.25212576  -0.00094681  0.75098884  1
  Zn  Zn121  1  0.00060986  0.00032922  0.49930770  1
  Zn  Zn122  1  0.00113670  0.00050625  -0.00294061  1
  Zn  Zn123  1  0.75051736  0.50197922  0.24925899  1
  Zn  Zn124  1  0.87405763  0.62366260  0.74880645  1
  Zn  Zn125  1  0.50095581  0.12764465  0.12570144  1
  Zn  Zn126  1  0.75177652  0.50109188  0.74994322  1
  Zn  Zn127  1  0.24850278  0.25175420  0.50058284  1
  Zn  Zn128  1  0.18847739  0.18648775  0.18809804  1
  Zn  Zn129  1  0.18909364  0.18595475  0.68971825  1
  Zn  Zn130  1  0.18626487  0.68863892  0.18604998  1
  Zn  Zn131  1  0.18600991  0.68547259  0.68747041  1
  Zn  Zn132  1  0.68840108  0.18869122  0.18751085  1
  Zn  Zn133  1  0.68799109  0.18753807  0.68742454  1
  Zn  Zn134  1  0.68609337  0.68768675  0.18900894  1
  Zn  Zn135  1  0.68582504  0.68821074  0.68903481  1
  Zn  Zn136  1  0.31206828  0.31183439  0.31110629  1
  Zn  Zn137  1  0.31324466  0.31273601  0.81170464  1
  Zn  Zn138  1  0.31069998  0.81356947  0.31229369  1
  Zn  Zn139  1  0.31305020  0.81324232  0.81480035  1
  Zn  Zn140  1  0.81319804  0.31051703  0.31219853  1
  Zn  Zn141  1  0.81304970  0.31269556  0.81146270  1
  Zn  Zn142  1  0.81222646  0.81170321  0.31263160  1
  Zn  Zn143  1  0.81274617  0.81314764  0.81420820  1
  Zn  Zn144  1  0.18878118  0.43471972  0.43837723  1
  Zn  Zn145  1  0.18569843  0.43731920  0.93656556  1
  Zn  Zn146  1  0.18775356  0.93795038  0.43805976  1
  Zn  Zn147  1  0.19005764  0.93662941  0.93765411  1
  Zn  Zn148  1  0.68631501  0.43877452  0.43845321  1
  Zn  Zn149  1  0.68458812  0.43975815  0.93827202  1
  Zn  Zn150  1  0.68935722  0.93812478  0.43767091  1
  Zn  Zn151  1  0.68808173  0.93731134  0.93755247  1
  Zn  Zn152  1  0.31290121  0.06409462  0.06286617  1
  Zn  Zn153  1  0.31179376  0.06312076  0.56231105  1
  Zn  Zn154  1  0.31281841  0.56293601  0.06190751  1
  Zn  Zn155  1  0.31247652  0.56057480  0.56222074  1
  Zn  Zn156  1  0.81247387  0.06318447  0.06252214  1
  Zn  Zn157  1  0.81349388  0.06079100  0.56107203  1
  Zn  Zn158  1  0.81317185  0.56087266  0.06020671  1
  Zn  Zn159  1  0.81238694  0.56308423  0.56271852  1
  Zn  Zn160  1  0.43631947  0.43799621  0.18613050  1
  Zn  Zn161  1  0.43808068  0.43659508  0.68861751  1
  Zn  Zn162  1  0.43917338  0.93831102  0.18761098  1
  Zn  Zn163  1  0.43878802  0.93596648  0.68903918  1
  Zn  Zn164  1  0.93622885  0.43967540  0.18749245  1
  Zn  Zn165  1  0.93468257  0.43998893  0.68854884  1
  Zn  Zn166  1  0.93932894  0.93874559  0.18700301  1
  Zn  Zn167  1  0.93804587  0.93572559  0.68744661  1
  Zn  Zn168  1  0.06206589  0.06141210  0.31097914  1
  Zn  Zn169  1  0.06281607  0.06146862  0.81199097  1
  Zn  Zn170  1  0.06063575  0.56232372  0.31081198  1
  Zn  Zn171  1  0.06403835  0.56285861  0.81269345  1
  Zn  Zn172  1  0.56236792  0.06341477  0.31288795  1
  Zn  Zn173  1  0.56404144  0.06338865  0.81338371  1
  Zn  Zn174  1  0.56270865  0.56104304  0.31231846  1
  Zn  Zn175  1  0.56387928  0.56279974  0.81336326  1
  Zn  Zn176  1  0.43816143  0.18809823  0.43673700  1
  Zn  Zn177  1  0.43776683  0.18794263  0.93881831  1
  Zn  Zn178  1  0.43701156  0.68629207  0.43864332  1
  Zn  Zn179  1  0.43548514  0.68584517  0.93596771  1
  Zn  Zn180  1  0.93883660  0.18580202  0.43786006  1
  Zn  Zn181  1  0.93813660  0.18883995  0.93741916  1
  Zn  Zn182  1  0.93487444  0.68775437  0.43751561  1
  Zn  Zn183  1  0.93775071  0.69024257  0.93783688  1
  Zn  Zn184  1  0.06380523  0.31042706  0.06133113  1
  Zn  Zn185  1  0.06302242  0.31105274  0.56086087  1
  Zn  Zn186  1  0.06214530  0.81279477  0.06236557  1
  Zn  Zn187  1  0.06142006  0.81290745  0.56314094  1
  Zn  Zn188  1  0.56227581  0.31411473  0.06194757  1
  Zn  Zn189  1  0.56268386  0.31171622  0.56177984  1
  Zn  Zn190  1  0.56240181  0.81484059  0.06395579  1
  Zn  Zn191  1  0.56295361  0.81206136  0.56504677  1
  O  O192  1  0.12124652  0.11735988  0.12044669  1
  O  O193  1  0.12068301  0.11563577  0.62597815  1
  O  O194  1  0.11636793  0.62052561  0.12022950  1
  O  O195  1  0.11888834  0.61849601  0.61761589  1
  O  O196  1  0.62298832  0.11524113  0.12421871  1
  O  O197  1  0.62027500  0.11942884  0.61927869  1
  O  O198  1  0.61731386  0.62487388  0.11971352  1
  O  O199  1  0.61953750  0.61997420  0.62055501  1
  O  O200  1  0.38461485  0.38032616  0.37162671  1
  O  O201  1  0.38415271  0.37767663  0.87585174  1
  O  O202  1  0.37990794  0.87948595  0.38138949  1
  O  O203  1  0.37803576  0.88211859  0.88293566  1
  O  O204  1  0.88036950  0.37957898  0.38030228  1
  O  O205  1  0.88284576  0.37456847  0.88231093  1
  O  O206  1  0.88006686  0.87969393  0.37995353  1
  O  O207  1  0.87505031  0.88136340  0.88478864  1
  O  O208  1  0.25620924  0.00858042  0.37468835  1
  O  O209  1  0.25889869  0.00682765  0.87453242  1
  O  O210  1  0.25354094  0.50549597  0.36822853  1
  O  O211  1  0.24872220  0.50064171  0.86095638  1
  O  O212  1  0.75709124  0.00706770  0.37347466  1
  O  O213  1  0.75519514  0.00640280  0.86961193  1
  O  O214  1  0.75569837  0.50582597  0.37533003  1
  O  O215  1  0.74899932  0.51316157  0.87619787  1
  O  O216  1  0.24402566  0.49557458  0.13077773  1
  O  O217  1  0.24314100  0.49879081  0.63400164  1
  O  O218  1  0.23807661  1.00009769  0.12718307  1
  O  O219  1  0.24262500  0.99378805  0.62639159  1
  O  O220  1  0.74821573  0.48746024  0.12505749  1
  O  O221  1  0.74264293  0.49291165  0.62488538  1
  O  O222  1  0.73796913  0.99899838  0.12633218  1
  O  O223  1  0.74522001  0.99537396  0.63015894  1
  O  O224  1  0.00485786  0.37024868  0.25449313  1
  O  O225  1  0.00338310  0.37012000  0.75632682  1
  O  O226  1  0.00550899  0.86870063  0.25584921  1
  O  O227  1  0.00683142  0.86416417  0.75015731  1
  O  O228  1  0.50718425  0.37157234  0.25619382  1
  O  O229  1  0.50713699  0.36897780  0.75563916  1
  O  O230  1  0.50466903  0.86902235  0.25743212  1
  O  O231  1  0.50268392  0.86569273  0.75244578  1
  O  O232  1  0.49362867  0.13312189  0.25067261  1
  O  O233  1  0.49626420  0.13061320  0.74450407  1
  O  O234  1  0.49397808  0.63061240  0.24614833  1
  O  O235  1  0.49422475  0.62988294  0.74414782  1
  O  O236  1  0.99523940  0.13052151  0.24413705  1
  O  O237  1  0.99403078  0.13051516  0.74445785  1
  O  O238  1  0.99995773  0.63057036  0.23979237  1
  O  O239  1  1.00174154  0.63442923  0.74439841  1
  O  O240  1  0.36837167  0.25149962  0.00709567  1
  O  O241  1  0.37618057  0.24952043  0.51213118  1
  O  O242  1  0.37100032  0.75473993  0.00573571  1
  O  O243  1  0.36901595  0.75463792  0.50549593  1
  O  O244  1  0.86896829  0.26160776  0.00064246  1
  O  O245  1  0.87030528  0.25538926  0.50505806  1
  O  O246  1  0.86616738  0.75944397  0.00070648  1
  O  O247  1  0.86688733  0.75692493  0.50088229  1
  O  O248  1  0.12687943  0.24636302  0.49098141  1
  O  O249  1  0.13287082  0.24242554  0.99786470  1
  O  O250  1  0.12980485  0.74431757  0.49453458  1
  O  O251  1  0.13035706  0.74609966  0.99547029  1
  O  O252  1  0.63175476  0.24261122  0.49902284  1
  O  O253  1  0.63141507  0.24996996  0.99315634  1
  O  O254  1  0.62912307  0.74451246  0.49509518  1
  O  O255  1  0.63219512  0.74657797  0.99612082  1
  O  O256  1  0.49350371  0.25047050  0.13091113  1
  O  O257  1  0.49434179  0.24375218  0.63052617  1
  O  O258  1  0.49426378  0.74497353  0.13143131  1
  O  O259  1  0.49376402  0.74394389  0.63044584  1
  O  O260  1  0.99993370  0.24367379  0.13171531  1
  O  O261  1  0.99379127  0.24453809  0.62956220  1
  O  O262  1  1.00047108  0.74012368  0.13042394  1
  O  O263  1  1.00099589  0.74402703  0.63468687  1
  O  O264  1  0.00496580  0.25537498  0.36893288  1
  O  O265  1  0.00066121  0.26009583  0.86767806  1
  O  O266  1  0.00569726  0.75432470  0.37029445  1
  O  O267  1  0.00703289  0.75131415  0.86561044  1
  O  O268  1  0.50078864  0.26003801  0.36783043  1
  O  O269  1  0.50575266  0.25485703  0.86983321  1
  O  O270  1  0.50413064  0.75501472  0.37088361  1
  O  O271  1  0.50672275  0.74972532  0.87015124  1
  O  O272  1  0.24944024  0.12715843  0.48669197  1
  O  O273  1  0.24547443  0.13084773  0.99455872  1
  O  O274  1  0.24343357  0.62957776  0.49425340  1
  O  O275  1  0.24292532  0.63205693  0.99999142  1
  O  O276  1  0.74586166  0.12996791  0.49498326  1
  O  O277  1  0.75028232  0.13318567  0.99295696  1
  O  O278  1  0.74270141  0.63064022  0.49513521  1
  O  O279  1  0.74541629  0.63344298  0.99480032  1
  O  O280  1  0.24947573  0.36894422  0.00610699  1
  O  O281  1  0.25486193  0.36996017  0.50341262  1
  O  O282  1  0.25790975  0.86831108  0.00370261  1
  O  O283  1  0.25560414  0.86828469  0.50504196  1
  O  O284  1  0.75640548  0.37160716  0.00549812  1
  O  O285  1  0.75486769  0.36901436  0.50513213  1
  O  O286  1  0.75816918  0.86662299  0.00072905  1
  O  O287  1  0.75469587  0.86942463  0.50534866  1
  O  O288  1  0.12972811  0.49463724  0.24439537  1
  O  O289  1  0.13148833  0.49515097  0.74344333  1
  O  O290  1  0.12557803  0.99419875  0.24018897  1
  O  O291  1  0.12695240  0.99328850  0.73977645  1
  O  O292  1  0.62673890  0.48732891  0.24736744  1
  O  O293  1  0.62784209  0.49369957  0.74351738  1
  O  O294  1  0.62375529  0.99470577  0.24197139  1
  O  O295  1  0.63203358  0.99991258  0.74344733  1
  O  O296  1  0.37535911  0.00610909  0.25735757  1
  O  O297  1  0.37654774  0.00638520  0.75676048  1
  O  O298  1  0.36803539  0.50669117  0.25451728  1
  O  O299  1  0.36479821  0.50472556  0.74808842  1
  O  O300  1  0.87440494  0.00651879  0.25625765  1
  O  O301  1  0.86963677  0.00529946  0.75455036  1
  O  O302  1  0.87173290  0.50266714  0.25844212  1
  O  O303  1  0.86946736  0.50505690  0.75442351  1
  O  O304  1  0.11874713  0.37036160  0.36812663  1
  O  O305  1  0.11491711  0.37240326  0.86820184  1
  O  O306  1  0.11976709  0.86947849  0.37095876  1
  O  O307  1  0.12476125  0.86884032  0.86838456  1
  O  O308  1  0.61685244  0.37451638  0.36635720  1
  O  O309  1  0.62044284  0.36933605  0.86929284  1
  O  O310  1  0.61839143  0.86979018  0.37209624  1
  O  O311  1  0.62365419  0.86590419  0.87370843  1
  O  O312  1  0.37616282  0.13215256  0.13269289  1
  O  O313  1  0.38166326  0.13085865  0.62987824  1
  O  O314  1  0.37983404  0.63158791  0.13181114  1
  O  O315  1  0.37954222  0.63051457  0.62967437  1
  O  O316  1  0.88174322  0.12644160  0.13067577  1
  O  O317  1  0.87965072  0.12959928  0.63036237  1
  O  O318  1  0.88632169  0.62594919  0.12387740  1
  O  O319  1  0.88291452  0.62862445  0.62622529  1
  O  O320  1  0.25428531  0.25538545  0.12016906  1
  O  O321  1  0.26251258  0.24841774  0.62514699  1
  O  O322  1  0.25670907  0.75134917  0.11898786  1
  O  O323  1  0.25435589  0.75414734  0.61916299  1
  O  O324  1  0.75150621  0.26180247  0.11856651  1
  O  O325  1  0.75592813  0.25484896  0.61912962  1
  O  O326  1  0.75014397  0.75108609  0.11278518  1
  O  O327  1  0.74949797  0.75608271  0.61904291  1
  O  O328  1  0.24468784  0.24066330  0.37359498  1
  O  O329  1  0.24979141  0.24315791  0.88057734  1
  O  O330  1  0.24415038  0.74401357  0.38066910  1
  O  O331  1  0.24379355  0.74803284  0.88215393  1
  O  O332  1  0.74898660  0.24344177  0.38222043  1
  O  O333  1  0.74495837  0.24594952  0.87872963  1
  O  O334  1  0.74253333  0.74463511  0.38166089  1
  O  O335  1  0.74477305  0.74357333  0.88535014  1
  O  O336  1  0.00682985  0.12471655  0.00550667  1
  O  O337  1  0.00269637  0.12122748  0.50879179  1
  O  O338  1  0.00564338  0.62535763  0.00888743  1
  O  O339  1  0.00518899  0.61959444  0.50375110  1
  O  O340  1  0.50240298  0.11327881  0.00275057  1
  O  O341  1  0.50571106  0.11891689  0.50469269  1
  O  O342  1  0.50438519  0.62118983  0.00577391  1
  O  O343  1  0.50608204  0.62457117  0.50719800  1
  O  O344  1  0.49939062  0.37521752  0.48647366  1
  O  O345  1  0.49925996  0.38253549  0.99378423  1
  O  O346  1  0.49433576  0.87953012  0.49598373  1
  O  O347  1  0.49484668  0.88648142  0.99968856  1
  O  O348  1  0.99406791  0.38007440  0.49366467  1
  O  O349  1  0.99279653  0.37337828  0.99169728  1
  O  O350  1  0.99348391  0.87497256  0.49321186  1
  O  O351  1  0.98819473  0.87542007  0.99750675  1
  O  O352  1  0.49362365  0.49058733  0.37393478  1
  O  O353  1  0.50016963  0.49438123  0.88170845  1
  O  O354  1  0.49484666  0.99439591  0.38180700  1
  O  O355  1  0.49641292  1.00018564  0.88515894  1
  O  O356  1  0.99502903  0.49429344  0.38003194  1
  O  O357  1  0.99970054  0.48718313  0.87583490  1
  O  O358  1  0.99437560  0.99255442  0.37600977  1
  O  O359  1  0.99146289  0.99739016  0.87628372  1
  O  O360  1  0.01157476  0.00668045  0.12265517  1
  O  O361  1  0.00952832  0.00464117  0.62551570  1
  O  O362  1  0.00592380  0.50931191  0.12375750  1
  O  O363  1  0.00468226  0.50465075  0.61834630  1
  O  O364  1  0.50907107  0.00192446  0.11736798  1
  O  O365  1  0.50509479  0.00505960  0.61971103  1
  O  O366  1  0.49995842  0.50756982  0.11883447  1
  O  O367  1  0.50608529  0.50618155  0.62446575  1
  O  O368  1  0.24323033  0.38070445  0.24444187  1
  O  O369  1  0.24372657  0.38299336  0.74704097  1
  O  O370  1  0.24142176  0.87755709  0.24800769  1
  O  O371  1  0.24458400  0.87555149  0.74267845  1
  O  O372  1  0.74274498  0.37371353  0.24196615  1
  O  O373  1  0.74341969  0.37462609  0.74261770  1
  O  O374  1  0.74130461  0.87709860  0.24878985  1
  O  O375  1  0.74937073  0.88151711  0.74409069  1
  O  O376  1  0.25651231  0.12345909  0.26110046  1
  O  O377  1  0.25866694  0.12219314  0.75725257  1
  O  O378  1  0.25383901  0.62043541  0.25509837  1
  O  O379  1  0.25398184  0.61477358  0.74904762  1
  O  O380  1  0.75720185  0.12499418  0.25639629  1
  O  O381  1  0.75642933  0.12005265  0.75473613  1
  O  O382  1  0.74997975  0.62276234  0.25808960  1
  O  O383  1  0.75039982  0.62733359  0.76339223  1
  O  O384  1  0.36831067  0.12059405  0.37061140  1
  O  O385  1  0.37148693  0.12009086  0.87012864  1
  O  O386  1  0.36852124  0.62075332  0.36935119  1
  O  O387  1  0.37074757  0.62119563  0.86549828  1
  O  O388  1  0.87111385  0.11939074  0.36970654  1
  O  O389  1  0.86975336  0.12117255  0.86883816  1
  O  O390  1  0.86747646  0.61810572  0.37521176  1
  O  O391  1  0.86398022  0.62506082  0.87716395  1
  O  O392  1  0.12940625  0.38027281  0.13016895  1
  O  O393  1  0.12397599  0.38132682  0.63082225  1
  O  O394  1  0.12453485  0.88428830  0.12991813  1
  O  O395  1  0.13044737  0.88119195  0.62960343  1
  O  O396  1  0.63352153  0.37606549  0.13274963  1
  O  O397  1  0.62930769  0.37916085  0.62975106  1
  O  O398  1  0.62548255  0.88494336  0.13202359  1
  O  O399  1  0.63195174  0.88243266  0.62600159  1
  O  O400  1  0.11960969  0.25573168  0.25500404  1
  O  O401  1  0.11792063  0.25577747  0.75025634  1
  O  O402  1  0.11917629  0.75493850  0.25602379  1
  O  O403  1  0.11802976  0.75366193  0.75439616  1
  O  O404  1  0.61947270  0.26156894  0.25086981  1
  O  O405  1  0.62001232  0.25528831  0.75464010  1
  O  O406  1  0.61781017  0.75534523  0.25682848  1
  O  O407  1  0.61762457  0.75056898  0.75814564  1
  O  O408  1  0.37987291  0.24527430  0.24399363  1
  O  O409  1  0.38211579  0.24381734  0.74197105  1
  O  O410  1  0.37976058  0.74510454  0.24631999  1
  O  O411  1  0.37881867  0.74424423  0.74410316  1
  O  O412  1  0.88273938  0.24350938  0.24825200  1
  O  O413  1  0.88002434  0.24439143  0.74316554  1
  O  O414  1  0.88264343  0.74702296  0.24718901  1
  O  O415  1  0.88748177  0.74877050  0.75019559  1
  O  O416  1  0.37772939  0.49785530  0.49122663  1
  O  O417  1  0.38246679  0.49834934  0.99721782  1
  O  O418  1  0.38100572  0.99418629  0.49565854  1
  O  O419  1  0.38360858  0.99642183  0.99714237  1
  O  O420  1  0.88064820  0.49356313  0.49453075  1
  O  O421  1  0.87781672  0.48665689  0.99612271  1
  O  O422  1  0.87677479  0.99221877  0.49277577  1
  O  O423  1  0.87460786  0.99169038  0.99414526  1
  O  O424  1  0.12477050  0.00502489  0.00862675  1
  O  O425  1  0.12371873  0.00019214  0.51336612  1
  O  O426  1  0.12332741  0.50678514  0.00668767  1
  O  O427  1  0.11880299  0.50479194  0.50332305  1
  O  O428  1  0.61793830  0.00034879  0.00840186  1
  O  O429  1  0.61966968  0.00515019  0.50566124  1
  O  O430  1  0.61674660  0.50818215  0.00293865  1
  O  O431  1  0.62127683  0.50652940  0.50705013  1
  O  O432  1  0.36636778  0.36861292  0.12477489  1
  O  O433  1  0.37650955  0.36208788  0.62487646  1
  O  O434  1  0.37498157  0.86887206  0.11978237  1
  O  O435  1  0.37003440  0.86905058  0.61953664  1
  O  O436  1  0.86797234  0.37403598  0.11626620  1
  O  O437  1  0.86999707  0.36926823  0.61873151  1
  O  O438  1  0.87296673  0.87504278  0.11420357  1
  O  O439  1  0.86812207  0.87314122  0.61841878  1
  O  O440  1  0.13370257  0.12906991  0.37377768  1
  O  O441  1  0.13217732  0.12499434  0.88035369  1
  O  O442  1  0.12931780  0.62996396  0.37945625  1
  O  O443  1  0.12646284  0.63183104  0.88224976  1
  O  O444  1  0.63170608  0.12619730  0.38147390  1
  O  O445  1  0.63284828  0.13267224  0.87635362  1
  O  O446  1  0.62820175  0.63028843  0.38059043  1
  O  O447  1  0.63288820  0.63259515  0.88230525  1
